MODEL 1
REMARK VINA RESULT:      -8.0      0.000      0.000
REMARK  Name = 
REMARK  10 active torsions:
REMARK  status: ('A' for Active; 'I' for Inactive)
REMARK    1  A    between atoms: C_1  and  C_2
REMARK    2  A    between atoms: C_2  and  O_3
REMARK    3  A    between atoms: O_3  and  C_4
REMARK    4  A    between atoms: C_7  and  C_8
REMARK    5  A    between atoms: C_9  and  C_10
REMARK    6  A    between atoms: C_13  and  C_14
REMARK    7  A    between atoms: C_14  and  C_15
REMARK    8  A    between atoms: C_15  and  C_16
REMARK    9  A    between atoms: C_15  and  N_17
REMARK   10  A    between atoms: C_18  and  C_20
REMARK                            x       y       z     vdW  Elec       q    Type
REMARK                         _______ _______ _______ _____ _____    ______ ____
ROOT
ATOM      1  C   UNL     1       7.117   7.098  17.490  0.00  0.00    +0.000 A 
ATOM      2  C   UNL     1       6.032   7.126  16.612  0.00  0.00    +0.000 A 
ATOM      3  C   UNL     1       5.358   5.942  16.295  0.00  0.00    +0.000 A 
ATOM      4  C   UNL     1       5.771   4.717  16.841  0.00  0.00    +0.000 A 
ATOM      5  C   UNL     1       6.869   4.701  17.713  0.00  0.00    +0.000 A 
ATOM      6  C   UNL     1       7.535   5.886  18.037  0.00  0.00    +0.000 A 
ENDROOT
BRANCH   1   8
ATOM      7  C   UNL     1       8.356   9.328  18.129  0.00  0.00    +0.000 C 
ATOM      8  C   UNL     1       7.782   8.312  17.851  0.00  0.00    +0.000 C 
BRANCH   7  12
ATOM      9  C   UNL     1      10.520  12.843  19.032  0.00  0.00    +0.000 A 
ATOM     10  C   UNL     1      10.744  11.669  19.757  0.00  0.00    +0.000 A 
ATOM     11  C   UNL     1      10.026  10.510  19.460  0.00  0.00    +0.000 A 
ATOM     12  C   UNL     1       9.068  10.526  18.448  0.00  0.00    +0.000 A 
ATOM     13  C   UNL     1       8.816  11.704  17.743  0.00  0.00    +0.000 A 
ATOM     14  C   UNL     1       9.535  12.867  18.044  0.00  0.00    +0.000 A 
BRANCH   9  15
ATOM     15  O   UNL     1      11.311  13.900  19.386  0.00  0.00    +0.000 OA
BRANCH  15  17
ATOM     16  C   UNL     1      10.433  15.074  21.262  0.00  0.00    +0.000 C 
ATOM     17  C   UNL     1      10.625  15.097  19.758  0.00  0.00    +0.000 C 
ENDBRANCH  15  17
ENDBRANCH   9  15
ENDBRANCH   7  12
ENDBRANCH   1   8
BRANCH   4  18
ATOM     18  C   UNL     1       5.023   3.439  16.527  0.00  0.00    +0.000 C 
BRANCH  18  19
ATOM     19  C   UNL     1       3.760   3.204  17.386  0.00  0.00    +0.000 C 
ATOM     20  C   UNL     1       3.745   1.813  18.018  0.00  0.00    +0.000 C 
BRANCH  19  21
ATOM     21  N   UNL     1       3.647   4.215  18.441  0.00  0.00    +0.000 N 
ATOM     22  C   UNL     1       2.590   5.104  18.498  0.00  0.00    +0.000 C 
ATOM     23  O   UNL     1       1.679   5.073  17.667  0.00  0.00    +0.000 OA
ATOM     24  H   UNL     1       4.423   4.336  19.078  0.00  0.00    +0.000 HD
BRANCH  22  25
ATOM     25  C   UNL     1       2.664   6.111  19.685  0.00  0.00    +0.000 C 
ATOM     26  C   UNL     1       2.265   7.581  19.383  0.00  0.00    +0.000 C 
ATOM     27  C   UNL     1       1.633   7.635  20.786  0.00  0.00    +0.000 C 
ATOM     28  C   UNL     1       1.489   6.104  20.704  0.00  0.00    +0.000 C 
ENDBRANCH  22  25
ENDBRANCH  19  21
ENDBRANCH  18  19
ENDBRANCH   4  18
TORSDOF 8
ENDMDL
MODEL 2
REMARK VINA RESULT:      -7.9      1.635      2.235
REMARK  Name = 
REMARK  10 active torsions:
REMARK  status: ('A' for Active; 'I' for Inactive)
REMARK    1  A    between atoms: C_1  and  C_2
REMARK    2  A    between atoms: C_2  and  O_3
REMARK    3  A    between atoms: O_3  and  C_4
REMARK    4  A    between atoms: C_7  and  C_8
REMARK    5  A    between atoms: C_9  and  C_10
REMARK    6  A    between atoms: C_13  and  C_14
REMARK    7  A    between atoms: C_14  and  C_15
REMARK    8  A    between atoms: C_15  and  C_16
REMARK    9  A    between atoms: C_15  and  N_17
REMARK   10  A    between atoms: C_18  and  C_20
REMARK                            x       y       z     vdW  Elec       q    Type
REMARK                         _______ _______ _______ _____ _____    ______ ____
ROOT
ATOM      1  C   UNL     1       8.114   8.261  18.178  0.00  0.00    +0.000 A 
ATOM      2  C   UNL     1       7.121   8.052  17.218  0.00  0.00    +0.000 A 
ATOM      3  C   UNL     1       6.469   6.818  17.144  0.00  0.00    +0.000 A 
ATOM      4  C   UNL     1       6.813   5.773  18.016  0.00  0.00    +0.000 A 
ATOM      5  C   UNL     1       7.819   5.992  18.967  0.00  0.00    +0.000 A 
ATOM      6  C   UNL     1       8.464   7.229  19.048  0.00  0.00    +0.000 A 
ENDROOT
BRANCH   1   8
ATOM      7  C   UNL     1       9.279  10.612  18.353  0.00  0.00    +0.000 C 
ATOM      8  C   UNL     1       8.754   9.535  18.287  0.00  0.00    +0.000 C 
BRANCH   7  12
ATOM      9  C   UNL     1      11.185  14.382  18.428  0.00  0.00    +0.000 A 
ATOM     10  C   UNL     1      11.809  13.263  18.986  0.00  0.00    +0.000 A 
ATOM     11  C   UNL     1      11.177  12.020  18.964  0.00  0.00    +0.000 A 
ATOM     12  C   UNL     1       9.909  11.894  18.398  0.00  0.00    +0.000 A 
ATOM     13  C   UNL     1       9.266  13.015  17.870  0.00  0.00    +0.000 A 
ATOM     14  C   UNL     1       9.900  14.262  17.896  0.00  0.00    +0.000 A 
BRANCH   9  15
ATOM     15  O   UNL     1      11.917  15.535  18.473  0.00  0.00    +0.000 OA
BRANCH  15  17
ATOM     16  C   UNL     1      11.374  17.036  20.240  0.00  0.00    +0.000 C 
ATOM     17  C   UNL     1      11.189  16.728  18.766  0.00  0.00    +0.000 C 
ENDBRANCH  15  17
ENDBRANCH   9  15
ENDBRANCH   7  12
ENDBRANCH   1   8
BRANCH   4  18
ATOM     18  C   UNL     1       6.085   4.447  17.960  0.00  0.00    +0.000 C 
BRANCH  18  19
ATOM     19  C   UNL     1       4.573   4.554  17.664  0.00  0.00    +0.000 C 
ATOM     20  C   UNL     1       4.163   3.709  16.459  0.00  0.00    +0.000 C 
BRANCH  19  21
ATOM     21  N   UNL     1       3.780   4.148  18.828  0.00  0.00    +0.000 N 
ATOM     22  C   UNL     1       3.113   5.066  19.620  0.00  0.00    +0.000 C 
ATOM     23  O   UNL     1       3.142   6.272  19.368  0.00  0.00    +0.000 OA
ATOM     24  H   UNL     1       3.816   3.182  19.124  0.00  0.00    +0.000 HD
BRANCH  22  25
ATOM     25  C   UNL     1       2.343   4.435  20.819  0.00  0.00    +0.000 C 
ATOM     26  C   UNL     1       0.948   3.826  20.514  0.00  0.00    +0.000 C 
ATOM     27  C   UNL     1       1.273   2.720  21.536  0.00  0.00    +0.000 C 
ATOM     28  C   UNL     1       2.762   3.005  21.266  0.00  0.00    +0.000 C 
ENDBRANCH  22  25
ENDBRANCH  19  21
ENDBRANCH  18  19
ENDBRANCH   4  18
TORSDOF 8
ENDMDL
MODEL 3
REMARK VINA RESULT:      -7.9      0.727      1.349
REMARK  Name = 
REMARK  10 active torsions:
REMARK  status: ('A' for Active; 'I' for Inactive)
REMARK    1  A    between atoms: C_1  and  C_2
REMARK    2  A    between atoms: C_2  and  O_3
REMARK    3  A    between atoms: O_3  and  C_4
REMARK    4  A    between atoms: C_7  and  C_8
REMARK    5  A    between atoms: C_9  and  C_10
REMARK    6  A    between atoms: C_13  and  C_14
REMARK    7  A    between atoms: C_14  and  C_15
REMARK    8  A    between atoms: C_15  and  C_16
REMARK    9  A    between atoms: C_15  and  N_17
REMARK   10  A    between atoms: C_18  and  C_20
REMARK                            x       y       z     vdW  Elec       q    Type
REMARK                         _______ _______ _______ _____ _____    ______ ____
ROOT
ATOM      1  C   UNL     1       7.271   7.092  17.678  0.00  0.00    +0.000 A 
ATOM      2  C   UNL     1       7.601   5.849  18.222  0.00  0.00    +0.000 A 
ATOM      3  C   UNL     1       6.904   4.704  17.825  0.00  0.00    +0.000 A 
ATOM      4  C   UNL     1       5.859   4.791  16.892  0.00  0.00    +0.000 A 
ATOM      5  C   UNL     1       5.530   6.046  16.362  0.00  0.00    +0.000 A 
ATOM      6  C   UNL     1       6.234   7.189  16.751  0.00  0.00    +0.000 A 
ENDROOT
BRANCH   1   8
ATOM      7  C   UNL     1       8.628   9.230  18.385  0.00  0.00    +0.000 C 
ATOM      8  C   UNL     1       8.009   8.260  18.048  0.00  0.00    +0.000 C 
BRANCH   7  12
ATOM      9  C   UNL     1      10.809  12.611  19.677  0.00  0.00    +0.000 A 
ATOM     10  C   UNL     1      10.175  11.781  20.606  0.00  0.00    +0.000 A 
ATOM     11  C   UNL     1       9.453  10.667  20.178  0.00  0.00    +0.000 A 
ATOM     12  C   UNL     1       9.346  10.388  18.816  0.00  0.00    +0.000 A 
ATOM     13  C   UNL     1       9.948  11.233  17.882  0.00  0.00    +0.000 A 
ATOM     14  C   UNL     1      10.670  12.352  18.313  0.00  0.00    +0.000 A 
BRANCH   9  15
ATOM     15  O   UNL     1      11.520  13.646  20.217  0.00  0.00    +0.000 OA
BRANCH  15  17
ATOM     16  C   UNL     1      10.405  15.591  21.018  0.00  0.00    +0.000 C 
ATOM     17  C   UNL     1      11.105  14.958  19.832  0.00  0.00    +0.000 C 
ENDBRANCH  15  17
ENDBRANCH   9  15
ENDBRANCH   7  12
ENDBRANCH   1   8
BRANCH   4  18
ATOM     18  C   UNL     1       5.125   3.549  16.435  0.00  0.00    +0.000 C 
BRANCH  18  19
ATOM     19  C   UNL     1       3.862   3.206  17.257  0.00  0.00    +0.000 C 
ATOM     20  C   UNL     1       4.141   2.150  18.325  0.00  0.00    +0.000 C 
BRANCH  19  21
ATOM     21  N   UNL     1       3.311   4.404  17.896  0.00  0.00    +0.000 N 
ATOM     22  C   UNL     1       1.961   4.703  17.859  0.00  0.00    +0.000 C 
ATOM     23  O   UNL     1       1.154   3.959  17.299  0.00  0.00    +0.000 OA
ATOM     24  H   UNL     1       3.953   5.088  18.276  0.00  0.00    +0.000 HD
BRANCH  22  25
ATOM     25  C   UNL     1       1.580   6.031  18.582  0.00  0.00    +0.000 C 
ATOM     26  C   UNL     1       2.078   6.201  20.043  0.00  0.00    +0.000 C 
ATOM     27  C   UNL     1       2.296   7.694  19.731  0.00  0.00    +0.000 C 
ATOM     28  C   UNL     1       2.425   7.294  18.249  0.00  0.00    +0.000 C 
ENDBRANCH  22  25
ENDBRANCH  19  21
ENDBRANCH  18  19
ENDBRANCH   4  18
TORSDOF 8
ENDMDL
MODEL 4
REMARK VINA RESULT:      -7.9      1.673      2.417
REMARK  Name = 
REMARK  10 active torsions:
REMARK  status: ('A' for Active; 'I' for Inactive)
REMARK    1  A    between atoms: C_1  and  C_2
REMARK    2  A    between atoms: C_2  and  O_3
REMARK    3  A    between atoms: O_3  and  C_4
REMARK    4  A    between atoms: C_7  and  C_8
REMARK    5  A    between atoms: C_9  and  C_10
REMARK    6  A    between atoms: C_13  and  C_14
REMARK    7  A    between atoms: C_14  and  C_15
REMARK    8  A    between atoms: C_15  and  C_16
REMARK    9  A    between atoms: C_15  and  N_17
REMARK   10  A    between atoms: C_18  and  C_20
REMARK                            x       y       z     vdW  Elec       q    Type
REMARK                         _______ _______ _______ _____ _____    ______ ____
ROOT
ATOM      1  C   UNL     1       8.056   8.104  18.261  0.00  0.00    +0.000 A 
ATOM      2  C   UNL     1       6.979   7.968  17.382  0.00  0.00    +0.000 A 
ATOM      3  C   UNL     1       6.273   6.763  17.324  0.00  0.00    +0.000 A 
ATOM      4  C   UNL     1       6.645   5.676  18.130  0.00  0.00    +0.000 A 
ATOM      5  C   UNL     1       7.735   5.822  18.999  0.00  0.00    +0.000 A 
ATOM      6  C   UNL     1       8.434   7.030  19.065  0.00  0.00    +0.000 A 
ENDROOT
BRANCH   1   8
ATOM      7  C   UNL     1       9.355  10.382  18.460  0.00  0.00    +0.000 C 
ATOM      8  C   UNL     1       8.755   9.348  18.356  0.00  0.00    +0.000 C 
BRANCH   7  12
ATOM      9  C   UNL     1      11.393  14.053  18.930  0.00  0.00    +0.000 A 
ATOM     10  C   UNL     1      10.897  13.676  17.680  0.00  0.00    +0.000 A 
ATOM     11  C   UNL     1      10.227  12.462  17.525  0.00  0.00    +0.000 A 
ATOM     12  C   UNL     1      10.067  11.611  18.618  0.00  0.00    +0.000 A 
ATOM     13  C   UNL     1      10.591  11.968  19.862  0.00  0.00    +0.000 A 
ATOM     14  C   UNL     1      11.265  13.184  20.015  0.00  0.00    +0.000 A 
BRANCH   9  15
ATOM     15  O   UNL     1      11.994  15.280  18.967  0.00  0.00    +0.000 OA
BRANCH  15  17
ATOM     16  C   UNL     1      11.369  17.490  18.338  0.00  0.00    +0.000 C 
ATOM     17  C   UNL     1      11.773  16.119  17.832  0.00  0.00    +0.000 C 
ENDBRANCH  15  17
ENDBRANCH   9  15
ENDBRANCH   7  12
ENDBRANCH   1   8
BRANCH   4  18
ATOM     18  C   UNL     1       5.861   4.382  18.093  0.00  0.00    +0.000 C 
BRANCH  18  19
ATOM     19  C   UNL     1       4.370   4.541  17.717  0.00  0.00    +0.000 C 
ATOM     20  C   UNL     1       3.996   3.712  16.490  0.00  0.00    +0.000 C 
BRANCH  19  21
ATOM     21  N   UNL     1       3.504   4.163  18.836  0.00  0.00    +0.000 N 
ATOM     22  C   UNL     1       2.633   5.060  19.428  0.00  0.00    +0.000 C 
ATOM     23  O   UNL     1       2.535   6.221  19.024  0.00  0.00    +0.000 OA
ATOM     24  H   UNL     1       3.629   3.252  19.259  0.00  0.00    +0.000 HD
BRANCH  22  25
ATOM     25  C   UNL     1       1.813   4.468  20.614  0.00  0.00    +0.000 C 
ATOM     26  C   UNL     1       0.827   3.316  20.279  0.00  0.00    +0.000 C 
ATOM     27  C   UNL     1       1.201   2.682  21.632  0.00  0.00    +0.000 C 
ATOM     28  C   UNL     1       2.533   3.450  21.544  0.00  0.00    +0.000 C 
ENDBRANCH  22  25
ENDBRANCH  19  21
ENDBRANCH  18  19
ENDBRANCH   4  18
TORSDOF 8
ENDMDL
MODEL 5
REMARK VINA RESULT:      -7.9      1.589      2.000
REMARK  Name = 
REMARK  10 active torsions:
REMARK  status: ('A' for Active; 'I' for Inactive)
REMARK    1  A    between atoms: C_1  and  C_2
REMARK    2  A    between atoms: C_2  and  O_3
REMARK    3  A    between atoms: O_3  and  C_4
REMARK    4  A    between atoms: C_7  and  C_8
REMARK    5  A    between atoms: C_9  and  C_10
REMARK    6  A    between atoms: C_13  and  C_14
REMARK    7  A    between atoms: C_14  and  C_15
REMARK    8  A    between atoms: C_15  and  C_16
REMARK    9  A    between atoms: C_15  and  N_17
REMARK   10  A    between atoms: C_18  and  C_20
REMARK                            x       y       z     vdW  Elec       q    Type
REMARK                         _______ _______ _______ _____ _____    ______ ____
ROOT
ATOM      1  C   UNL     1       7.688   7.465  18.089  0.00  0.00    +0.000 A 
ATOM      2  C   UNL     1       6.674   7.497  17.130  0.00  0.00    +0.000 A 
ATOM      3  C   UNL     1       5.921   6.348  16.869  0.00  0.00    +0.000 A 
ATOM      4  C   UNL     1       6.183   5.151  17.552  0.00  0.00    +0.000 A 
ATOM      5  C   UNL     1       7.211   5.129  18.506  0.00  0.00    +0.000 A 
ATOM      6  C   UNL     1       7.957   6.280  18.773  0.00  0.00    +0.000 A 
ENDROOT
BRANCH   1   8
ATOM      7  C   UNL     1       9.033   9.656  18.642  0.00  0.00    +0.000 C 
ATOM      8  C   UNL     1       8.432   8.648  18.391  0.00  0.00    +0.000 C 
BRANCH   7  12
ATOM      9  C   UNL     1      11.150  13.217  19.472  0.00  0.00    +0.000 A 
ATOM     10  C   UNL     1      10.594  12.466  20.511  0.00  0.00    +0.000 A 
ATOM     11  C   UNL     1       9.892  11.293  20.236  0.00  0.00    +0.000 A 
ATOM     12  C   UNL     1       9.728  10.874  18.916  0.00  0.00    +0.000 A 
ATOM     13  C   UNL     1      10.252  11.638  17.872  0.00  0.00    +0.000 A 
ATOM     14  C   UNL     1      10.954  12.816  18.150  0.00  0.00    +0.000 A 
BRANCH   9  15
ATOM     15  O   UNL     1      11.848  14.323  19.868  0.00  0.00    +0.000 OA
BRANCH  15  17
ATOM     16  C   UNL     1      11.072  16.429  19.074  0.00  0.00    +0.000 C 
ATOM     17  C   UNL     1      12.075  15.312  18.862  0.00  0.00    +0.000 C 
ENDBRANCH  15  17
ENDBRANCH   9  15
ENDBRANCH   7  12
ENDBRANCH   1   8
BRANCH   4  18
ATOM     18  C   UNL     1       5.348   3.915  17.297  0.00  0.00    +0.000 C 
BRANCH  18  19
ATOM     19  C   UNL     1       3.821   4.151  17.329  0.00  0.00    +0.000 C 
ATOM     20  C   UNL     1       3.096   3.366  16.237  0.00  0.00    +0.000 C 
BRANCH  19  21
ATOM     21  N   UNL     1       3.262   3.790  18.634  0.00  0.00    +0.000 N 
ATOM     22  C   UNL     1       3.001   4.736  19.609  0.00  0.00    +0.000 C 
ATOM     23  O   UNL     1       3.212   5.934  19.414  0.00  0.00    +0.000 OA
ATOM     24  H   UNL     1       3.170   2.810  18.867  0.00  0.00    +0.000 HD
BRANCH  22  25
ATOM     25  C   UNL     1       2.425   4.147  20.933  0.00  0.00    +0.000 C 
ATOM     26  C   UNL     1       0.966   3.615  20.887  0.00  0.00    +0.000 C 
ATOM     27  C   UNL     1       1.410   2.493  21.845  0.00  0.00    +0.000 C 
ATOM     28  C   UNL     1       2.840   2.696  21.311  0.00  0.00    +0.000 C 
ENDBRANCH  22  25
ENDBRANCH  19  21
ENDBRANCH  18  19
ENDBRANCH   4  18
TORSDOF 8
ENDMDL
MODEL 6
REMARK VINA RESULT:      -7.9      0.745      1.273
REMARK  Name = 
REMARK  10 active torsions:
REMARK  status: ('A' for Active; 'I' for Inactive)
REMARK    1  A    between atoms: C_1  and  C_2
REMARK    2  A    between atoms: C_2  and  O_3
REMARK    3  A    between atoms: O_3  and  C_4
REMARK    4  A    between atoms: C_7  and  C_8
REMARK    5  A    between atoms: C_9  and  C_10
REMARK    6  A    between atoms: C_13  and  C_14
REMARK    7  A    between atoms: C_14  and  C_15
REMARK    8  A    between atoms: C_15  and  C_16
REMARK    9  A    between atoms: C_15  and  N_17
REMARK   10  A    between atoms: C_18  and  C_20
REMARK                            x       y       z     vdW  Elec       q    Type
REMARK                         _______ _______ _______ _____ _____    ______ ____
ROOT
ATOM      1  C   UNL     1       7.263   7.074  17.671  0.00  0.00    +0.000 A 
ATOM      2  C   UNL     1       6.119   7.177  16.876  0.00  0.00    +0.000 A 
ATOM      3  C   UNL     1       5.393   6.030  16.544  0.00  0.00    +0.000 A 
ATOM      4  C   UNL     1       5.810   4.765  16.988  0.00  0.00    +0.000 A 
ATOM      5  C   UNL     1       6.966   4.674  17.776  0.00  0.00    +0.000 A 
ATOM      6  C   UNL     1       7.686   5.823  18.116  0.00  0.00    +0.000 A 
ENDROOT
BRANCH   1   8
ATOM      7  C   UNL     1       8.607   9.219  18.386  0.00  0.00    +0.000 C 
ATOM      8  C   UNL     1       7.985   8.249  18.050  0.00  0.00    +0.000 C 
BRANCH   7  12
ATOM      9  C   UNL     1      10.741  12.640  19.647  0.00  0.00    +0.000 A 
ATOM     10  C   UNL     1      10.644  12.328  18.289  0.00  0.00    +0.000 A 
ATOM     11  C   UNL     1       9.941  11.197  17.873  0.00  0.00    +0.000 A 
ATOM     12  C   UNL     1       9.348  10.361  18.818  0.00  0.00    +0.000 A 
ATOM     13  C   UNL     1       9.471  10.648  20.179  0.00  0.00    +0.000 A 
ATOM     14  C   UNL     1      10.178  11.782  20.594  0.00  0.00    +0.000 A 
BRANCH   9  15
ATOM     15  O   UNL     1      11.417  13.793  19.929  0.00  0.00    +0.000 OA
BRANCH  15  17
ATOM     16  C   UNL     1       9.700  15.442  19.981  0.00  0.00    +0.000 C 
ATOM     17  C   UNL     1      10.751  14.714  20.795  0.00  0.00    +0.000 C 
ENDBRANCH  15  17
ENDBRANCH   9  15
ENDBRANCH   7  12
ENDBRANCH   1   8
BRANCH   4  18
ATOM     18  C   UNL     1       5.007   3.525  16.658  0.00  0.00    +0.000 C 
BRANCH  18  19
ATOM     19  C   UNL     1       3.884   3.197  17.667  0.00  0.00    +0.000 C 
ATOM     20  C   UNL     1       4.379   2.316  18.812  0.00  0.00    +0.000 C 
BRANCH  19  21
ATOM     21  N   UNL     1       3.301   4.423  18.219  0.00  0.00    +0.000 N 
ATOM     22  C   UNL     1       1.987   4.785  17.982  0.00  0.00    +0.000 C 
ATOM     23  O   UNL     1       1.239   4.078  17.305  0.00  0.00    +0.000 OA
ATOM     24  H   UNL     1       3.910   5.077  18.694  0.00  0.00    +0.000 HD
BRANCH  22  25
ATOM     25  C   UNL     1       1.566   6.132  18.642  0.00  0.00    +0.000 C 
ATOM     26  C   UNL     1       1.930   6.322  20.141  0.00  0.00    +0.000 C 
ATOM     27  C   UNL     1       2.203   7.805  19.824  0.00  0.00    +0.000 C 
ATOM     28  C   UNL     1       2.461   7.375  18.368  0.00  0.00    +0.000 C 
ENDBRANCH  22  25
ENDBRANCH  19  21
ENDBRANCH  18  19
ENDBRANCH   4  18
TORSDOF 8
ENDMDL
MODEL 7
REMARK VINA RESULT:      -7.8      1.621      2.729
REMARK  Name = 
REMARK  10 active torsions:
REMARK  status: ('A' for Active; 'I' for Inactive)
REMARK    1  A    between atoms: C_1  and  C_2
REMARK    2  A    between atoms: C_2  and  O_3
REMARK    3  A    between atoms: O_3  and  C_4
REMARK    4  A    between atoms: C_7  and  C_8
REMARK    5  A    between atoms: C_9  and  C_10
REMARK    6  A    between atoms: C_13  and  C_14
REMARK    7  A    between atoms: C_14  and  C_15
REMARK    8  A    between atoms: C_15  and  C_16
REMARK    9  A    between atoms: C_15  and  N_17
REMARK   10  A    between atoms: C_18  and  C_20
REMARK                            x       y       z     vdW  Elec       q    Type
REMARK                         _______ _______ _______ _____ _____    ______ ____
ROOT
ATOM      1  C   UNL     1       8.099   8.350  18.118  0.00  0.00    +0.000 A 
ATOM      2  C   UNL     1       8.487   7.304  18.958  0.00  0.00    +0.000 A 
ATOM      3  C   UNL     1       7.868   6.055  18.852  0.00  0.00    +0.000 A 
ATOM      4  C   UNL     1       6.844   5.842  17.917  0.00  0.00    +0.000 A 
ATOM      5  C   UNL     1       6.456   6.903  17.087  0.00  0.00    +0.000 A 
ATOM      6  C   UNL     1       7.082   8.148  17.186  0.00  0.00    +0.000 A 
ENDROOT
BRANCH   1   8
ATOM      7  C   UNL     1       9.337  10.666  18.260  0.00  0.00    +0.000 C 
ATOM      8  C   UNL     1       8.759   9.617  18.192  0.00  0.00    +0.000 C 
BRANCH   7  12
ATOM      9  C   UNL     1      11.383  14.344  18.628  0.00  0.00    +0.000 A 
ATOM     10  C   UNL     1      10.189  14.269  17.907  0.00  0.00    +0.000 A 
ATOM     11  C   UNL     1       9.516  13.053  17.783  0.00  0.00    +0.000 A 
ATOM     12  C   UNL     1      10.045  11.902  18.366  0.00  0.00    +0.000 A 
ATOM     13  C   UNL     1      11.256  11.965  19.058  0.00  0.00    +0.000 A 
ATOM     14  C   UNL     1      11.931  13.184  19.179  0.00  0.00    +0.000 A 
BRANCH   9  15
ATOM     15  O   UNL     1      11.929  15.594  18.715  0.00  0.00    +0.000 OA
BRANCH  15  17
ATOM     16  C   UNL     1      11.583  17.592  17.466  0.00  0.00    +0.000 C 
ATOM     17  C   UNL     1      11.022  16.685  18.544  0.00  0.00    +0.000 C 
ENDBRANCH  15  17
ENDBRANCH   9  15
ENDBRANCH   7  12
ENDBRANCH   1   8
BRANCH   4  18
ATOM     18  C   UNL     1       6.195   4.481  17.776  0.00  0.00    +0.000 C 
BRANCH  18  19
ATOM     19  C   UNL     1       4.958   4.449  16.851  0.00  0.00    +0.000 C 
ATOM     20  C   UNL     1       5.223   3.672  15.563  0.00  0.00    +0.000 C 
BRANCH  19  21
ATOM     21  N   UNL     1       3.804   3.864  17.539  0.00  0.00    +0.000 N 
ATOM     22  C   UNL     1       3.004   4.602  18.392  0.00  0.00    +0.000 C 
ATOM     23  O   UNL     1       3.218   5.797  18.599  0.00  0.00    +0.000 OA
ATOM     24  H   UNL     1       3.658   2.865  17.473  0.00  0.00    +0.000 HD
BRANCH  22  25
ATOM     25  C   UNL     1       1.840   3.791  19.038  0.00  0.00    +0.000 C 
ATOM     26  C   UNL     1       2.234   2.541  19.871  0.00  0.00    +0.000 C 
ATOM     27  C   UNL     1       1.085   2.894  20.834  0.00  0.00    +0.000 C 
ATOM     28  C   UNL     1       1.221   4.350  20.351  0.00  0.00    +0.000 C 
ENDBRANCH  22  25
ENDBRANCH  19  21
ENDBRANCH  18  19
ENDBRANCH   4  18
TORSDOF 8
ENDMDL
MODEL 8
REMARK VINA RESULT:      -7.8      1.733      2.640
REMARK  Name = 
REMARK  10 active torsions:
REMARK  status: ('A' for Active; 'I' for Inactive)
REMARK    1  A    between atoms: C_1  and  C_2
REMARK    2  A    between atoms: C_2  and  O_3
REMARK    3  A    between atoms: O_3  and  C_4
REMARK    4  A    between atoms: C_7  and  C_8
REMARK    5  A    between atoms: C_9  and  C_10
REMARK    6  A    between atoms: C_13  and  C_14
REMARK    7  A    between atoms: C_14  and  C_15
REMARK    8  A    between atoms: C_15  and  C_16
REMARK    9  A    between atoms: C_15  and  N_17
REMARK   10  A    between atoms: C_18  and  C_20
REMARK                            x       y       z     vdW  Elec       q    Type
REMARK                         _______ _______ _______ _____ _____    ______ ____
ROOT
ATOM      1  C   UNL     1       8.137   8.310  18.201  0.00  0.00    +0.000 A 
ATOM      2  C   UNL     1       8.466   7.272  19.075  0.00  0.00    +0.000 A 
ATOM      3  C   UNL     1       7.805   6.044  18.983  0.00  0.00    +0.000 A 
ATOM      4  C   UNL     1       6.796   5.845  18.027  0.00  0.00    +0.000 A 
ATOM      5  C   UNL     1       6.467   6.899  17.163  0.00  0.00    +0.000 A 
ATOM      6  C   UNL     1       7.136   8.124  17.249  0.00  0.00    +0.000 A 
ENDROOT
BRANCH   1   8
ATOM      7  C   UNL     1       9.423  10.603  18.287  0.00  0.00    +0.000 C 
ATOM      8  C   UNL     1       8.840   9.554  18.263  0.00  0.00    +0.000 C 
BRANCH   7  12
ATOM      9  C   UNL     1      11.536  14.261  18.209  0.00  0.00    +0.000 A 
ATOM     10  C   UNL     1      12.192  13.072  18.539  0.00  0.00    +0.000 A 
ATOM     11  C   UNL     1      11.493  11.866  18.567  0.00  0.00    +0.000 A 
ATOM     12  C   UNL     1      10.129  11.846  18.283  0.00  0.00    +0.000 A 
ATOM     13  C   UNL     1       9.460  13.035  17.987  0.00  0.00    +0.000 A 
ATOM     14  C   UNL     1      10.162  14.245  17.961  0.00  0.00    +0.000 A 
BRANCH   9  15
ATOM     15  O   UNL     1      12.333  15.371  18.174  0.00  0.00    +0.000 OA
BRANCH  15  17
ATOM     16  C   UNL     1      11.347  17.470  17.632  0.00  0.00    +0.000 C 
ATOM     17  C   UNL     1      11.784  16.553  18.759  0.00  0.00    +0.000 C 
ENDBRANCH  15  17
ENDBRANCH   9  15
ENDBRANCH   7  12
ENDBRANCH   1   8
BRANCH   4  18
ATOM     18  C   UNL     1       6.102   4.506  17.902  0.00  0.00    +0.000 C 
BRANCH  18  19
ATOM     19  C   UNL     1       4.980   4.458  16.840  0.00  0.00    +0.000 C 
ATOM     20  C   UNL     1       5.358   3.585  15.645  0.00  0.00    +0.000 C 
BRANCH  19  21
ATOM     21  N   UNL     1       3.729   3.965  17.421  0.00  0.00    +0.000 N 
ATOM     22  C   UNL     1       2.737   4.819  17.865  0.00  0.00    +0.000 C 
ATOM     23  O   UNL     1       2.855   6.043  17.774  0.00  0.00    +0.000 OA
ATOM     24  H   UNL     1       3.639   2.974  17.605  0.00  0.00    +0.000 HD
BRANCH  22  25
ATOM     25  C   UNL     1       1.493   4.098  18.467  0.00  0.00    +0.000 C 
ATOM     26  C   UNL     1       1.492   2.545  18.420  0.00  0.00    +0.000 C 
ATOM     27  C   UNL     1       0.803   2.563  19.797  0.00  0.00    +0.000 C 
ATOM     28  C   UNL     1       1.428   3.954  20.015  0.00  0.00    +0.000 C 
ENDBRANCH  22  25
ENDBRANCH  19  21
ENDBRANCH  18  19
ENDBRANCH   4  18
TORSDOF 8
ENDMDL
MODEL 9
REMARK VINA RESULT:      -7.6      5.787      8.722
REMARK  Name = 
REMARK  10 active torsions:
REMARK  status: ('A' for Active; 'I' for Inactive)
REMARK    1  A    between atoms: C_1  and  C_2
REMARK    2  A    between atoms: C_2  and  O_3
REMARK    3  A    between atoms: O_3  and  C_4
REMARK    4  A    between atoms: C_7  and  C_8
REMARK    5  A    between atoms: C_9  and  C_10
REMARK    6  A    between atoms: C_13  and  C_14
REMARK    7  A    between atoms: C_14  and  C_15
REMARK    8  A    between atoms: C_15  and  C_16
REMARK    9  A    between atoms: C_15  and  N_17
REMARK   10  A    between atoms: C_18  and  C_20
REMARK                            x       y       z     vdW  Elec       q    Type
REMARK                         _______ _______ _______ _____ _____    ______ ____
ROOT
ATOM      1  C   UNL     1       1.412   8.849  19.348  0.00  0.00    +0.000 A 
ATOM      2  C   UNL     1       1.871   7.747  20.073  0.00  0.00    +0.000 A 
ATOM      3  C   UNL     1       2.817   6.885  19.509  0.00  0.00    +0.000 A 
ATOM      4  C   UNL     1       3.302   7.105  18.211  0.00  0.00    +0.000 A 
ATOM      5  C   UNL     1       2.824   8.208  17.490  0.00  0.00    +0.000 A 
ATOM      6  C   UNL     1       1.886   9.076  18.057  0.00  0.00    +0.000 A 
ENDROOT
BRANCH   1   8
ATOM      7  C   UNL     1      -0.285  10.534  20.442  0.00  0.00    +0.000 C 
ATOM      8  C   UNL     1       0.477   9.758  19.936  0.00  0.00    +0.000 C 
BRANCH   7  12
ATOM      9  C   UNL     1      -2.858  13.308  22.322  0.00  0.00    +0.000 A 
ATOM     10  C   UNL     1      -2.012  12.499  23.085  0.00  0.00    +0.000 A 
ATOM     11  C   UNL     1      -1.165  11.581  22.464  0.00  0.00    +0.000 A 
ATOM     12  C   UNL     1      -1.174  11.456  21.075  0.00  0.00    +0.000 A 
ATOM     13  C   UNL     1      -2.042  12.238  20.310  0.00  0.00    +0.000 A 
ATOM     14  C   UNL     1      -2.892  13.156  20.935  0.00  0.00    +0.000 A 
BRANCH   9  15
ATOM     15  O   UNL     1      -3.610  14.196  23.039  0.00  0.00    +0.000 OA
BRANCH  15  17
ATOM     16  C   UNL     1      -5.591  13.087  23.757  0.00  0.00    +0.000 C 
ATOM     17  C   UNL     1      -4.262  13.672  24.197  0.00  0.00    +0.000 C 
ENDBRANCH  15  17
ENDBRANCH   9  15
ENDBRANCH   7  12
ENDBRANCH   1   8
BRANCH   4  18
ATOM     18  C   UNL     1       4.351   6.193  17.611  0.00  0.00    +0.000 C 
BRANCH  18  19
ATOM     19  C   UNL     1       3.811   4.840  17.096  0.00  0.00    +0.000 C 
ATOM     20  C   UNL     1       4.908   3.987  16.462  0.00  0.00    +0.000 C 
BRANCH  19  21
ATOM     21  N   UNL     1       3.177   4.082  18.179  0.00  0.00    +0.000 N 
ATOM     22  C   UNL     1       1.835   3.751  18.156  0.00  0.00    +0.000 C 
ATOM     23  O   UNL     1       1.111   4.065  17.209  0.00  0.00    +0.000 OA
ATOM     24  H   UNL     1       3.713   3.896  19.016  0.00  0.00    +0.000 HD
BRANCH  22  25
ATOM     25  C   UNL     1       1.350   2.960  19.409  0.00  0.00    +0.000 C 
ATOM     26  C   UNL     1       2.450   2.370  20.334  0.00  0.00    +0.000 C 
ATOM     27  C   UNL     1       1.540   2.707  21.530  0.00  0.00    +0.000 C 
ATOM     28  C   UNL     1       0.892   3.787  20.644  0.00  0.00    +0.000 C 
ENDBRANCH  22  25
ENDBRANCH  19  21
ENDBRANCH  18  19
ENDBRANCH   4  18
TORSDOF 8
ENDMDL
