MODEL 1
REMARK VINA RESULT:      -7.1      0.000      0.000
REMARK  Name = 
REMARK  7 active torsions:
REMARK  status: ('A' for Active; 'I' for Inactive)
REMARK    1  A    between atoms: C_1  and  C_2
REMARK    2  A    between atoms: C_6  and  N_7
REMARK    3  A    between atoms: N_7  and  C_8
REMARK    4  A    between atoms: C_8  and  C_9
REMARK    5  A    between atoms: N_11  and  N_12
REMARK    6  A    between atoms: C_13  and  C_14
REMARK    7  A    between atoms: N_18  and  C_19
REMARK                            x       y       z     vdW  Elec       q    Type
REMARK                         _______ _______ _______ _____ _____    ______ ____
ROOT
ATOM      1  C   UNL     1       4.037   4.668  17.150  0.00  0.00    +0.000 C 
ATOM      2  O   UNL     1       4.991   3.977  16.792  0.00  0.00    +0.000 OA
ATOM      3  N   UNL     1       2.736   4.220  17.312  0.00  0.00    +0.000 N 
ATOM      4  H   UNL     1       2.028   4.833  17.709  0.00  0.00    +0.000 HD
ENDROOT
BRANCH   3   5
ATOM      5  N   UNL     1       2.389   2.935  17.022  0.00  0.00    +0.000 NA
ATOM      6  C   UNL     1       2.177   2.122  18.014  0.00  0.00    +0.000 C 
BRANCH   6   7
ATOM      7  C   UNL     1       2.064   2.473  19.417  0.00  0.00    +0.000 A 
ATOM      8  C   UNL     1       0.930   2.830  20.134  0.00  0.00    +0.000 A 
ATOM      9  C   UNL     1       1.288   3.021  21.482  0.00  0.00    +0.000 A 
ATOM     10  C   UNL     1       2.633   2.753  21.581  0.00  0.00    +0.000 A 
ATOM     11  N   UNL     1       3.101   2.443  20.331  0.00  0.00    +0.000 N 
ATOM     12  C   UNL     1       4.492   2.191  20.026  0.00  0.00    +0.000 C 
ENDBRANCH   6   7
ENDBRANCH   3   5
BRANCH   1  13
ATOM     13  C   UNL     1       4.197   6.156  17.479  0.00  0.00    +0.000 C 
BRANCH  13  14
ATOM     14  N   UNL     1       3.588   6.437  18.777  0.00  0.00    +0.000 N 
ATOM     15  H   UNL     1       4.276   6.464  19.531  0.00  0.00    +0.000 HD
BRANCH  14  21
ATOM     16  C   UNL     1       0.317   9.033  21.507  0.00  0.00    +0.000 C 
ATOM     17  C   UNL     1       1.055   8.794  20.221  0.00  0.00    +0.000 A 
ATOM     18  C   UNL     1       0.901   9.664  19.138  0.00  0.00    +0.000 A 
ATOM     19  C   UNL     1       1.594   9.430  17.955  0.00  0.00    +0.000 A 
ATOM     20  C   UNL     1       2.446   8.328  17.851  0.00  0.00    +0.000 A 
ATOM     21  C   UNL     1       2.619   7.432  18.916  0.00  0.00    +0.000 A 
ATOM     22  C   UNL     1       1.920   7.691  20.102  0.00  0.00    +0.000 A 
ENDBRANCH  14  21
ENDBRANCH  13  14
ENDBRANCH   1  13
TORSDOF 5
ENDMDL
MODEL 2
REMARK VINA RESULT:      -7.0      1.168      2.229
REMARK  Name = 
REMARK  7 active torsions:
REMARK  status: ('A' for Active; 'I' for Inactive)
REMARK    1  A    between atoms: C_1  and  C_2
REMARK    2  A    between atoms: C_6  and  N_7
REMARK    3  A    between atoms: N_7  and  C_8
REMARK    4  A    between atoms: C_8  and  C_9
REMARK    5  A    between atoms: N_11  and  N_12
REMARK    6  A    between atoms: C_13  and  C_14
REMARK    7  A    between atoms: N_18  and  C_19
REMARK                            x       y       z     vdW  Elec       q    Type
REMARK                         _______ _______ _______ _____ _____    ______ ____
ROOT
ATOM      1  C   UNL     1       5.112   5.284  17.706  0.00  0.00    +0.000 C 
ATOM      2  O   UNL     1       5.700   4.696  16.797  0.00  0.00    +0.000 OA
ATOM      3  N   UNL     1       4.943   4.807  18.995  0.00  0.00    +0.000 N 
ATOM      4  H   UNL     1       4.533   5.401  19.712  0.00  0.00    +0.000 HD
ENDROOT
BRANCH   3   5
ATOM      5  N   UNL     1       5.389   3.571  19.356  0.00  0.00    +0.000 NA
ATOM      6  C   UNL     1       4.544   2.756  19.914  0.00  0.00    +0.000 C 
BRANCH   6   7
ATOM      7  C   UNL     1       3.107   2.930  20.017  0.00  0.00    +0.000 A 
ATOM      8  C   UNL     1       2.363   3.376  21.101  0.00  0.00    +0.000 A 
ATOM      9  C   UNL     1       1.009   3.447  20.721  0.00  0.00    +0.000 A 
ATOM     10  C   UNL     1       0.943   3.069  19.400  0.00  0.00    +0.000 A 
ATOM     11  N   UNL     1       2.206   2.739  18.985  0.00  0.00    +0.000 N 
ATOM     12  C   UNL     1       2.517   2.206  17.678  0.00  0.00    +0.000 C 
ENDBRANCH   6   7
ENDBRANCH   3   5
BRANCH   1  13
ATOM     13  C   UNL     1       4.489   6.668  17.500  0.00  0.00    +0.000 C 
BRANCH  13  14
ATOM     14  N   UNL     1       3.052   6.599  17.753  0.00  0.00    +0.000 N 
ATOM     15  H   UNL     1       2.726   5.641  17.883  0.00  0.00    +0.000 HD
BRANCH  14  21
ATOM     16  C   UNL     1       0.659  10.865  18.734  0.00  0.00    +0.000 C 
ATOM     17  C   UNL     1       1.187   9.529  19.168  0.00  0.00    +0.000 A 
ATOM     18  C   UNL     1       0.951   9.054  20.461  0.00  0.00    +0.000 A 
ATOM     19  C   UNL     1       1.446   7.812  20.845  0.00  0.00    +0.000 A 
ATOM     20  C   UNL     1       2.174   7.039  19.939  0.00  0.00    +0.000 A 
ATOM     21  C   UNL     1       2.434   7.487  18.635  0.00  0.00    +0.000 A 
ATOM     22  C   UNL     1       1.919   8.736  18.265  0.00  0.00    +0.000 A 
ENDBRANCH  14  21
ENDBRANCH  13  14
ENDBRANCH   1  13
TORSDOF 5
ENDMDL
MODEL 3
REMARK VINA RESULT:      -6.9      0.594      1.382
REMARK  Name = 
REMARK  7 active torsions:
REMARK  status: ('A' for Active; 'I' for Inactive)
REMARK    1  A    between atoms: C_1  and  C_2
REMARK    2  A    between atoms: C_6  and  N_7
REMARK    3  A    between atoms: N_7  and  C_8
REMARK    4  A    between atoms: C_8  and  C_9
REMARK    5  A    between atoms: N_11  and  N_12
REMARK    6  A    between atoms: C_13  and  C_14
REMARK    7  A    between atoms: N_18  and  C_19
REMARK                            x       y       z     vdW  Elec       q    Type
REMARK                         _______ _______ _______ _____ _____    ______ ____
ROOT
ATOM      1  C   UNL     1       4.198   4.869  17.358  0.00  0.00    +0.000 C 
ATOM      2  O   UNL     1       5.157   4.157  17.059  0.00  0.00    +0.000 OA
ATOM      3  N   UNL     1       2.872   4.465  17.378  0.00  0.00    +0.000 N 
ATOM      4  H   UNL     1       2.152   5.088  17.736  0.00  0.00    +0.000 HD
ENDROOT
BRANCH   3   5
ATOM      5  N   UNL     1       2.510   3.208  17.000  0.00  0.00    +0.000 NA
ATOM      6  C   UNL     1       2.246   2.342  17.933  0.00  0.00    +0.000 C 
BRANCH   6   7
ATOM      7  C   UNL     1       2.090   2.611  19.350  0.00  0.00    +0.000 A 
ATOM      8  C   UNL     1       0.941   2.966  20.044  0.00  0.00    +0.000 A 
ATOM      9  C   UNL     1       1.252   3.061  21.414  0.00  0.00    +0.000 A 
ATOM     10  C   UNL     1       2.583   2.738  21.547  0.00  0.00    +0.000 A 
ATOM     11  N   UNL     1       3.089   2.487  20.298  0.00  0.00    +0.000 N 
ATOM     12  C   UNL     1       4.481   2.204  20.030  0.00  0.00    +0.000 C 
ENDBRANCH   6   7
ENDBRANCH   3   5
BRANCH   1  13
ATOM     13  C   UNL     1       4.377   6.334  17.768  0.00  0.00    +0.000 C 
BRANCH  13  14
ATOM     14  N   UNL     1       3.173   7.088  17.426  0.00  0.00    +0.000 N 
ATOM     15  H   UNL     1       2.536   6.555  16.833  0.00  0.00    +0.000 HD
BRANCH  14  21
ATOM     16  C   UNL     1       0.332  10.951  18.801  0.00  0.00    +0.000 C 
ATOM     17  C   UNL     1       1.033   9.661  19.117  0.00  0.00    +0.000 A 
ATOM     18  C   UNL     1       0.909   9.071  20.377  0.00  0.00    +0.000 A 
ATOM     19  C   UNL     1       1.563   7.875  20.651  0.00  0.00    +0.000 A 
ATOM     20  C   UNL     1       2.341   7.262  19.666  0.00  0.00    +0.000 A 
ATOM     21  C   UNL     1       2.491   7.830  18.392  0.00  0.00    +0.000 A 
ATOM     22  C   UNL     1       1.816   9.030  18.134  0.00  0.00    +0.000 A 
ENDBRANCH  14  21
ENDBRANCH  13  14
ENDBRANCH   1  13
TORSDOF 5
ENDMDL
MODEL 4
REMARK VINA RESULT:      -6.9      1.205      2.003
REMARK  Name = 
REMARK  7 active torsions:
REMARK  status: ('A' for Active; 'I' for Inactive)
REMARK    1  A    between atoms: C_1  and  C_2
REMARK    2  A    between atoms: C_6  and  N_7
REMARK    3  A    between atoms: N_7  and  C_8
REMARK    4  A    between atoms: C_8  and  C_9
REMARK    5  A    between atoms: N_11  and  N_12
REMARK    6  A    between atoms: C_13  and  C_14
REMARK    7  A    between atoms: N_18  and  C_19
REMARK                            x       y       z     vdW  Elec       q    Type
REMARK                         _______ _______ _______ _____ _____    ______ ____
ROOT
ATOM      1  C   UNL     1       4.117   5.636  18.109  0.00  0.00    +0.000 C 
ATOM      2  O   UNL     1       4.219   5.123  16.994  0.00  0.00    +0.000 OA
ATOM      3  N   UNL     1       4.622   5.109  19.286  0.00  0.00    +0.000 N 
ATOM      4  H   UNL     1       4.582   5.648  20.148  0.00  0.00    +0.000 HD
ENDROOT
BRANCH   3   5
ATOM      5  N   UNL     1       5.251   3.901  19.307  0.00  0.00    +0.000 NA
ATOM      6  C   UNL     1       4.593   2.877  19.764  0.00  0.00    +0.000 C 
BRANCH   6   7
ATOM      7  C   UNL     1       3.175   2.823  20.072  0.00  0.00    +0.000 A 
ATOM      8  C   UNL     1       2.543   3.036  21.289  0.00  0.00    +0.000 A 
ATOM      9  C   UNL     1       1.151   2.942  21.097  0.00  0.00    +0.000 A 
ATOM     10  C   UNL     1       0.946   2.699  19.759  0.00  0.00    +0.000 A 
ATOM     11  N   UNL     1       2.169   2.607  19.148  0.00  0.00    +0.000 N 
ATOM     12  C   UNL     1       2.355   2.267  17.755  0.00  0.00    +0.000 C 
ENDBRANCH   6   7
ENDBRANCH   3   5
BRANCH   1  13
ATOM     13  C   UNL     1       3.400   6.974  18.318  0.00  0.00    +0.000 C 
BRANCH  13  14
ATOM     14  N   UNL     1       2.691   6.954  19.595  0.00  0.00    +0.000 N 
ATOM     15  H   UNL     1       3.305   6.721  20.377  0.00  0.00    +0.000 HD
BRANCH  14  21
ATOM     16  C   UNL     1      -0.167   9.379  22.886  0.00  0.00    +0.000 C 
ATOM     17  C   UNL     1       0.416   9.237  21.510  0.00  0.00    +0.000 A 
ATOM     18  C   UNL     1       0.174  10.203  20.530  0.00  0.00    +0.000 A 
ATOM     19  C   UNL     1       0.724  10.057  19.260  0.00  0.00    +0.000 A 
ATOM     20  C   UNL     1       1.520   8.948  18.968  0.00  0.00    +0.000 A 
ATOM     21  C   UNL     1       1.779   7.957  19.927  0.00  0.00    +0.000 A 
ATOM     22  C   UNL     1       1.224   8.128  21.201  0.00  0.00    +0.000 A 
ENDBRANCH  14  21
ENDBRANCH  13  14
ENDBRANCH   1  13
TORSDOF 5
ENDMDL
MODEL 5
REMARK VINA RESULT:      -6.8      1.625      2.636
REMARK  Name = 
REMARK  7 active torsions:
REMARK  status: ('A' for Active; 'I' for Inactive)
REMARK    1  A    between atoms: C_1  and  C_2
REMARK    2  A    between atoms: C_6  and  N_7
REMARK    3  A    between atoms: N_7  and  C_8
REMARK    4  A    between atoms: C_8  and  C_9
REMARK    5  A    between atoms: N_11  and  N_12
REMARK    6  A    between atoms: C_13  and  C_14
REMARK    7  A    between atoms: N_18  and  C_19
REMARK                            x       y       z     vdW  Elec       q    Type
REMARK                         _______ _______ _______ _____ _____    ______ ____
ROOT
ATOM      1  C   UNL     1       5.834   4.840  18.792  0.00  0.00    +0.000 C 
ATOM      2  O   UNL     1       6.496   5.220  19.758  0.00  0.00    +0.000 OA
ATOM      3  N   UNL     1       5.217   3.605  18.676  0.00  0.00    +0.000 N 
ATOM      4  H   UNL     1       4.605   3.410  17.888  0.00  0.00    +0.000 HD
ENDROOT
BRANCH   3   5
ATOM      5  N   UNL     1       5.348   2.656  19.644  0.00  0.00    +0.000 NA
ATOM      6  C   UNL     1       4.265   2.192  20.195  0.00  0.00    +0.000 C 
BRANCH   6   7
ATOM      7  C   UNL     1       2.900   2.419  19.754  0.00  0.00    +0.000 A 
ATOM      8  C   UNL     1       2.303   2.050  18.556  0.00  0.00    +0.000 A 
ATOM      9  C   UNL     1       0.945   2.421  18.596  0.00  0.00    +0.000 A 
ATOM     10  C   UNL     1       0.720   2.988  19.828  0.00  0.00    +0.000 A 
ATOM     11  N   UNL     1       1.905   3.004  20.516  0.00  0.00    +0.000 N 
ATOM     12  C   UNL     1       2.080   3.609  21.817  0.00  0.00    +0.000 C 
ENDBRANCH   6   7
ENDBRANCH   3   5
BRANCH   1  13
ATOM     13  C   UNL     1       5.604   5.734  17.569  0.00  0.00    +0.000 C 
BRANCH  13  14
ATOM     14  N   UNL     1       4.170   5.878  17.333  0.00  0.00    +0.000 N 
ATOM     15  H   UNL     1       3.713   4.982  17.160  0.00  0.00    +0.000 HD
BRANCH  14  21
ATOM     16  C   UNL     1       1.474  10.018  18.024  0.00  0.00    +0.000 C 
ATOM     17  C   UNL     1       1.991   8.694  18.508  0.00  0.00    +0.000 A 
ATOM     18  C   UNL     1       1.588   8.179  19.743  0.00  0.00    +0.000 A 
ATOM     19  C   UNL     1       2.075   6.949  20.174  0.00  0.00    +0.000 A 
ATOM     20  C   UNL     1       2.962   6.229  19.372  0.00  0.00    +0.000 A 
ATOM     21  C   UNL     1       3.391   6.719  18.130  0.00  0.00    +0.000 A 
ATOM     22  C   UNL     1       2.882   7.954  17.709  0.00  0.00    +0.000 A 
ENDBRANCH  14  21
ENDBRANCH  13  14
ENDBRANCH   1  13
TORSDOF 5
ENDMDL
MODEL 6
REMARK VINA RESULT:      -6.8      1.264      1.897
REMARK  Name = 
REMARK  7 active torsions:
REMARK  status: ('A' for Active; 'I' for Inactive)
REMARK    1  A    between atoms: C_1  and  C_2
REMARK    2  A    between atoms: C_6  and  N_7
REMARK    3  A    between atoms: N_7  and  C_8
REMARK    4  A    between atoms: C_8  and  C_9
REMARK    5  A    between atoms: N_11  and  N_12
REMARK    6  A    between atoms: C_13  and  C_14
REMARK    7  A    between atoms: N_18  and  C_19
REMARK                            x       y       z     vdW  Elec       q    Type
REMARK                         _______ _______ _______ _____ _____    ______ ____
ROOT
ATOM      1  C   UNL     1       5.660   5.514  18.127  0.00  0.00    +0.000 C 
ATOM      2  O   UNL     1       6.812   5.270  17.766  0.00  0.00    +0.000 OA
ATOM      3  N   UNL     1       4.888   4.711  18.951  0.00  0.00    +0.000 N 
ATOM      4  H   UNL     1       3.984   5.036  19.283  0.00  0.00    +0.000 HD
ENDROOT
BRANCH   3   5
ATOM      5  N   UNL     1       5.349   3.510  19.401  0.00  0.00    +0.000 NA
ATOM      6  C   UNL     1       4.507   2.719  19.998  0.00  0.00    +0.000 C 
BRANCH   6   7
ATOM      7  C   UNL     1       3.066   2.874  20.066  0.00  0.00    +0.000 A 
ATOM      8  C   UNL     1       2.293   3.349  21.117  0.00  0.00    +0.000 A 
ATOM      9  C   UNL     1       0.947   3.384  20.708  0.00  0.00    +0.000 A 
ATOM     10  C   UNL     1       0.913   2.955  19.402  0.00  0.00    +0.000 A 
ATOM     11  N   UNL     1       2.190   2.630  19.025  0.00  0.00    +0.000 N 
ATOM     12  C   UNL     1       2.534   2.054  17.744  0.00  0.00    +0.000 C 
ENDBRANCH   6   7
ENDBRANCH   3   5
BRANCH   1  13
ATOM     13  C   UNL     1       4.932   6.791  17.694  0.00  0.00    +0.000 C 
BRANCH  13  14
ATOM     14  N   UNL     1       3.490   6.557  17.699  0.00  0.00    +0.000 N 
ATOM     15  H   UNL     1       3.254   5.589  17.920  0.00  0.00    +0.000 HD
BRANCH  14  21
ATOM     16  C   UNL     1       1.070   8.317  21.690  0.00  0.00    +0.000 C 
ATOM     17  C   UNL     1       1.464   8.420  20.245  0.00  0.00    +0.000 A 
ATOM     18  C   UNL     1       1.079   9.522  19.477  0.00  0.00    +0.000 A 
ATOM     19  C   UNL     1       1.455   9.602  18.140  0.00  0.00    +0.000 A 
ATOM     20  C   UNL     1       2.219   8.583  17.567  0.00  0.00    +0.000 A 
ATOM     21  C   UNL     1       2.618   7.461  18.308  0.00  0.00    +0.000 A 
ATOM     22  C   UNL     1       2.237   7.404  19.654  0.00  0.00    +0.000 A 
ENDBRANCH  14  21
ENDBRANCH  13  14
ENDBRANCH   1  13
TORSDOF 5
ENDMDL
MODEL 7
REMARK VINA RESULT:      -6.8      1.176      1.877
REMARK  Name = 
REMARK  7 active torsions:
REMARK  status: ('A' for Active; 'I' for Inactive)
REMARK    1  A    between atoms: C_1  and  C_2
REMARK    2  A    between atoms: C_6  and  N_7
REMARK    3  A    between atoms: N_7  and  C_8
REMARK    4  A    between atoms: C_8  and  C_9
REMARK    5  A    between atoms: N_11  and  N_12
REMARK    6  A    between atoms: C_13  and  C_14
REMARK    7  A    between atoms: N_18  and  C_19
REMARK                            x       y       z     vdW  Elec       q    Type
REMARK                         _______ _______ _______ _____ _____    ______ ____
ROOT
ATOM      1  C   UNL     1       4.959   5.020  17.911  0.00  0.00    +0.000 C 
ATOM      2  O   UNL     1       5.429   4.377  16.972  0.00  0.00    +0.000 OA
ATOM      3  N   UNL     1       4.873   4.583  19.223  0.00  0.00    +0.000 N 
ATOM      4  H   UNL     1       4.564   5.217  19.956  0.00  0.00    +0.000 HD
ENDROOT
BRANCH   3   5
ATOM      5  N   UNL     1       5.273   3.330  19.578  0.00  0.00    +0.000 NA
ATOM      6  C   UNL     1       4.354   2.438  19.803  0.00  0.00    +0.000 C 
BRANCH   6   7
ATOM      7  C   UNL     1       2.936   2.560  19.522  0.00  0.00    +0.000 A 
ATOM      8  C   UNL     1       2.247   2.210  18.368  0.00  0.00    +0.000 A 
ATOM      9  C   UNL     1       0.874   2.447  18.572  0.00  0.00    +0.000 A 
ATOM     10  C   UNL     1       0.735   2.914  19.858  0.00  0.00    +0.000 A 
ATOM     11  N   UNL     1       1.981   3.000  20.420  0.00  0.00    +0.000 N 
ATOM     12  C   UNL     1       2.241   3.539  21.736  0.00  0.00    +0.000 C 
ENDBRANCH   6   7
ENDBRANCH   3   5
BRANCH   1  13
ATOM     13  C   UNL     1       4.406   6.436  17.722  0.00  0.00    +0.000 C 
BRANCH  13  14
ATOM     14  N   UNL     1       2.948   6.409  17.817  0.00  0.00    +0.000 N 
ATOM     15  H   UNL     1       2.594   5.490  18.084  0.00  0.00    +0.000 HD
BRANCH  14  21
ATOM     16  C   UNL     1       1.202   8.688  21.896  0.00  0.00    +0.000 C 
ATOM     17  C   UNL     1       1.433   8.650  20.413  0.00  0.00    +0.000 A 
ATOM     18  C   UNL     1       1.075   9.733  19.607  0.00  0.00    +0.000 A 
ATOM     19  C   UNL     1       1.299   9.682  18.235  0.00  0.00    +0.000 A 
ATOM     20  C   UNL     1       1.883   8.549  17.665  0.00  0.00    +0.000 A 
ATOM     21  C   UNL     1       2.249   7.442  18.444  0.00  0.00    +0.000 A 
ATOM     22  C   UNL     1       2.025   7.518  19.824  0.00  0.00    +0.000 A 
ENDBRANCH  14  21
ENDBRANCH  13  14
ENDBRANCH   1  13
TORSDOF 5
ENDMDL
MODEL 8
REMARK VINA RESULT:      -6.7      3.269      5.921
REMARK  Name = 
REMARK  7 active torsions:
REMARK  status: ('A' for Active; 'I' for Inactive)
REMARK    1  A    between atoms: C_1  and  C_2
REMARK    2  A    between atoms: C_6  and  N_7
REMARK    3  A    between atoms: N_7  and  C_8
REMARK    4  A    between atoms: C_8  and  C_9
REMARK    5  A    between atoms: N_11  and  N_12
REMARK    6  A    between atoms: C_13  and  C_14
REMARK    7  A    between atoms: N_18  and  C_19
REMARK                            x       y       z     vdW  Elec       q    Type
REMARK                         _______ _______ _______ _____ _____    ______ ____
ROOT
ATOM      1  C   UNL     1       6.275   4.715  17.943  0.00  0.00    +0.000 C 
ATOM      2  O   UNL     1       7.440   4.325  18.034  0.00  0.00    +0.000 OA
ATOM      3  N   UNL     1       5.200   4.209  18.656  0.00  0.00    +0.000 N 
ATOM      4  H   UNL     1       4.289   4.656  18.596  0.00  0.00    +0.000 HD
ENDROOT
BRANCH   3   5
ATOM      5  N   UNL     1       5.350   3.158  19.510  0.00  0.00    +0.000 NA
ATOM      6  C   UNL     1       4.317   2.784  20.205  0.00  0.00    +0.000 C 
BRANCH   6   7
ATOM      7  C   UNL     1       2.945   3.227  20.030  0.00  0.00    +0.000 A 
ATOM      8  C   UNL     1       2.190   4.056  20.848  0.00  0.00    +0.000 A 
ATOM      9  C   UNL     1       0.934   4.262  20.247  0.00  0.00    +0.000 A 
ATOM     10  C   UNL     1       0.944   3.578  19.053  0.00  0.00    +0.000 A 
ATOM     11  N   UNL     1       2.150   2.939  18.936  0.00  0.00    +0.000 N 
ATOM     12  C   UNL     1       2.492   2.045  17.852  0.00  0.00    +0.000 C 
ENDBRANCH   6   7
ENDBRANCH   3   5
BRANCH   1  13
ATOM     13  C   UNL     1       5.877   5.855  17.001  0.00  0.00    +0.000 C 
BRANCH  13  14
ATOM     14  N   UNL     1       5.151   5.312  15.856  0.00  0.00    +0.000 N 
ATOM     15  H   UNL     1       4.353   5.891  15.592  0.00  0.00    +0.000 HD
BRANCH  14  21
ATOM     16  C   UNL     1       5.373   2.544  11.712  0.00  0.00    +0.000 C 
ATOM     17  C   UNL     1       5.979   3.542  12.655  0.00  0.00    +0.000 A 
ATOM     18  C   UNL     1       7.213   4.133  12.373  0.00  0.00    +0.000 A 
ATOM     19  C   UNL     1       7.758   5.058  13.257  0.00  0.00    +0.000 A 
ATOM     20  C   UNL     1       7.071   5.398  14.425  0.00  0.00    +0.000 A 
ATOM     21  C   UNL     1       5.833   4.820  14.741  0.00  0.00    +0.000 A 
ATOM     22  C   UNL     1       5.297   3.898  13.833  0.00  0.00    +0.000 A 
ENDBRANCH  14  21
ENDBRANCH  13  14
ENDBRANCH   1  13
TORSDOF 5
ENDMDL
MODEL 9
REMARK VINA RESULT:      -6.7      6.076      7.328
REMARK  Name = 
REMARK  7 active torsions:
REMARK  status: ('A' for Active; 'I' for Inactive)
REMARK    1  A    between atoms: C_1  and  C_2
REMARK    2  A    between atoms: C_6  and  N_7
REMARK    3  A    between atoms: N_7  and  C_8
REMARK    4  A    between atoms: C_8  and  C_9
REMARK    5  A    between atoms: N_11  and  N_12
REMARK    6  A    between atoms: C_13  and  C_14
REMARK    7  A    between atoms: N_18  and  C_19
REMARK                            x       y       z     vdW  Elec       q    Type
REMARK                         _______ _______ _______ _____ _____    ______ ____
ROOT
ATOM      1  C   UNL     1       8.033   7.737  17.959  0.00  0.00    +0.000 C 
ATOM      2  O   UNL     1       8.425   6.990  18.856  0.00  0.00    +0.000 OA
ATOM      3  N   UNL     1       7.469   7.329  16.762  0.00  0.00    +0.000 N 
ATOM      4  H   UNL     1       7.078   8.013  16.119  0.00  0.00    +0.000 HD
ENDROOT
BRANCH   3   5
ATOM      5  N   UNL     1       7.349   6.008  16.451  0.00  0.00    +0.000 NA
ATOM      6  C   UNL     1       6.286   5.379  16.857  0.00  0.00    +0.000 C 
BRANCH   6   7
ATOM      7  C   UNL     1       5.095   5.971  17.437  0.00  0.00    +0.000 A 
ATOM      8  C   UNL     1       4.387   7.087  17.014  0.00  0.00    +0.000 A 
ATOM      9  C   UNL     1       3.261   7.250  17.843  0.00  0.00    +0.000 A 
ATOM     10  C   UNL     1       3.278   6.215  18.749  0.00  0.00    +0.000 A 
ATOM     11  N   UNL     1       4.395   5.457  18.514  0.00  0.00    +0.000 N 
ATOM     12  C   UNL     1       4.798   4.333  19.328  0.00  0.00    +0.000 C 
ENDBRANCH   6   7
ENDBRANCH   3   5
BRANCH   1  13
ATOM     13  C   UNL     1       8.121   9.262  18.083  0.00  0.00    +0.000 C 
BRANCH  13  14
ATOM     14  N   UNL     1       8.978   9.612  19.212  0.00  0.00    +0.000 N 
ATOM     15  H   UNL     1       9.456   8.799  19.604  0.00  0.00    +0.000 HD
BRANCH  14  21
ATOM     16  C   UNL     1      11.286  13.266  16.721  0.00  0.00    +0.000 C 
ATOM     17  C   UNL     1      10.902  12.597  18.009  0.00  0.00    +0.000 A 
ATOM     18  C   UNL     1      11.247  13.164  19.239  0.00  0.00    +0.000 A 
ATOM     19  C   UNL     1      10.881  12.532  20.423  0.00  0.00    +0.000 A 
ATOM     20  C   UNL     1      10.165  11.334  20.382  0.00  0.00    +0.000 A 
ATOM     21  C   UNL     1       9.807  10.735  19.165  0.00  0.00    +0.000 A 
ATOM     22  C   UNL     1      10.177  11.392  17.985  0.00  0.00    +0.000 A 
ENDBRANCH  14  21
ENDBRANCH  13  14
ENDBRANCH   1  13
TORSDOF 5
ENDMDL
