MODEL 1
REMARK VINA RESULT:      -9.3      0.000      0.000
REMARK  Name = 
REMARK  4 active torsions:
REMARK  status: ('A' for Active; 'I' for Inactive)
REMARK    1  A    between atoms: C_1  and  C_2
REMARK    2  A    between atoms: C_2  and  C_3
REMARK    3  A    between atoms: C_7  and  C_9
REMARK    4  A    between atoms: C_15  and  N_16
REMARK                            x       y       z     vdW  Elec       q    Type
REMARK                         _______ _______ _______ _____ _____    ______ ____
ROOT
ATOM      1  C   UNL     1       3.440   5.046  18.451  0.00  0.00    +0.000 A 
ATOM      2  N   UNL     1       2.767   5.982  19.181  0.00  0.00    +0.000 NA
ATOM      3  C   UNL     1       2.761   7.283  18.809  0.00  0.00    +0.000 A 
ATOM      4  N   UNL     1       2.001   8.215  19.537  0.00  0.00    +0.000 N 
ATOM      5  C   UNL     1       1.210   7.894  20.631  0.00  0.00    +0.000 C 
ATOM      6  O   UNL     1       1.081   6.785  21.133  0.00  0.00    +0.000 OA
ATOM      7  C   UNL     1       3.459   7.711  17.691  0.00  0.00    +0.000 A 
ATOM      8  C   UNL     1       4.127   6.761  16.915  0.00  0.00    +0.000 A 
ATOM      9  C   UNL     1       4.082   5.417  17.281  0.00  0.00    +0.000 A 
ATOM     10  F   UNL     1       4.664   4.523  16.477  0.00  0.00    +0.000 F 
ATOM     11  H   UNL     1       1.996   9.185  19.247  0.00  0.00    +0.000 HD
ENDROOT
BRANCH   1  13
ATOM     12  C   UNL     1       4.800   2.970  18.835  0.00  0.00    +0.000 C 
ATOM     13  C   UNL     1       3.376   3.579  18.956  0.00  0.00    +0.000 C 
ATOM     14  N   UNL     1       3.076   3.550  20.400  0.00  0.00    +0.000 NA
ATOM     15  C   UNL     1       2.006   3.046  20.865  0.00  0.00    +0.000 C 
ATOM     16  N   UNL     1       1.759   2.976  22.181  0.00  0.00    +0.000 N 
ATOM     17  O   UNL     1       0.997   2.527  20.155  0.00  0.00    +0.000 OA
ATOM     18  C   UNL     1       1.057   2.486  18.721  0.00  0.00    +0.000 C 
ATOM     19  C   UNL     1       2.439   2.662  18.124  0.00  0.00    +0.000 C 
ATOM     20  F   UNL     1       2.969   1.401  18.032  0.00  0.00    +0.000 F 
ATOM     21  F   UNL     1       2.332   3.083  16.833  0.00  0.00    +0.000 F 
ATOM     22  H   UNL     1       2.315   3.610  22.739  0.00  0.00    +0.000 HD
ATOM     23  H   UNL     1       0.780   2.913  22.433  0.00  0.00    +0.000 HD
ENDBRANCH   1  13
BRANCH   5  24
ATOM     24  C   UNL     1       0.473   9.066  21.245  0.00  0.00    +0.000 A 
ATOM     25  N   UNL     1       0.385   9.063  22.612  0.00  0.00    +0.000 NA
ATOM     26  C   UNL     1      -0.344  10.068  23.162  0.00  0.00    +0.000 A 
ATOM     27  C   UNL     1      -0.990  11.058  22.431  0.00  0.00    +0.000 A 
ATOM     28 CL   UNL     1      -1.928  12.267  23.210  0.00  0.00    +0.000 Cl
ATOM     29  C   UNL     1      -0.870  11.048  21.048  0.00  0.00    +0.000 A 
ATOM     30  C   UNL     1      -0.158  10.026  20.414  0.00  0.00    +0.000 A 
BRANCH  30  31
ATOM     31  N   UNL     1       0.061  10.135  19.029  0.00  0.00    +0.000 N 
ATOM     32  H   UNL     1      -0.767  10.226  18.451  0.00  0.00    +0.000 HD
ATOM     33  H   UNL     1       0.716   9.419  18.681  0.00  0.00    +0.000 HD
ENDBRANCH  30  31
ENDBRANCH   5  24
TORSDOF 3
ENDMDL
MODEL 2
REMARK VINA RESULT:      -9.0      2.244      3.466
REMARK  Name = 
REMARK  4 active torsions:
REMARK  status: ('A' for Active; 'I' for Inactive)
REMARK    1  A    between atoms: C_1  and  C_2
REMARK    2  A    between atoms: C_2  and  C_3
REMARK    3  A    between atoms: C_7  and  C_9
REMARK    4  A    between atoms: C_15  and  N_16
REMARK                            x       y       z     vdW  Elec       q    Type
REMARK                         _______ _______ _______ _____ _____    ______ ____
ROOT
ATOM      1  C   UNL     1       3.762   5.267  18.974  0.00  0.00    +0.000 A 
ATOM      2  N   UNL     1       2.959   6.268  19.437  0.00  0.00    +0.000 NA
ATOM      3  C   UNL     1       2.084   6.048  20.446  0.00  0.00    +0.000 A 
ATOM      4  N   UNL     1       1.320   7.115  20.953  0.00  0.00    +0.000 N 
ATOM      5  C   UNL     1       1.408   8.423  20.502  0.00  0.00    +0.000 C 
ATOM      6  O   UNL     1       2.125   8.833  19.597  0.00  0.00    +0.000 OA
ATOM      7  C   UNL     1       1.958   4.796  21.025  0.00  0.00    +0.000 A 
ATOM      8  C   UNL     1       2.796   3.768  20.585  0.00  0.00    +0.000 A 
ATOM      9  C   UNL     1       3.727   4.021  19.579  0.00  0.00    +0.000 A 
ATOM     10  F   UNL     1       4.566   3.041  19.234  0.00  0.00    +0.000 F 
ATOM     11  H   UNL     1       0.674   6.943  21.714  0.00  0.00    +0.000 HD
ENDROOT
BRANCH   1  13
ATOM     12  C   UNL     1       4.458   7.091  17.395  0.00  0.00    +0.000 C 
ATOM     13  C   UNL     1       4.737   5.623  17.820  0.00  0.00    +0.000 C 
ATOM     14  N   UNL     1       6.128   5.632  18.314  0.00  0.00    +0.000 NA
ATOM     15  C   UNL     1       7.006   4.812  17.899  0.00  0.00    +0.000 C 
ATOM     16  N   UNL     1       8.279   4.854  18.313  0.00  0.00    +0.000 N 
ATOM     17  O   UNL     1       6.813   3.817  17.024  0.00  0.00    +0.000 OA
ATOM     18  C   UNL     1       5.520   3.595  16.441  0.00  0.00    +0.000 C 
ATOM     19  C   UNL     1       4.554   4.758  16.544  0.00  0.00    +0.000 C 
ATOM     20  F   UNL     1       4.763   5.518  15.422  0.00  0.00    +0.000 F 
ATOM     21  F   UNL     1       3.276   4.306  16.416  0.00  0.00    +0.000 F 
ATOM     22  H   UNL     1       8.416   5.361  19.177  0.00  0.00    +0.000 HD
ATOM     23  H   UNL     1       8.790   3.983  18.230  0.00  0.00    +0.000 HD
ENDBRANCH   1  13
BRANCH   5  24
ATOM     24  C   UNL     1       0.493   9.400  21.210  0.00  0.00    +0.000 A 
ATOM     25  N   UNL     1       0.324   9.190  22.553  0.00  0.00    +0.000 NA
ATOM     26  C   UNL     1      -0.558  10.014  23.176  0.00  0.00    +0.000 A 
ATOM     27  C   UNL     1      -1.277  11.017  22.538  0.00  0.00    +0.000 A 
ATOM     28 CL   UNL     1      -2.406  11.984  23.399  0.00  0.00    +0.000 Cl
ATOM     29  C   UNL     1      -1.074  11.221  21.180  0.00  0.00    +0.000 A 
ATOM     30  C   UNL     1      -0.201  10.390  20.471  0.00  0.00    +0.000 A 
BRANCH  30  31
ATOM     31  N   UNL     1       0.085  10.723  19.135  0.00  0.00    +0.000 N 
ATOM     32  H   UNL     1      -0.538  11.394  18.697  0.00  0.00    +0.000 HD
ATOM     33  H   UNL     1       0.248   9.888  18.552  0.00  0.00    +0.000 HD
ENDBRANCH  30  31
ENDBRANCH   5  24
TORSDOF 3
ENDMDL
MODEL 3
REMARK VINA RESULT:      -9.0      1.286      1.588
REMARK  Name = 
REMARK  4 active torsions:
REMARK  status: ('A' for Active; 'I' for Inactive)
REMARK    1  A    between atoms: C_1  and  C_2
REMARK    2  A    between atoms: C_2  and  C_3
REMARK    3  A    between atoms: C_7  and  C_9
REMARK    4  A    between atoms: C_15  and  N_16
REMARK                            x       y       z     vdW  Elec       q    Type
REMARK                         _______ _______ _______ _____ _____    ______ ____
ROOT
ATOM      1  C   UNL     1       3.231   4.612  18.385  0.00  0.00    +0.000 A 
ATOM      2  N   UNL     1       2.636   5.610  19.101  0.00  0.00    +0.000 NA
ATOM      3  C   UNL     1       2.846   6.910  18.790  0.00  0.00    +0.000 A 
ATOM      4  N   UNL     1       2.165   7.917  19.497  0.00  0.00    +0.000 N 
ATOM      5  C   UNL     1       1.247   7.677  20.509  0.00  0.00    +0.000 C 
ATOM      6  O   UNL     1       0.921   6.581  20.949  0.00  0.00    +0.000 OA
ATOM      7  C   UNL     1       3.689   7.271  17.752  0.00  0.00    +0.000 A 
ATOM      8  C   UNL     1       4.280   6.261  16.988  0.00  0.00    +0.000 A 
ATOM      9  C   UNL     1       4.015   4.926  17.287  0.00  0.00    +0.000 A 
ATOM     10  F   UNL     1       4.532   3.986  16.492  0.00  0.00    +0.000 F 
ATOM     11  H   UNL     1       2.321   8.887  19.252  0.00  0.00    +0.000 HD
ENDROOT
BRANCH   1  13
ATOM     12  C   UNL     1       2.572   2.343  17.536  0.00  0.00    +0.000 C 
ATOM     13  C   UNL     1       2.918   3.154  18.815  0.00  0.00    +0.000 C 
ATOM     14  N   UNL     1       4.132   2.510  19.351  0.00  0.00    +0.000 NA
ATOM     15  C   UNL     1       4.227   2.131  20.561  0.00  0.00    +0.000 C 
ATOM     16  N   UNL     1       5.313   1.502  21.033  0.00  0.00    +0.000 N 
ATOM     17  O   UNL     1       3.305   2.291  21.519  0.00  0.00    +0.000 OA
ATOM     18  C   UNL     1       2.053   2.931  21.229  0.00  0.00    +0.000 C 
ATOM     19  C   UNL     1       1.693   3.019  19.760  0.00  0.00    +0.000 C 
ATOM     20  F   UNL     1       1.000   1.871  19.476  0.00  0.00    +0.000 F 
ATOM     21  F   UNL     1       0.791   4.020  19.567  0.00  0.00    +0.000 F 
ATOM     22  H   UNL     1       6.140   1.625  20.466  0.00  0.00    +0.000 HD
ATOM     23  H   UNL     1       5.452   1.573  22.034  0.00  0.00    +0.000 HD
ENDBRANCH   1  13
BRANCH   5  24
ATOM     24  C   UNL     1       0.633   8.921  21.116  0.00  0.00    +0.000 A 
ATOM     25  N   UNL     1       0.597   8.959  22.485  0.00  0.00    +0.000 NA
ATOM     26  C   UNL     1      -0.026  10.036  23.032  0.00  0.00    +0.000 A 
ATOM     27  C   UNL     1      -0.614  11.057  22.296  0.00  0.00    +0.000 A 
ATOM     28 CL   UNL     1      -1.420  12.360  23.073  0.00  0.00    +0.000 Cl
ATOM     29  C   UNL     1      -0.549  11.003  20.911  0.00  0.00    +0.000 A 
ATOM     30  C   UNL     1       0.053   9.909  20.281  0.00  0.00    +0.000 A 
BRANCH  30  31
ATOM     31  N   UNL     1       0.228   9.965  18.887  0.00  0.00    +0.000 N 
ATOM     32  H   UNL     1       1.173  10.134  18.561  0.00  0.00    +0.000 HD
ATOM     33  H   UNL     1      -0.468  10.574  18.432  0.00  0.00    +0.000 HD
ENDBRANCH  30  31
ENDBRANCH   5  24
TORSDOF 3
ENDMDL
MODEL 4
REMARK VINA RESULT:      -9.0      1.596      2.250
REMARK  Name = 
REMARK  4 active torsions:
REMARK  status: ('A' for Active; 'I' for Inactive)
REMARK    1  A    between atoms: C_1  and  C_2
REMARK    2  A    between atoms: C_2  and  C_3
REMARK    3  A    between atoms: C_7  and  C_9
REMARK    4  A    between atoms: C_15  and  N_16
REMARK                            x       y       z     vdW  Elec       q    Type
REMARK                         _______ _______ _______ _____ _____    ______ ____
ROOT
ATOM      1  C   UNL     1       2.855   5.121  18.549  0.00  0.00    +0.000 A 
ATOM      2  N   UNL     1       2.318   6.190  19.205  0.00  0.00    +0.000 NA
ATOM      3  C   UNL     1       2.604   7.457  18.824  0.00  0.00    +0.000 A 
ATOM      4  N   UNL     1       1.981   8.539  19.472  0.00  0.00    +0.000 N 
ATOM      5  C   UNL     1       1.048   8.409  20.489  0.00  0.00    +0.000 C 
ATOM      6  O   UNL     1       0.656   7.359  20.986  0.00  0.00    +0.000 OA
ATOM      7  C   UNL     1       3.471   7.710  17.774  0.00  0.00    +0.000 A 
ATOM      8  C   UNL     1       4.004   6.627  17.070  0.00  0.00    +0.000 A 
ATOM      9  C   UNL     1       3.660   5.328  17.440  0.00  0.00    +0.000 A 
ATOM     10  F   UNL     1       4.124   4.317  16.701  0.00  0.00    +0.000 F 
ATOM     11  H   UNL     1       2.195   9.483  19.175  0.00  0.00    +0.000 HD
ENDROOT
BRANCH   1  13
ATOM     12  C   UNL     1       1.633   3.015  17.936  0.00  0.00    +0.000 C 
ATOM     13  C   UNL     1       2.456   3.709  19.056  0.00  0.00    +0.000 C 
ATOM     14  N   UNL     1       3.657   2.868  19.216  0.00  0.00    +0.000 NA
ATOM     15  C   UNL     1       4.037   2.428  20.347  0.00  0.00    +0.000 C 
ATOM     16  N   UNL     1       5.100   1.624  20.484  0.00  0.00    +0.000 N 
ATOM     17  O   UNL     1       3.467   2.684  21.532  0.00  0.00    +0.000 OA
ATOM     18  C   UNL     1       2.301   3.517  21.618  0.00  0.00    +0.000 C 
ATOM     19  C   UNL     1       1.551   3.720  20.317  0.00  0.00    +0.000 C 
ATOM     20  F   UNL     1       0.634   2.703  20.251  0.00  0.00    +0.000 F 
ATOM     21  F   UNL     1       0.799   4.853  20.393  0.00  0.00    +0.000 F 
ATOM     22  H   UNL     1       5.738   1.645  19.700  0.00  0.00    +0.000 HD
ATOM     23  H   UNL     1       5.531   1.630  21.401  0.00  0.00    +0.000 HD
ENDBRANCH   1  13
BRANCH   5  24
ATOM     24  C   UNL     1       0.505   9.718  21.023  0.00  0.00    +0.000 A 
ATOM     25  N   UNL     1       0.831  10.835  20.299  0.00  0.00    +0.000 NA
ATOM     26  C   UNL     1       0.415  12.019  20.818  0.00  0.00    +0.000 A 
ATOM     27  C   UNL     1      -0.290  12.148  22.008  0.00  0.00    +0.000 A 
ATOM     28 CL   UNL     1      -0.738  13.693  22.611  0.00  0.00    +0.000 Cl
ATOM     29  C   UNL     1      -0.623  10.999  22.712  0.00  0.00    +0.000 A 
ATOM     30  C   UNL     1      -0.202   9.749  22.250  0.00  0.00    +0.000 A 
BRANCH  30  31
ATOM     31  N   UNL     1      -0.684   8.605  22.912  0.00  0.00    +0.000 N 
ATOM     32  H   UNL     1      -1.644   8.648  23.237  0.00  0.00    +0.000 HD
ATOM     33  H   UNL     1      -0.030   8.270  23.635  0.00  0.00    +0.000 HD
ENDBRANCH  30  31
ENDBRANCH   5  24
TORSDOF 3
ENDMDL
MODEL 5
REMARK VINA RESULT:      -8.8      1.657      2.408
REMARK  Name = 
REMARK  4 active torsions:
REMARK  status: ('A' for Active; 'I' for Inactive)
REMARK    1  A    between atoms: C_1  and  C_2
REMARK    2  A    between atoms: C_2  and  C_3
REMARK    3  A    between atoms: C_7  and  C_9
REMARK    4  A    between atoms: C_15  and  N_16
REMARK                            x       y       z     vdW  Elec       q    Type
REMARK                         _______ _______ _______ _____ _____    ______ ____
ROOT
ATOM      1  C   UNL     1       2.749   5.593  19.066  0.00  0.00    +0.000 A 
ATOM      2  N   UNL     1       2.123   6.663  19.636  0.00  0.00    +0.000 NA
ATOM      3  C   UNL     1       2.167   7.885  19.057  0.00  0.00    +0.000 A 
ATOM      4  N   UNL     1       1.453   8.955  19.626  0.00  0.00    +0.000 N 
ATOM      5  C   UNL     1       0.661   8.850  20.760  0.00  0.00    +0.000 C 
ATOM      6  O   UNL     1       0.491   7.843  21.437  0.00  0.00    +0.000 OA
ATOM      7  C   UNL     1       2.871   8.096  17.882  0.00  0.00    +0.000 A 
ATOM      8  C   UNL     1       3.491   7.004  17.269  0.00  0.00    +0.000 A 
ATOM      9  C   UNL     1       3.394   5.741  17.849  0.00  0.00    +0.000 A 
ATOM     10  F   UNL     1       3.931   4.705  17.200  0.00  0.00    +0.000 F 
ATOM     11  H   UNL     1       1.486   9.864  19.182  0.00  0.00    +0.000 HD
ENDROOT
BRANCH   1  13
ATOM     12  C   UNL     1       2.308   4.523  21.294  0.00  0.00    +0.000 C 
ATOM     13  C   UNL     1       2.629   4.232  19.803  0.00  0.00    +0.000 C 
ATOM     14  N   UNL     1       1.459   3.485  19.305  0.00  0.00    +0.000 NA
ATOM     15  C   UNL     1       1.566   2.377  18.691  0.00  0.00    +0.000 C 
ATOM     16  N   UNL     1       0.499   1.676  18.283  0.00  0.00    +0.000 N 
ATOM     17  O   UNL     1       2.707   1.756  18.364  0.00  0.00    +0.000 OA
ATOM     18  C   UNL     1       3.976   2.326  18.717  0.00  0.00    +0.000 C 
ATOM     19  C   UNL     1       3.933   3.389  19.796  0.00  0.00    +0.000 C 
ATOM     20  F   UNL     1       4.072   2.721  20.985  0.00  0.00    +0.000 F 
ATOM     21  F   UNL     1       5.044   4.173  19.713  0.00  0.00    +0.000 F 
ATOM     22  H   UNL     1      -0.352   2.219  18.220  0.00  0.00    +0.000 HD
ATOM     23  H   UNL     1       0.669   1.037  17.515  0.00  0.00    +0.000 HD
ENDBRANCH   1  13
BRANCH   5  24
ATOM     24  C   UNL     1      -0.021  10.136  21.177  0.00  0.00    +0.000 A 
ATOM     25  N   UNL     1      -0.165  11.079  20.193  0.00  0.00    +0.000 NA
ATOM     26  C   UNL     1      -0.703  12.264  20.582  0.00  0.00    +0.000 A 
ATOM     27  C   UNL     1      -1.090  12.559  21.883  0.00  0.00    +0.000 A 
ATOM     28 CL   UNL     1      -1.722  14.103  22.293  0.00  0.00    +0.000 Cl
ATOM     29  C   UNL     1      -0.950  11.580  22.857  0.00  0.00    +0.000 A 
ATOM     30  C   UNL     1      -0.377  10.347  22.533  0.00  0.00    +0.000 A 
BRANCH  30  31
ATOM     31  N   UNL     1      -0.389   9.336  23.511  0.00  0.00    +0.000 N 
ATOM     32  H   UNL     1      -0.529   9.642  24.468  0.00  0.00    +0.000 HD
ATOM     33  H   UNL     1       0.406   8.688  23.410  0.00  0.00    +0.000 HD
ENDBRANCH  30  31
ENDBRANCH   5  24
TORSDOF 3
ENDMDL
MODEL 6
REMARK VINA RESULT:      -8.8      0.675      1.360
REMARK  Name = 
REMARK  4 active torsions:
REMARK  status: ('A' for Active; 'I' for Inactive)
REMARK    1  A    between atoms: C_1  and  C_2
REMARK    2  A    between atoms: C_2  and  C_3
REMARK    3  A    between atoms: C_7  and  C_9
REMARK    4  A    between atoms: C_15  and  N_16
REMARK                            x       y       z     vdW  Elec       q    Type
REMARK                         _______ _______ _______ _____ _____    ______ ____
ROOT
ATOM      1  C   UNL     1       3.639   4.907  18.313  0.00  0.00    +0.000 A 
ATOM      2  N   UNL     1       2.941   5.910  18.919  0.00  0.00    +0.000 NA
ATOM      3  C   UNL     1       2.998   7.179  18.451  0.00  0.00    +0.000 A 
ATOM      4  N   UNL     1       2.213   8.180  19.050  0.00  0.00    +0.000 N 
ATOM      5  C   UNL     1       1.338   7.962  20.104  0.00  0.00    +0.000 C 
ATOM      6  O   UNL     1       1.143   6.897  20.677  0.00  0.00    +0.000 OA
ATOM      7  C   UNL     1       3.785   7.505  17.358  0.00  0.00    +0.000 A 
ATOM      8  C   UNL     1       4.480   6.483  16.706  0.00  0.00    +0.000 A 
ATOM      9  C   UNL     1       4.373   5.173  17.168  0.00  0.00    +0.000 A 
ATOM     10  F   UNL     1       4.986   4.208  16.478  0.00  0.00    +0.000 F 
ATOM     11  H   UNL     1       2.255   9.125  18.688  0.00  0.00    +0.000 HD
ENDROOT
BRANCH   1  13
ATOM     12  C   UNL     1       4.895   2.804  18.865  0.00  0.00    +0.000 C 
ATOM     13  C   UNL     1       3.500   3.485  18.920  0.00  0.00    +0.000 C 
ATOM     14  N   UNL     1       3.182   3.574  20.357  0.00  0.00    +0.000 NA
ATOM     15  C   UNL     1       2.083   3.154  20.841  0.00  0.00    +0.000 C 
ATOM     16  N   UNL     1       1.817   3.192  22.154  0.00  0.00    +0.000 N 
ATOM     17  O   UNL     1       1.059   2.633  20.154  0.00  0.00    +0.000 OA
ATOM     18  C   UNL     1       1.136   2.486  18.727  0.00  0.00    +0.000 C 
ATOM     19  C   UNL     1       2.531   2.554  18.141  0.00  0.00    +0.000 C 
ATOM     20  F   UNL     1       3.003   1.267  18.148  0.00  0.00    +0.000 F 
ATOM     21  F   UNL     1       2.460   2.885  16.822  0.00  0.00    +0.000 F 
ATOM     22  H   UNL     1       2.395   3.837  22.675  0.00  0.00    +0.000 HD
ATOM     23  H   UNL     1       0.832   3.192  22.395  0.00  0.00    +0.000 HD
ENDBRANCH   1  13
BRANCH   5  24
ATOM     24  C   UNL     1       0.591   9.192  20.573  0.00  0.00    +0.000 A 
ATOM     25  N   UNL     1      -0.230   9.779  19.645  0.00  0.00    +0.000 NA
ATOM     26  C   UNL     1      -0.839  10.928  20.035  0.00  0.00    +0.000 A 
ATOM     27  C   UNL     1      -0.669  11.521  21.280  0.00  0.00    +0.000 A 
ATOM     28 CL   UNL     1      -1.447  13.002  21.672  0.00  0.00    +0.000 Cl
ATOM     29  C   UNL     1       0.154  10.898  22.208  0.00  0.00    +0.000 A 
ATOM     30  C   UNL     1       0.835   9.726  21.863  0.00  0.00    +0.000 A 
BRANCH  30  31
ATOM     31  N   UNL     1       1.539   9.051  22.876  0.00  0.00    +0.000 N 
ATOM     32  H   UNL     1       2.099   9.629  23.493  0.00  0.00    +0.000 HD
ATOM     33  H   UNL     1       2.055   8.235  22.513  0.00  0.00    +0.000 HD
ENDBRANCH  30  31
ENDBRANCH   5  24
TORSDOF 3
ENDMDL
MODEL 7
REMARK VINA RESULT:      -8.7      1.744      2.360
REMARK  Name = 
REMARK  4 active torsions:
REMARK  status: ('A' for Active; 'I' for Inactive)
REMARK    1  A    between atoms: C_1  and  C_2
REMARK    2  A    between atoms: C_2  and  C_3
REMARK    3  A    between atoms: C_7  and  C_9
REMARK    4  A    between atoms: C_15  and  N_16
REMARK                            x       y       z     vdW  Elec       q    Type
REMARK                         _______ _______ _______ _____ _____    ______ ____
ROOT
ATOM      1  C   UNL     1       3.576   4.381  18.079  0.00  0.00    +0.000 A 
ATOM      2  N   UNL     1       3.023   5.526  18.575  0.00  0.00    +0.000 NA
ATOM      3  C   UNL     1       3.371   6.737  18.083  0.00  0.00    +0.000 A 
ATOM      4  N   UNL     1       2.734   7.896  18.562  0.00  0.00    +0.000 N 
ATOM      5  C   UNL     1       1.726   7.896  19.516  0.00  0.00    +0.000 C 
ATOM      6  O   UNL     1       1.272   6.915  20.092  0.00  0.00    +0.000 OA
ATOM      7  C   UNL     1       4.317   6.857  17.078  0.00  0.00    +0.000 A 
ATOM      8  C   UNL     1       4.869   5.693  16.536  0.00  0.00    +0.000 A 
ATOM      9  C   UNL     1       4.464   4.450  17.018  0.00  0.00    +0.000 A 
ATOM     10  F   UNL     1       4.951   3.355  16.428  0.00  0.00    +0.000 F 
ATOM     11  H   UNL     1       2.994   8.797  18.181  0.00  0.00    +0.000 HD
ENDROOT
BRANCH   1  13
ATOM     12  C   UNL     1       2.618   2.121  17.551  0.00  0.00    +0.000 C 
ATOM     13  C   UNL     1       3.103   3.041  18.705  0.00  0.00    +0.000 C 
ATOM     14  N   UNL     1       4.247   2.326  19.300  0.00  0.00    +0.000 NA
ATOM     15  C   UNL     1       4.336   2.098  20.548  0.00  0.00    +0.000 C 
ATOM     16  N   UNL     1       5.352   1.405  21.080  0.00  0.00    +0.000 N 
ATOM     17  O   UNL     1       3.473   2.494  21.492  0.00  0.00    +0.000 OA
ATOM     18  C   UNL     1       2.299   3.243  21.141  0.00  0.00    +0.000 C 
ATOM     19  C   UNL     1       1.904   3.184  19.680  0.00  0.00    +0.000 C 
ATOM     20  F   UNL     1       1.067   2.105  19.563  0.00  0.00    +0.000 F 
ATOM     21  F   UNL     1       1.124   4.257  19.371  0.00  0.00    +0.000 F 
ATOM     22  H   UNL     1       6.169   1.350  20.488  0.00  0.00    +0.000 HD
ATOM     23  H   UNL     1       5.533   1.587  22.061  0.00  0.00    +0.000 HD
ENDBRANCH   1  13
BRANCH   5  24
ATOM     24  C   UNL     1       1.184   9.266  19.864  0.00  0.00    +0.000 A 
ATOM     25  N   UNL     1       0.785  10.035  18.801  0.00  0.00    +0.000 NA
ATOM     26  C   UNL     1       0.374  11.294  19.102  0.00  0.00    +0.000 A 
ATOM     27  C   UNL     1       0.348  11.823  20.386  0.00  0.00    +0.000 A 
ATOM     28 CL   UNL     1      -0.147  13.444  20.668  0.00  0.00    +0.000 Cl
ATOM     29  C   UNL     1       0.740  11.018  21.446  0.00  0.00    +0.000 A 
ATOM     30  C   UNL     1       1.202   9.720  21.206  0.00  0.00    +0.000 A 
BRANCH  30  31
ATOM     31  N   UNL     1       1.449   8.892  22.315  0.00  0.00    +0.000 N 
ATOM     32  H   UNL     1       0.750   8.182  22.508  0.00  0.00    +0.000 HD
ATOM     33  H   UNL     1       1.713   9.432  23.153  0.00  0.00    +0.000 HD
ENDBRANCH  30  31
ENDBRANCH   5  24
TORSDOF 3
ENDMDL
MODEL 8
REMARK VINA RESULT:      -8.7      2.443      3.994
REMARK  Name = 
REMARK  4 active torsions:
REMARK  status: ('A' for Active; 'I' for Inactive)
REMARK    1  A    between atoms: C_1  and  C_2
REMARK    2  A    between atoms: C_2  and  C_3
REMARK    3  A    between atoms: C_7  and  C_9
REMARK    4  A    between atoms: C_15  and  N_16
REMARK                            x       y       z     vdW  Elec       q    Type
REMARK                         _______ _______ _______ _____ _____    ______ ____
ROOT
ATOM      1  C   UNL     1       4.107   4.500  18.818  0.00  0.00    +0.000 A 
ATOM      2  N   UNL     1       3.362   5.620  19.047  0.00  0.00    +0.000 NA
ATOM      3  C   UNL     1       2.465   5.665  20.059  0.00  0.00    +0.000 A 
ATOM      4  N   UNL     1       1.762   6.855  20.318  0.00  0.00    +0.000 N 
ATOM      5  C   UNL     1       1.935   8.035  19.609  0.00  0.00    +0.000 C 
ATOM      6  O   UNL     1       2.686   8.206  18.657  0.00  0.00    +0.000 OA
ATOM      7  C   UNL     1       2.256   4.568  20.879  0.00  0.00    +0.000 A 
ATOM      8  C   UNL     1       3.034   3.425  20.679  0.00  0.00    +0.000 A 
ATOM      9  C   UNL     1       3.990   3.410  19.665  0.00  0.00    +0.000 A 
ATOM     10  F   UNL     1       4.771   2.333  19.548  0.00  0.00    +0.000 F 
ATOM     11  H   UNL     1       1.099   6.882  21.083  0.00  0.00    +0.000 HD
ENDROOT
BRANCH   1  13
ATOM     12  C   UNL     1       5.163   3.144  16.987  0.00  0.00    +0.000 C 
ATOM     13  C   UNL     1       5.116   4.553  17.638  0.00  0.00    +0.000 C 
ATOM     14  N   UNL     1       4.609   5.441  16.575  0.00  0.00    +0.000 NA
ATOM     15  C   UNL     1       5.200   6.518  16.244  0.00  0.00    +0.000 C 
ATOM     16  N   UNL     1       4.764   7.297  15.245  0.00  0.00    +0.000 N 
ATOM     17  O   UNL     1       6.300   7.027  16.812  0.00  0.00    +0.000 OA
ATOM     18  C   UNL     1       6.945   6.345  17.899  0.00  0.00    +0.000 C 
ATOM     19  C   UNL     1       6.571   4.886  18.063  0.00  0.00    +0.000 C 
ATOM     20  F   UNL     1       7.462   4.184  17.292  0.00  0.00    +0.000 F 
ATOM     21  F   UNL     1       6.833   4.485  19.338  0.00  0.00    +0.000 F 
ATOM     22  H   UNL     1       3.799   7.142  14.991  0.00  0.00    +0.000 HD
ATOM     23  H   UNL     1       5.054   8.267  15.296  0.00  0.00    +0.000 HD
ENDBRANCH   1  13
BRANCH   5  24
ATOM     24  C   UNL     1       1.075   9.188  20.080  0.00  0.00    +0.000 A 
ATOM     25  N   UNL     1       0.948   9.320  21.438  0.00  0.00    +0.000 NA
ATOM     26  C   UNL     1       0.113  10.303  21.863  0.00  0.00    +0.000 A 
ATOM     27  C   UNL     1      -0.601  11.144  21.018  0.00  0.00    +0.000 A 
ATOM     28 CL   UNL     1      -1.670  12.333  21.646  0.00  0.00    +0.000 Cl
ATOM     29  C   UNL     1      -0.441  11.001  19.647  0.00  0.00    +0.000 A 
ATOM     30  C   UNL     1       0.381   9.991  19.140  0.00  0.00    +0.000 A 
BRANCH  30  31
ATOM     31  N   UNL     1       0.629   9.975  17.755  0.00  0.00    +0.000 N 
ATOM     32  H   UNL     1       1.478  10.436  17.448  0.00  0.00    +0.000 HD
ATOM     33  H   UNL     1      -0.200  10.255  17.209  0.00  0.00    +0.000 HD
ENDBRANCH  30  31
ENDBRANCH   5  24
TORSDOF 3
ENDMDL
MODEL 9
REMARK VINA RESULT:      -8.6      2.677      4.172
REMARK  Name = 
REMARK  4 active torsions:
REMARK  status: ('A' for Active; 'I' for Inactive)
REMARK    1  A    between atoms: C_1  and  C_2
REMARK    2  A    between atoms: C_2  and  C_3
REMARK    3  A    between atoms: C_7  and  C_9
REMARK    4  A    between atoms: C_15  and  N_16
REMARK                            x       y       z     vdW  Elec       q    Type
REMARK                         _______ _______ _______ _____ _____    ______ ____
ROOT
ATOM      1  C   UNL     1       3.862   4.887  18.857  0.00  0.00    +0.000 A 
ATOM      2  N   UNL     1       3.179   6.067  18.895  0.00  0.00    +0.000 NA
ATOM      3  C   UNL     1       2.222   6.287  19.826  0.00  0.00    +0.000 A 
ATOM      4  N   UNL     1       1.583   7.539  19.890  0.00  0.00    +0.000 N 
ATOM      5  C   UNL     1       1.880   8.611  19.061  0.00  0.00    +0.000 C 
ATOM      6  O   UNL     1       2.702   8.621  18.153  0.00  0.00    +0.000 OA
ATOM      7  C   UNL     1       1.887   5.314  20.753  0.00  0.00    +0.000 A 
ATOM      8  C   UNL     1       2.599   4.112  20.748  0.00  0.00    +0.000 A 
ATOM      9  C   UNL     1       3.617   3.918  19.817  0.00  0.00    +0.000 A 
ATOM     10  F   UNL     1       4.331   2.792  19.886  0.00  0.00    +0.000 F 
ATOM     11  H   UNL     1       0.874   7.698  20.595  0.00  0.00    +0.000 HD
ENDROOT
BRANCH   1  13
ATOM     12  C   UNL     1       4.944   3.257  17.282  0.00  0.00    +0.000 C 
ATOM     13  C   UNL     1       4.948   4.736  17.757  0.00  0.00    +0.000 C 
ATOM     14  N   UNL     1       4.573   5.516  16.562  0.00  0.00    +0.000 NA
ATOM     15  C   UNL     1       5.256   6.507  16.152  0.00  0.00    +0.000 C 
ATOM     16  N   UNL     1       4.941   7.183  15.038  0.00  0.00    +0.000 N 
ATOM     17  O   UNL     1       6.347   7.017  16.735  0.00  0.00    +0.000 OA
ATOM     18  C   UNL     1       6.872   6.436  17.939  0.00  0.00    +0.000 C 
ATOM     19  C   UNL     1       6.391   5.032  18.246  0.00  0.00    +0.000 C 
ATOM     20  F   UNL     1       7.282   4.191  17.631  0.00  0.00    +0.000 F 
ATOM     21  F   UNL     1       6.540   4.776  19.575  0.00  0.00    +0.000 F 
ATOM     22  H   UNL     1       3.986   7.054  14.733  0.00  0.00    +0.000 HD
ATOM     23  H   UNL     1       5.291   8.133  14.996  0.00  0.00    +0.000 HD
ENDBRANCH   1  13
BRANCH   5  24
ATOM     24  C   UNL     1       1.068   9.861  19.327  0.00  0.00    +0.000 A 
ATOM     25  N   UNL     1       0.073   9.736  20.260  0.00  0.00    +0.000 NA
ATOM     26  C   UNL     1      -0.709  10.831  20.443  0.00  0.00    +0.000 A 
ATOM     27  C   UNL     1      -0.560  12.025  19.748  0.00  0.00    +0.000 A 
ATOM     28 CL   UNL     1      -1.626  13.346  20.013  0.00  0.00    +0.000 Cl
ATOM     29  C   UNL     1       0.467  12.131  18.820  0.00  0.00    +0.000 A 
ATOM     30  C   UNL     1       1.292  11.033  18.561  0.00  0.00    +0.000 A 
BRANCH  30  31
ATOM     31  N   UNL     1       2.407  11.228  17.726  0.00  0.00    +0.000 N 
ATOM     32  H   UNL     1       2.782  10.398  17.280  0.00  0.00    +0.000 HD
ATOM     33  H   UNL     1       3.134  11.804  18.176  0.00  0.00    +0.000 HD
ENDBRANCH  30  31
ENDBRANCH   5  24
TORSDOF 3
ENDMDL
