MODEL 1
REMARK VINA RESULT:      -7.2      0.000      0.000
REMARK  Name = 
REMARK  4 active torsions:
REMARK  status: ('A' for Active; 'I' for Inactive)
REMARK    1  A    between atoms: C_4  and  C_5
REMARK    2  A    between atoms: C_5  and  N_6
REMARK    3  A    between atoms: C_9  and  C_10
REMARK    4  A    between atoms: C_15  and  N_16
REMARK                            x       y       z     vdW  Elec       q    Type
REMARK                         _______ _______ _______ _____ _____    ______ ____
ROOT
ATOM      1  N   UNL     1       5.746   4.706  16.703  0.00  0.00    +0.000 NA
ATOM      2  C   UNL     1       4.430   5.335  16.618  0.00  0.00    +0.000 C 
ATOM      3  C   UNL     1       4.266   6.485  17.612  0.00  0.00    +0.000 C 
ATOM      4  C   UNL     1       4.553   6.067  19.065  0.00  0.00    +0.000 C 
ATOM      5  C   UNL     1       5.934   5.378  19.093  0.00  0.00    +0.000 C 
ATOM      6  C   UNL     1       6.083   4.262  18.057  0.00  0.00    +0.000 C 
ENDROOT
BRANCH   4   7
ATOM      7  C   UNL     1       3.418   5.292  19.728  0.00  0.00    +0.000 A 
ATOM      8  N   UNL     1       3.666   3.961  19.906  0.00  0.00    +0.000 NA
ATOM      9  C   UNL     1       2.683   3.190  20.419  0.00  0.00    +0.000 A 
ATOM     10  C   UNL     1       1.455   3.706  20.750  0.00  0.00    +0.000 A 
ATOM     11  N   UNL     1       1.168   5.012  20.587  0.00  0.00    +0.000 NA
ATOM     12  C   UNL     1       2.167   5.821  20.107  0.00  0.00    +0.000 A 
BRANCH  12  13
ATOM     13  N   UNL     1       1.816   7.202  20.057  0.00  0.00    +0.000 N 
ATOM     14  C   UNL     1       1.852   8.108  19.023  0.00  0.00    +0.000 A 
ATOM     15  C   UNL     1       1.357   9.290  19.523  0.00  0.00    +0.000 A 
ATOM     16  N   UNL     1       1.073   9.170  20.850  0.00  0.00    +0.000 NA
ATOM     17  C   UNL     1       1.397   7.933  21.154  0.00  0.00    +0.000 A 
ENDBRANCH  12  13
ENDBRANCH   4   7
BRANCH   1  18
ATOM     18  C   UNL     1       5.929   3.638  15.698  0.00  0.00    +0.000 C 
BRANCH  18  22
ATOM     19  C   UNL     1       7.469   4.781  11.814  0.00  0.00    +0.000 A 
ATOM     20  C   UNL     1       6.522   3.766  11.919  0.00  0.00    +0.000 A 
ATOM     21  C   UNL     1       6.015   3.408  13.171  0.00  0.00    +0.000 A 
ATOM     22  C   UNL     1       6.455   4.058  14.336  0.00  0.00    +0.000 A 
ATOM     23  C   UNL     1       7.398   5.089  14.211  0.00  0.00    +0.000 A 
ATOM     24  C   UNL     1       7.904   5.446  12.959  0.00  0.00    +0.000 A 
ENDBRANCH  18  22
ENDBRANCH   1  18
TORSDOF 4
ENDMDL
MODEL 2
REMARK VINA RESULT:      -7.1      1.477      3.434
REMARK  Name = 
REMARK  4 active torsions:
REMARK  status: ('A' for Active; 'I' for Inactive)
REMARK    1  A    between atoms: C_4  and  C_5
REMARK    2  A    between atoms: C_5  and  N_6
REMARK    3  A    between atoms: C_9  and  C_10
REMARK    4  A    between atoms: C_15  and  N_16
REMARK                            x       y       z     vdW  Elec       q    Type
REMARK                         _______ _______ _______ _____ _____    ______ ____
ROOT
ATOM      1  N   UNL     1       6.394   4.377  15.605  0.00  0.00    +0.000 NA
ATOM      2  C   UNL     1       6.726   5.397  16.598  0.00  0.00    +0.000 C 
ATOM      3  C   UNL     1       6.462   4.928  18.028  0.00  0.00    +0.000 C 
ATOM      4  C   UNL     1       5.018   4.441  18.243  0.00  0.00    +0.000 C 
ATOM      5  C   UNL     1       4.707   3.395  17.151  0.00  0.00    +0.000 C 
ATOM      6  C   UNL     1       5.024   3.877  15.734  0.00  0.00    +0.000 C 
ENDROOT
BRANCH   4   7
ATOM      7  C   UNL     1       3.995   5.563  18.390  0.00  0.00    +0.000 A 
ATOM      8  N   UNL     1       4.256   6.673  17.637  0.00  0.00    +0.000 NA
ATOM      9  C   UNL     1       3.439   7.739  17.765  0.00  0.00    +0.000 A 
ATOM     10  C   UNL     1       2.374   7.738  18.632  0.00  0.00    +0.000 A 
ATOM     11  N   UNL     1       2.084   6.666  19.395  0.00  0.00    +0.000 NA
ATOM     12  C   UNL     1       2.877   5.555  19.248  0.00  0.00    +0.000 A 
BRANCH  12  13
ATOM     13  N   UNL     1       2.445   4.435  20.016  0.00  0.00    +0.000 N 
ATOM     14  C   UNL     1       1.909   3.227  19.632  0.00  0.00    +0.000 A 
ATOM     15  C   UNL     1       1.719   2.501  20.785  0.00  0.00    +0.000 A 
ATOM     16  N   UNL     1       2.060   3.238  21.880  0.00  0.00    +0.000 NA
ATOM     17  C   UNL     1       2.446   4.399  21.398  0.00  0.00    +0.000 A 
ENDBRANCH  12  13
ENDBRANCH   4   7
BRANCH   1  18
ATOM     18  C   UNL     1       6.711   4.804  14.226  0.00  0.00    +0.000 C 
BRANCH  18  22
ATOM     19  C   UNL     1       5.250   2.234  11.059  0.00  0.00    +0.000 A 
ATOM     20  C   UNL     1       4.403   3.170  11.646  0.00  0.00    +0.000 A 
ATOM     21  C   UNL     1       4.880   4.008  12.657  0.00  0.00    +0.000 A 
ATOM     22  C   UNL     1       6.210   3.916  13.099  0.00  0.00    +0.000 A 
ATOM     23  C   UNL     1       7.054   2.979  12.486  0.00  0.00    +0.000 A 
ATOM     24  C   UNL     1       6.577   2.141  11.476  0.00  0.00    +0.000 A 
ENDBRANCH  18  22
ENDBRANCH   1  18
TORSDOF 4
ENDMDL
MODEL 3
REMARK VINA RESULT:      -7.1      2.750      8.105
REMARK  Name = 
REMARK  4 active torsions:
REMARK  status: ('A' for Active; 'I' for Inactive)
REMARK    1  A    between atoms: C_4  and  C_5
REMARK    2  A    between atoms: C_5  and  N_6
REMARK    3  A    between atoms: C_9  and  C_10
REMARK    4  A    between atoms: C_15  and  N_16
REMARK                            x       y       z     vdW  Elec       q    Type
REMARK                         _______ _______ _______ _____ _____    ______ ____
ROOT
ATOM      1  N   UNL     1       1.624   7.498  20.164  0.00  0.00    +0.000 NA
ATOM      2  C   UNL     1       2.235   8.199  19.036  0.00  0.00    +0.000 C 
ATOM      3  C   UNL     1       2.087   7.433  17.722  0.00  0.00    +0.000 C 
ATOM      4  C   UNL     1       2.632   5.996  17.800  0.00  0.00    +0.000 C 
ATOM      5  C   UNL     1       1.985   5.313  19.024  0.00  0.00    +0.000 C 
ATOM      6  C   UNL     1       2.110   6.125  20.315  0.00  0.00    +0.000 C 
ENDROOT
BRANCH   4   7
ATOM      7  C   UNL     1       4.153   5.900  17.720  0.00  0.00    +0.000 A 
ATOM      8  N   UNL     1       4.781   7.069  17.396  0.00  0.00    +0.000 NA
ATOM      9  C   UNL     1       6.121   7.051  17.234  0.00  0.00    +0.000 A 
ATOM     10  C   UNL     1       6.853   5.898  17.372  0.00  0.00    +0.000 A 
ATOM     11  N   UNL     1       6.273   4.724  17.686  0.00  0.00    +0.000 NA
ATOM     12  C   UNL     1       4.917   4.729  17.899  0.00  0.00    +0.000 A 
BRANCH  12  13
ATOM     13  N   UNL     1       4.396   3.471  18.322  0.00  0.00    +0.000 N 
ATOM     14  C   UNL     1       3.655   2.526  17.651  0.00  0.00    +0.000 A 
ATOM     15  C   UNL     1       3.464   1.484  18.529  0.00  0.00    +0.000 A 
ATOM     16  N   UNL     1       4.008   1.774  19.745  0.00  0.00    +0.000 NA
ATOM     17  C   UNL     1       4.516   2.979  19.609  0.00  0.00    +0.000 A 
ENDBRANCH  12  13
ENDBRANCH   4   7
BRANCH   1  18
ATOM     18  C   UNL     1       1.709   8.267  21.423  0.00  0.00    +0.000 C 
BRANCH  18  22
ATOM     19  C   UNL     1      -1.298  11.311  22.102  0.00  0.00    +0.000 A 
ATOM     20  C   UNL     1      -0.715  11.172  20.845  0.00  0.00    +0.000 A 
ATOM     21  C   UNL     1       0.244  10.180  20.623  0.00  0.00    +0.000 A 
ATOM     22  C   UNL     1       0.637   9.318  21.660  0.00  0.00    +0.000 A 
ATOM     23  C   UNL     1       0.030   9.461  22.916  0.00  0.00    +0.000 A 
ATOM     24  C   UNL     1      -0.929  10.453  23.137  0.00  0.00    +0.000 A 
ENDBRANCH  18  22
ENDBRANCH   1  18
TORSDOF 4
ENDMDL
MODEL 4
REMARK VINA RESULT:      -7.0      3.441      6.887
REMARK  Name = 
REMARK  4 active torsions:
REMARK  status: ('A' for Active; 'I' for Inactive)
REMARK    1  A    between atoms: C_4  and  C_5
REMARK    2  A    between atoms: C_5  and  N_6
REMARK    3  A    between atoms: C_9  and  C_10
REMARK    4  A    between atoms: C_15  and  N_16
REMARK                            x       y       z     vdW  Elec       q    Type
REMARK                         _______ _______ _______ _____ _____    ______ ____
ROOT
ATOM      1  N   UNL     1       1.720   8.219  18.781  0.00  0.00    +0.000 NA
ATOM      2  C   UNL     1       1.544   8.569  20.189  0.00  0.00    +0.000 C 
ATOM      3  C   UNL     1       0.167   9.166  20.475  0.00  0.00    +0.000 C 
ATOM      4  C   UNL     1      -0.157  10.382  19.590  0.00  0.00    +0.000 C 
ATOM      5  C   UNL     1       0.078   9.971  18.121  0.00  0.00    +0.000 C 
ATOM      6  C   UNL     1       1.448   9.336  17.874  0.00  0.00    +0.000 C 
ENDROOT
BRANCH   4   7
ATOM      7  C   UNL     1       0.527  11.674  20.029  0.00  0.00    +0.000 A 
ATOM      8  N   UNL     1       1.643  11.999  19.311  0.00  0.00    +0.000 NA
ATOM      9  C   UNL     1       2.348  13.088  19.683  0.00  0.00    +0.000 A 
ATOM     10  C   UNL     1       1.980  13.858  20.759  0.00  0.00    +0.000 A 
ATOM     11  N   UNL     1       0.890  13.571  21.495  0.00  0.00    +0.000 NA
ATOM     12  C   UNL     1       0.134  12.492  21.107  0.00  0.00    +0.000 A 
BRANCH  12  13
ATOM     13  N   UNL     1      -1.053  12.315  21.876  0.00  0.00    +0.000 N 
ATOM     14  C   UNL     1      -1.275  11.644  23.057  0.00  0.00    +0.000 A 
ATOM     15  C   UNL     1      -2.600  11.835  23.371  0.00  0.00    +0.000 A 
ATOM     16  N   UNL     1      -3.228  12.551  22.395  0.00  0.00    +0.000 NA
ATOM     17  C   UNL     1      -2.297  12.784  21.496  0.00  0.00    +0.000 A 
ENDBRANCH  12  13
ENDBRANCH   4   7
BRANCH   1  18
ATOM     18  C   UNL     1       3.026   7.581  18.514  0.00  0.00    +0.000 C 
BRANCH  18  22
ATOM     19  C   UNL     1       2.967   3.445  17.227  0.00  0.00    +0.000 A 
ATOM     20  C   UNL     1       1.830   4.019  17.790  0.00  0.00    +0.000 A 
ATOM     21  C   UNL     1       1.846   5.357  18.191  0.00  0.00    +0.000 A 
ATOM     22  C   UNL     1       3.003   6.138  18.040  0.00  0.00    +0.000 A 
ATOM     23  C   UNL     1       4.135   5.550  17.456  0.00  0.00    +0.000 A 
ATOM     24  C   UNL     1       4.119   4.212  17.056  0.00  0.00    +0.000 A 
ENDBRANCH  18  22
ENDBRANCH   1  18
TORSDOF 4
ENDMDL
MODEL 5
REMARK VINA RESULT:      -7.0      1.521      3.500
REMARK  Name = 
REMARK  4 active torsions:
REMARK  status: ('A' for Active; 'I' for Inactive)
REMARK    1  A    between atoms: C_4  and  C_5
REMARK    2  A    between atoms: C_5  and  N_6
REMARK    3  A    between atoms: C_9  and  C_10
REMARK    4  A    between atoms: C_15  and  N_16
REMARK                            x       y       z     vdW  Elec       q    Type
REMARK                         _______ _______ _______ _____ _____    ______ ____
ROOT
ATOM      1  N   UNL     1       6.349   4.205  15.516  0.00  0.00    +0.000 NA
ATOM      2  C   UNL     1       6.720   5.235  16.484  0.00  0.00    +0.000 C 
ATOM      3  C   UNL     1       6.460   4.802  17.927  0.00  0.00    +0.000 C 
ATOM      4  C   UNL     1       5.007   4.358  18.168  0.00  0.00    +0.000 C 
ATOM      5  C   UNL     1       4.655   3.299  17.101  0.00  0.00    +0.000 C 
ATOM      6  C   UNL     1       4.968   3.744  15.671  0.00  0.00    +0.000 C 
ENDROOT
BRANCH   4   7
ATOM      7  C   UNL     1       4.016   5.510  18.303  0.00  0.00    +0.000 A 
ATOM      8  N   UNL     1       4.295   6.595  17.522  0.00  0.00    +0.000 NA
ATOM      9  C   UNL     1       3.507   7.686  17.637  0.00  0.00    +0.000 A 
ATOM     10  C   UNL     1       2.455   7.731  18.519  0.00  0.00    +0.000 A 
ATOM     11  N   UNL     1       2.148   6.685  19.309  0.00  0.00    +0.000 NA
ATOM     12  C   UNL     1       2.910   5.551  19.177  0.00  0.00    +0.000 A 
BRANCH  12  13
ATOM     13  N   UNL     1       2.461   4.459  19.975  0.00  0.00    +0.000 N 
ATOM     14  C   UNL     1       1.910   3.248  19.625  0.00  0.00    +0.000 A 
ATOM     15  C   UNL     1       1.706   2.559  20.798  0.00  0.00    +0.000 A 
ATOM     16  N   UNL     1       2.053   3.323  21.873  0.00  0.00    +0.000 NA
ATOM     17  C   UNL     1       2.455   4.464  21.359  0.00  0.00    +0.000 A 
ENDBRANCH  12  13
ENDBRANCH   4   7
BRANCH   1  18
ATOM     18  C   UNL     1       6.661   4.596  14.125  0.00  0.00    +0.000 C 
BRANCH  18  22
ATOM     19  C   UNL     1       4.849   2.302  10.928  0.00  0.00    +0.000 A 
ATOM     20  C   UNL     1       6.117   1.968  11.397  0.00  0.00    +0.000 A 
ATOM     21  C   UNL     1       6.694   2.699  12.438  0.00  0.00    +0.000 A 
ATOM     22  C   UNL     1       6.012   3.780  13.020  0.00  0.00    +0.000 A 
ATOM     23  C   UNL     1       4.729   4.095  12.546  0.00  0.00    +0.000 A 
ATOM     24  C   UNL     1       4.153   3.363  11.505  0.00  0.00    +0.000 A 
ENDBRANCH  18  22
ENDBRANCH   1  18
TORSDOF 4
ENDMDL
MODEL 6
REMARK VINA RESULT:      -7.0      2.735      8.153
REMARK  Name = 
REMARK  4 active torsions:
REMARK  status: ('A' for Active; 'I' for Inactive)
REMARK    1  A    between atoms: C_4  and  C_5
REMARK    2  A    between atoms: C_5  and  N_6
REMARK    3  A    between atoms: C_9  and  C_10
REMARK    4  A    between atoms: C_15  and  N_16
REMARK                            x       y       z     vdW  Elec       q    Type
REMARK                         _______ _______ _______ _____ _____    ______ ____
ROOT
ATOM      1  N   UNL     1       1.633   7.521  20.286  0.00  0.00    +0.000 NA
ATOM      2  C   UNL     1       2.204   8.218  19.136  0.00  0.00    +0.000 C 
ATOM      3  C   UNL     1       2.019   7.444  17.831  0.00  0.00    +0.000 C 
ATOM      4  C   UNL     1       2.573   6.010  17.900  0.00  0.00    +0.000 C 
ATOM      5  C   UNL     1       1.967   5.331  19.147  0.00  0.00    +0.000 C 
ATOM      6  C   UNL     1       2.129   6.151  20.429  0.00  0.00    +0.000 C 
ENDROOT
BRANCH   4   7
ATOM      7  C   UNL     1       4.091   5.920  17.774  0.00  0.00    +0.000 A 
ATOM      8  N   UNL     1       4.701   7.083  17.398  0.00  0.00    +0.000 NA
ATOM      9  C   UNL     1       6.035   7.068  17.192  0.00  0.00    +0.000 A 
ATOM     10  C   UNL     1       6.779   5.923  17.338  0.00  0.00    +0.000 A 
ATOM     11  N   UNL     1       6.216   4.755  17.704  0.00  0.00    +0.000 NA
ATOM     12  C   UNL     1       4.868   4.758  17.960  0.00  0.00    +0.000 A 
BRANCH  12  13
ATOM     13  N   UNL     1       4.369   3.511  18.435  0.00  0.00    +0.000 N 
ATOM     14  C   UNL     1       4.446   2.917  19.674  0.00  0.00    +0.000 A 
ATOM     15  C   UNL     1       3.751   1.734  19.584  0.00  0.00    +0.000 A 
ATOM     16  N   UNL     1       3.295   1.539  18.314  0.00  0.00    +0.000 NA
ATOM     17  C   UNL     1       3.715   2.587  17.640  0.00  0.00    +0.000 A 
ENDBRANCH  12  13
ENDBRANCH   4   7
BRANCH   1  18
ATOM     18  C   UNL     1       1.753   8.298  21.537  0.00  0.00    +0.000 C 
BRANCH  18  22
ATOM     19  C   UNL     1      -1.217  11.387  22.172  0.00  0.00    +0.000 A 
ATOM     20  C   UNL     1      -0.983  10.429  23.156  0.00  0.00    +0.000 A 
ATOM     21  C   UNL     1      -0.015   9.442  22.956  0.00  0.00    +0.000 A 
ATOM     22  C   UNL     1       0.729   9.397  21.765  0.00  0.00    +0.000 A 
ATOM     23  C   UNL     1       0.493  10.379  20.791  0.00  0.00    +0.000 A 
ATOM     24  C   UNL     1      -0.476  11.365  20.992  0.00  0.00    +0.000 A 
ENDBRANCH  18  22
ENDBRANCH   1  18
TORSDOF 4
ENDMDL
MODEL 7
REMARK VINA RESULT:      -6.8      4.410      7.604
REMARK  Name = 
REMARK  4 active torsions:
REMARK  status: ('A' for Active; 'I' for Inactive)
REMARK    1  A    between atoms: C_4  and  C_5
REMARK    2  A    between atoms: C_5  and  N_6
REMARK    3  A    between atoms: C_9  and  C_10
REMARK    4  A    between atoms: C_15  and  N_16
REMARK                            x       y       z     vdW  Elec       q    Type
REMARK                         _______ _______ _______ _____ _____    ______ ____
ROOT
ATOM      1  N   UNL     1       1.244   8.275  19.468  0.00  0.00    +0.000 NA
ATOM      2  C   UNL     1       0.697   8.817  20.711  0.00  0.00    +0.000 C 
ATOM      3  C   UNL     1      -0.529   9.698  20.475  0.00  0.00    +0.000 C 
ATOM      4  C   UNL     1      -0.263  10.841  19.480  0.00  0.00    +0.000 C 
ATOM      5  C   UNL     1       0.344  10.222  18.203  0.00  0.00    +0.000 C 
ATOM      6  C   UNL     1       1.542   9.309  18.475  0.00  0.00    +0.000 C 
ENDROOT
BRANCH   4   7
ATOM      7  C   UNL     1       0.507  12.018  20.071  0.00  0.00    +0.000 A 
ATOM      8  N   UNL     1       1.702  12.279  19.462  0.00  0.00    +0.000 NA
ATOM      9  C   UNL     1       2.478  13.258  19.972  0.00  0.00    +0.000 A 
ATOM     10  C   UNL     1       2.104  13.979  21.080  0.00  0.00    +0.000 A 
ATOM     11  N   UNL     1       0.937  13.751  21.711  0.00  0.00    +0.000 NA
ATOM     12  C   UNL     1       0.112  12.789  21.183  0.00  0.00    +0.000 A 
BRANCH  12  13
ATOM     13  N   UNL     1      -1.143  12.678  21.849  0.00  0.00    +0.000 N 
ATOM     14  C   UNL     1      -2.372  13.225  21.560  0.00  0.00    +0.000 A 
ATOM     15  C   UNL     1      -3.244  12.749  22.512  0.00  0.00    +0.000 A 
ATOM     16  N   UNL     1      -2.588  11.973  23.421  0.00  0.00    +0.000 NA
ATOM     17  C   UNL     1      -1.332  11.984  23.030  0.00  0.00    +0.000 A 
ENDBRANCH  12  13
ENDBRANCH   4   7
BRANCH   1  18
ATOM     18  C   UNL     1       2.389   7.370  19.700  0.00  0.00    +0.000 C 
BRANCH  18  22
ATOM     19  C   UNL     1       1.600   3.141  19.195  0.00  0.00    +0.000 A 
ATOM     20  C   UNL     1       1.987   3.915  18.104  0.00  0.00    +0.000 A 
ATOM     21  C   UNL     1       2.256   5.276  18.271  0.00  0.00    +0.000 A 
ATOM     22  C   UNL     1       2.134   5.882  19.533  0.00  0.00    +0.000 A 
ATOM     23  C   UNL     1       1.759   5.085  20.624  0.00  0.00    +0.000 A 
ATOM     24  C   UNL     1       1.490   3.724  20.456  0.00  0.00    +0.000 A 
ENDBRANCH  18  22
ENDBRANCH   1  18
TORSDOF 4
ENDMDL
MODEL 8
REMARK VINA RESULT:      -6.8      3.549      7.135
REMARK  Name = 
REMARK  4 active torsions:
REMARK  status: ('A' for Active; 'I' for Inactive)
REMARK    1  A    between atoms: C_4  and  C_5
REMARK    2  A    between atoms: C_5  and  N_6
REMARK    3  A    between atoms: C_9  and  C_10
REMARK    4  A    between atoms: C_15  and  N_16
REMARK                            x       y       z     vdW  Elec       q    Type
REMARK                         _______ _______ _______ _____ _____    ______ ____
ROOT
ATOM      1  N   UNL     1       1.551   8.635  18.670  0.00  0.00    +0.000 NA
ATOM      2  C   UNL     1       1.583   8.830  20.118  0.00  0.00    +0.000 C 
ATOM      3  C   UNL     1       0.225   9.250  20.680  0.00  0.00    +0.000 C 
ATOM      4  C   UNL     1      -0.347  10.504  19.997  0.00  0.00    +0.000 C 
ATOM      5  C   UNL     1      -0.325  10.261  18.473  0.00  0.00    +0.000 C 
ATOM      6  C   UNL     1       1.035   9.799  17.946  0.00  0.00    +0.000 C 
ENDROOT
BRANCH   4   7
ATOM      7  C   UNL     1       0.285  11.812  20.464  0.00  0.00    +0.000 A 
ATOM      8  N   UNL     1       1.490  12.100  19.888  0.00  0.00    +0.000 NA
ATOM      9  C   UNL     1       2.149  13.203  20.301  0.00  0.00    +0.000 A 
ATOM     10  C   UNL     1       1.648  14.023  21.282  0.00  0.00    +0.000 A 
ATOM     11  N   UNL     1       0.466  13.774  21.878  0.00  0.00    +0.000 NA
ATOM     12  C   UNL     1      -0.241  12.681  21.442  0.00  0.00    +0.000 A 
BRANCH  12  13
ATOM     13  N   UNL     1      -1.522  12.544  22.052  0.00  0.00    +0.000 N 
ATOM     14  C   UNL     1      -2.737  13.113  21.745  0.00  0.00    +0.000 A 
ATOM     15  C   UNL     1      -3.647  12.593  22.636  0.00  0.00    +0.000 A 
ATOM     16  N   UNL     1      -3.030  11.766  23.527  0.00  0.00    +0.000 NA
ATOM     17  C   UNL     1      -1.761  11.790  23.187  0.00  0.00    +0.000 A 
ENDBRANCH  12  13
ENDBRANCH   4   7
BRANCH   1  18
ATOM     18  C   UNL     1       2.846   8.166  18.133  0.00  0.00    +0.000 C 
BRANCH  18  22
ATOM     19  C   UNL     1       3.296   3.907  17.485  0.00  0.00    +0.000 A 
ATOM     20  C   UNL     1       4.387   4.757  17.328  0.00  0.00    +0.000 A 
ATOM     21  C   UNL     1       4.245   6.129  17.552  0.00  0.00    +0.000 A 
ATOM     22  C   UNL     1       3.005   6.669  17.930  0.00  0.00    +0.000 A 
ATOM     23  C   UNL     1       1.919   5.797  18.099  0.00  0.00    +0.000 A 
ATOM     24  C   UNL     1       2.063   4.426  17.875  0.00  0.00    +0.000 A 
ENDBRANCH  18  22
ENDBRANCH   1  18
TORSDOF 4
ENDMDL
MODEL 9
REMARK VINA RESULT:      -6.7      4.289      7.604
REMARK  Name = 
REMARK  4 active torsions:
REMARK  status: ('A' for Active; 'I' for Inactive)
REMARK    1  A    between atoms: C_4  and  C_5
REMARK    2  A    between atoms: C_5  and  N_6
REMARK    3  A    between atoms: C_9  and  C_10
REMARK    4  A    between atoms: C_15  and  N_16
REMARK                            x       y       z     vdW  Elec       q    Type
REMARK                         _______ _______ _______ _____ _____    ______ ____
ROOT
ATOM      1  N   UNL     1       1.306   8.348  19.333  0.00  0.00    +0.000 NA
ATOM      2  C   UNL     1       0.879   8.822  20.648  0.00  0.00    +0.000 C 
ATOM      3  C   UNL     1      -0.403   9.652  20.581  0.00  0.00    +0.000 C 
ATOM      4  C   UNL     1      -0.300  10.838  19.606  0.00  0.00    +0.000 C 
ATOM      5  C   UNL     1       0.188  10.290  18.248  0.00  0.00    +0.000 C 
ATOM      6  C   UNL     1       1.446   9.426  18.353  0.00  0.00    +0.000 C 
ENDROOT
BRANCH   4   7
ATOM      7  C   UNL     1       0.480  12.030  20.153  0.00  0.00    +0.000 A 
ATOM      8  N   UNL     1       1.678  12.257  19.537  0.00  0.00    +0.000 NA
ATOM      9  C   UNL     1       2.463  13.248  20.010  0.00  0.00    +0.000 A 
ATOM     10  C   UNL     1       2.094  14.014  21.088  0.00  0.00    +0.000 A 
ATOM     11  N   UNL     1       0.923  13.821  21.726  0.00  0.00    +0.000 NA
ATOM     12  C   UNL     1       0.091  12.847  21.234  0.00  0.00    +0.000 A 
BRANCH  12  13
ATOM     13  N   UNL     1      -1.166  12.773  21.902  0.00  0.00    +0.000 N 
ATOM     14  C   UNL     1      -2.364  13.402  21.650  0.00  0.00    +0.000 A 
ATOM     15  C   UNL     1      -3.257  12.927  22.582  0.00  0.00    +0.000 A 
ATOM     16  N   UNL     1      -2.643  12.069  23.445  0.00  0.00    +0.000 NA
ATOM     17  C   UNL     1      -1.390  12.030  23.047  0.00  0.00    +0.000 A 
ENDBRANCH  12  13
ENDBRANCH   4   7
BRANCH   1  18
ATOM     18  C   UNL     1       2.508   7.490  19.403  0.00  0.00    +0.000 C 
BRANCH  18  22
ATOM     19  C   UNL     1       1.932   3.198  19.302  0.00  0.00    +0.000 A 
ATOM     20  C   UNL     1       1.710   3.905  20.480  0.00  0.00    +0.000 A 
ATOM     21  C   UNL     1       1.882   5.292  20.508  0.00  0.00    +0.000 A 
ATOM     22  C   UNL     1       2.285   5.988  19.356  0.00  0.00    +0.000 A 
ATOM     23  C   UNL     1       2.489   5.263  18.173  0.00  0.00    +0.000 A 
ATOM     24  C   UNL     1       2.317   3.876  18.147  0.00  0.00    +0.000 A 
ENDBRANCH  18  22
ENDBRANCH   1  18
TORSDOF 4
ENDMDL
