MODEL 1
REMARK VINA RESULT:      -8.8      0.000      0.000
REMARK  Name = 
REMARK  6 active torsions:
REMARK  status: ('A' for Active; 'I' for Inactive)
REMARK    1  A    between atoms: C_2  and  C_3
REMARK    2  A    between atoms: C_8  and  O_9
REMARK    3  A    between atoms: O_9  and  C_10
REMARK    4  A    between atoms: C_15  and  C_16
REMARK    5  A    between atoms: C_16  and  N_17
REMARK    6  A    between atoms: C_18  and  C_20
REMARK                            x       y       z     vdW  Elec       q    Type
REMARK                         _______ _______ _______ _____ _____    ______ ____
ROOT
ATOM      1  C   UNL     1       2.770   5.536  18.974  0.00  0.00    +0.000 A 
ATOM      2  C   UNL     1       2.294   5.455  20.287  0.00  0.00    +0.000 A 
ATOM      3 CL   UNL     1       2.403   3.990  21.196  0.00  0.00    +0.000 Cl
ATOM      4  C   UNL     1       1.720   6.571  20.904  0.00  0.00    +0.000 A 
ATOM      5  C   UNL     1       1.634   7.785  20.217  0.00  0.00    +0.000 A 
ATOM      6  C   UNL     1       2.064   7.873  18.888  0.00  0.00    +0.000 A 
ATOM      7  C   UNL     1       2.579   6.730  18.269  0.00  0.00    +0.000 A 
ATOM      8  F   UNL     1       2.915   6.814  16.972  0.00  0.00    +0.000 F 
ENDROOT
BRANCH   1   9
ATOM      9  O   UNL     1       3.369   4.415  18.436  0.00  0.00    +0.000 OA
BRANCH   9  15
ATOM     10  C   UNL     1       6.089   4.352  15.906  0.00  0.00    +0.000 A 
ATOM     11  C   UNL     1       7.168   4.680  16.731  0.00  0.00    +0.000 A 
ATOM     12  C   UNL     1       6.942   4.970  18.075  0.00  0.00    +0.000 A 
ATOM     13 CL   UNL     1       8.265   5.411  19.083  0.00  0.00    +0.000 Cl
ATOM     14  C   UNL     1       5.660   4.890  18.614  0.00  0.00    +0.000 A 
ATOM     15  C   UNL     1       4.587   4.521  17.801  0.00  0.00    +0.000 A 
ATOM     16  C   UNL     1       4.793   4.314  16.432  0.00  0.00    +0.000 A 
BRANCH  10  18
ATOM     17  N   UNL     1       6.495   3.729  13.420  0.00  0.00    +0.000 NA
ATOM     18  C   UNL     1       6.315   4.017  14.529  0.00  0.00    +0.000 C 
ENDBRANCH  10  18
ENDBRANCH   9  15
ENDBRANCH   1   9
BRANCH   6  19
ATOM     19  C   UNL     1       2.057   9.184  18.152  0.00  0.00    +0.000 C 
BRANCH  19  20
ATOM     20  N   UNL     1       0.718   9.705  18.024  0.00  0.00    +0.000 N 
ATOM     21  C   UNL     1       0.265  10.796  18.727  0.00  0.00    +0.000 C 
ATOM     22  O   UNL     1       0.975  11.448  19.487  0.00  0.00    +0.000 OA
ATOM     23  H   UNL     1       0.052   9.269  17.390  0.00  0.00    +0.000 HD
BRANCH  21  24
ATOM     24  C   UNL     1      -1.132  11.098  18.494  0.00  0.00    +0.000 A 
ATOM     25  N   UNL     1      -1.964  11.584  19.400  0.00  0.00    +0.000 NA
ATOM     26  C   UNL     1      -3.156  11.770  18.736  0.00  0.00    +0.000 A 
ATOM     27  C   UNL     1      -4.376  12.281  19.204  0.00  0.00    +0.000 A 
ATOM     28  C   UNL     1      -5.451  12.378  18.310  0.00  0.00    +0.000 A 
ATOM     29  C   UNL     1      -5.318  11.970  16.981  0.00  0.00    +0.000 A 
ATOM     30  C   UNL     1      -4.109  11.453  16.497  0.00  0.00    +0.000 A 
ATOM     31  C   UNL     1      -3.055  11.372  17.406  0.00  0.00    +0.000 A 
ATOM     32  N   UNL     1      -1.760  10.942  17.284  0.00  0.00    +0.000 N 
ATOM     33  H   UNL     1      -1.315  10.587  16.448  0.00  0.00    +0.000 HD
ENDBRANCH  21  24
ENDBRANCH  19  20
ENDBRANCH   6  19
TORSDOF 6
ENDMDL
MODEL 2
REMARK VINA RESULT:      -8.7      0.180      1.057
REMARK  Name = 
REMARK  6 active torsions:
REMARK  status: ('A' for Active; 'I' for Inactive)
REMARK    1  A    between atoms: C_2  and  C_3
REMARK    2  A    between atoms: C_8  and  O_9
REMARK    3  A    between atoms: O_9  and  C_10
REMARK    4  A    between atoms: C_15  and  C_16
REMARK    5  A    between atoms: C_16  and  N_17
REMARK    6  A    between atoms: C_18  and  C_20
REMARK                            x       y       z     vdW  Elec       q    Type
REMARK                         _______ _______ _______ _____ _____    ______ ____
ROOT
ATOM      1  C   UNL     1       2.724   5.633  19.051  0.00  0.00    +0.000 A 
ATOM      2  C   UNL     1       2.224   5.584  20.356  0.00  0.00    +0.000 A 
ATOM      3 CL   UNL     1       2.315   4.142  21.302  0.00  0.00    +0.000 Cl
ATOM      4  C   UNL     1       1.640   6.715  20.935  0.00  0.00    +0.000 A 
ATOM      5  C   UNL     1       1.568   7.912  20.218  0.00  0.00    +0.000 A 
ATOM      6  C   UNL     1       2.023   7.968  18.895  0.00  0.00    +0.000 A 
ATOM      7  C   UNL     1       2.547   6.810  18.313  0.00  0.00    +0.000 A 
ATOM      8  F   UNL     1       2.907   6.862  17.021  0.00  0.00    +0.000 F 
ENDROOT
BRANCH   1   9
ATOM      9  O   UNL     1       3.331   4.499  18.550  0.00  0.00    +0.000 OA
BRANCH   9  15
ATOM     10  C   UNL     1       6.059   4.371  16.030  0.00  0.00    +0.000 A 
ATOM     11  C   UNL     1       7.133   4.732  16.848  0.00  0.00    +0.000 A 
ATOM     12  C   UNL     1       6.902   5.063  18.182  0.00  0.00    +0.000 A 
ATOM     13 CL   UNL     1       8.219   5.542  19.178  0.00  0.00    +0.000 Cl
ATOM     14  C   UNL     1       5.619   4.992  18.720  0.00  0.00    +0.000 A 
ATOM     15  C   UNL     1       4.550   4.592  17.916  0.00  0.00    +0.000 A 
ATOM     16  C   UNL     1       4.761   4.343  16.555  0.00  0.00    +0.000 A 
BRANCH  10  18
ATOM     17  N   UNL     1       6.495   3.687  13.566  0.00  0.00    +0.000 NA
ATOM     18  C   UNL     1       6.290   3.995  14.666  0.00  0.00    +0.000 C 
ENDBRANCH  10  18
ENDBRANCH   9  15
ENDBRANCH   1   9
BRANCH   6  19
ATOM     19  C   UNL     1       2.030   9.260  18.127  0.00  0.00    +0.000 C 
BRANCH  19  20
ATOM     20  N   UNL     1       0.700   9.804  18.004  0.00  0.00    +0.000 N 
ATOM     21  C   UNL     1       0.221  10.810  18.808  0.00  0.00    +0.000 C 
ATOM     22  O   UNL     1       0.901  11.365  19.669  0.00  0.00    +0.000 OA
ATOM     23  H   UNL     1       0.060   9.450  17.297  0.00  0.00    +0.000 HD
BRANCH  21  24
ATOM     24  C   UNL     1      -1.164  11.150  18.554  0.00  0.00    +0.000 A 
ATOM     25  N   UNL     1      -1.811  10.902  17.427  0.00  0.00    +0.000 NA
ATOM     26  C   UNL     1      -3.100  11.335  17.646  0.00  0.00    +0.000 A 
ATOM     27  C   UNL     1      -4.217  11.297  16.798  0.00  0.00    +0.000 A 
ATOM     28  C   UNL     1      -5.437  11.800  17.271  0.00  0.00    +0.000 A 
ATOM     29  C   UNL     1      -5.541  12.335  18.557  0.00  0.00    +0.000 A 
ATOM     30  C   UNL     1      -4.435  12.386  19.415  0.00  0.00    +0.000 A 
ATOM     31  C   UNL     1      -3.236  11.874  18.921  0.00  0.00    +0.000 A 
ATOM     32  N   UNL     1      -1.988  11.751  19.472  0.00  0.00    +0.000 N 
ATOM     33  H   UNL     1      -1.705  12.028  20.402  0.00  0.00    +0.000 HD
ENDBRANCH  21  24
ENDBRANCH  19  20
ENDBRANCH   6  19
TORSDOF 6
ENDMDL
MODEL 3
REMARK VINA RESULT:      -8.7      1.018      1.229
REMARK  Name = 
REMARK  6 active torsions:
REMARK  status: ('A' for Active; 'I' for Inactive)
REMARK    1  A    between atoms: C_2  and  C_3
REMARK    2  A    between atoms: C_8  and  O_9
REMARK    3  A    between atoms: O_9  and  C_10
REMARK    4  A    between atoms: C_15  and  C_16
REMARK    5  A    between atoms: C_16  and  N_17
REMARK    6  A    between atoms: C_18  and  C_20
REMARK                            x       y       z     vdW  Elec       q    Type
REMARK                         _______ _______ _______ _____ _____    ______ ____
ROOT
ATOM      1  C   UNL     1       2.773   4.661  18.599  0.00  0.00    +0.000 A 
ATOM      2  C   UNL     1       2.337   4.022  19.765  0.00  0.00    +0.000 A 
ATOM      3 CL   UNL     1       2.382   2.302  19.921  0.00  0.00    +0.000 Cl
ATOM      4  C   UNL     1       1.857   4.769  20.846  0.00  0.00    +0.000 A 
ATOM      5  C   UNL     1       1.827   6.164  20.776  0.00  0.00    +0.000 A 
ATOM      6  C   UNL     1       2.216   6.818  19.602  0.00  0.00    +0.000 A 
ATOM      7  C   UNL     1       2.635   6.051  18.511  0.00  0.00    +0.000 A 
ATOM      8  F   UNL     1       2.932   6.692  17.368  0.00  0.00    +0.000 F 
ENDROOT
BRANCH   1   9
ATOM      9  O   UNL     1       3.279   3.875  17.584  0.00  0.00    +0.000 OA
BRANCH   9  15
ATOM     10  C   UNL     1       6.161   4.290  15.276  0.00  0.00    +0.000 A 
ATOM     11  C   UNL     1       7.146   4.624  16.209  0.00  0.00    +0.000 A 
ATOM     12  C   UNL     1       6.804   4.759  17.553  0.00  0.00    +0.000 A 
ATOM     13 CL   UNL     1       8.009   5.206  18.695  0.00  0.00    +0.000 Cl
ATOM     14  C   UNL     1       5.500   4.519  17.982  0.00  0.00    +0.000 A 
ATOM     15  C   UNL     1       4.523   4.145  17.058  0.00  0.00    +0.000 A 
ATOM     16  C   UNL     1       4.840   4.092  15.696  0.00  0.00    +0.000 A 
BRANCH  10  18
ATOM     17  N   UNL     1       6.799   3.990  12.780  0.00  0.00    +0.000 NA
ATOM     18  C   UNL     1       6.509   4.114  13.896  0.00  0.00    +0.000 C 
ENDBRANCH  10  18
ENDBRANCH   9  15
ENDBRANCH   1   9
BRANCH   6  19
ATOM     19  C   UNL     1       2.269   8.318  19.526  0.00  0.00    +0.000 C 
BRANCH  19  20
ATOM     20  N   UNL     1       1.082   8.853  18.904  0.00  0.00    +0.000 N 
ATOM     21  C   UNL     1       0.417   9.958  19.379  0.00  0.00    +0.000 C 
ATOM     22  O   UNL     1       0.802  10.612  20.345  0.00  0.00    +0.000 OA
ATOM     23  H   UNL     1       0.694   8.417  18.071  0.00  0.00    +0.000 HD
BRANCH  21  24
ATOM     24  C   UNL     1      -0.788  10.274  18.639  0.00  0.00    +0.000 A 
ATOM     25  N   UNL     1      -1.831  10.924  19.129  0.00  0.00    +0.000 NA
ATOM     26  C   UNL     1      -2.708  11.050  18.075  0.00  0.00    +0.000 A 
ATOM     27  C   UNL     1      -3.964  11.672  18.020  0.00  0.00    +0.000 A 
ATOM     28  C   UNL     1      -4.662  11.671  16.806  0.00  0.00    +0.000 A 
ATOM     29  C   UNL     1      -4.126  11.059  15.671  0.00  0.00    +0.000 A 
ATOM     30  C   UNL     1      -2.875  10.429  15.708  0.00  0.00    +0.000 A 
ATOM     31  C   UNL     1      -2.200  10.448  16.928  0.00  0.00    +0.000 A 
ATOM     32  N   UNL     1      -0.983   9.956  17.318  0.00  0.00    +0.000 N 
ATOM     33  H   UNL     1      -0.316   9.461  16.743  0.00  0.00    +0.000 HD
ENDBRANCH  21  24
ENDBRANCH  19  20
ENDBRANCH   6  19
TORSDOF 6
ENDMDL
MODEL 4
REMARK VINA RESULT:      -8.7      1.906      2.304
REMARK  Name = 
REMARK  6 active torsions:
REMARK  status: ('A' for Active; 'I' for Inactive)
REMARK    1  A    between atoms: C_2  and  C_3
REMARK    2  A    between atoms: C_8  and  O_9
REMARK    3  A    between atoms: O_9  and  C_10
REMARK    4  A    between atoms: C_15  and  C_16
REMARK    5  A    between atoms: C_16  and  N_17
REMARK    6  A    between atoms: C_18  and  C_20
REMARK                            x       y       z     vdW  Elec       q    Type
REMARK                         _______ _______ _______ _____ _____    ______ ____
ROOT
ATOM      1  C   UNL     1       2.662   5.153  18.460  0.00  0.00    +0.000 A 
ATOM      2  C   UNL     1       2.393   4.224  19.470  0.00  0.00    +0.000 A 
ATOM      3 CL   UNL     1       2.635   2.531  19.226  0.00  0.00    +0.000 Cl
ATOM      4  C   UNL     1       1.925   4.648  20.718  0.00  0.00    +0.000 A 
ATOM      5  C   UNL     1       1.740   6.010  20.971  0.00  0.00    +0.000 A 
ATOM      6  C   UNL     1       1.961   6.950  19.958  0.00  0.00    +0.000 A 
ATOM      7  C   UNL     1       2.370   6.501  18.699  0.00  0.00    +0.000 A 
ATOM      8  F   UNL     1       2.503   7.409  17.719  0.00  0.00    +0.000 F 
ENDROOT
BRANCH   1   9
ATOM      9  O   UNL     1       3.166   4.679  17.266  0.00  0.00    +0.000 OA
BRANCH   9  15
ATOM     10  C   UNL     1       6.664   5.931  17.221  0.00  0.00    +0.000 A 
ATOM     11  C   UNL     1       7.061   5.435  15.977  0.00  0.00    +0.000 A 
ATOM     12  C   UNL     1       6.178   4.656  15.232  0.00  0.00    +0.000 A 
ATOM     13 CL   UNL     1       6.679   4.017  13.716  0.00  0.00    +0.000 Cl
ATOM     14  C   UNL     1       4.887   4.406  15.695  0.00  0.00    +0.000 A 
ATOM     15  C   UNL     1       4.475   4.934  16.919  0.00  0.00    +0.000 A 
ATOM     16  C   UNL     1       5.385   5.643  17.711  0.00  0.00    +0.000 A 
BRANCH  10  18
ATOM     17  N   UNL     1       8.286   7.421  18.592  0.00  0.00    +0.000 NA
ATOM     18  C   UNL     1       7.553   6.762  17.979  0.00  0.00    +0.000 C 
ENDBRANCH  10  18
ENDBRANCH   9  15
ENDBRANCH   1   9
BRANCH   6  19
ATOM     19  C   UNL     1       1.846   8.425  20.225  0.00  0.00    +0.000 C 
BRANCH  19  20
ATOM     20  N   UNL     1       0.620   8.961  19.684  0.00  0.00    +0.000 N 
ATOM     21  C   UNL     1       0.589   9.976  18.758  0.00  0.00    +0.000 C 
ATOM     22  O   UNL     1       1.600  10.480  18.277  0.00  0.00    +0.000 OA
ATOM     23  H   UNL     1      -0.280   8.592  19.980  0.00  0.00    +0.000 HD
BRANCH  21  24
ATOM     24  C   UNL     1      -0.751  10.403  18.410  0.00  0.00    +0.000 A 
ATOM     25  N   UNL     1      -1.601  10.986  19.238  0.00  0.00    +0.000 NA
ATOM     26  C   UNL     1      -2.715  11.267  18.478  0.00  0.00    +0.000 A 
ATOM     27  C   UNL     1      -3.913  11.901  18.838  0.00  0.00    +0.000 A 
ATOM     28  C   UNL     1      -4.900  12.078  17.860  0.00  0.00    +0.000 A 
ATOM     29  C   UNL     1      -4.703  11.628  16.552  0.00  0.00    +0.000 A 
ATOM     30  C   UNL     1      -3.515  10.988  16.175  0.00  0.00    +0.000 A 
ATOM     31  C   UNL     1      -2.547  10.830  17.167  0.00  0.00    +0.000 A 
ATOM     32  N   UNL     1      -1.295  10.277  17.156  0.00  0.00    +0.000 N 
ATOM     33  H   UNL     1      -0.822   9.863  16.364  0.00  0.00    +0.000 HD
ENDBRANCH  21  24
ENDBRANCH  19  20
ENDBRANCH   6  19
TORSDOF 6
ENDMDL
MODEL 5
REMARK VINA RESULT:      -8.6      1.054      1.618
REMARK  Name = 
REMARK  6 active torsions:
REMARK  status: ('A' for Active; 'I' for Inactive)
REMARK    1  A    between atoms: C_2  and  C_3
REMARK    2  A    between atoms: C_8  and  O_9
REMARK    3  A    between atoms: O_9  and  C_10
REMARK    4  A    between atoms: C_15  and  C_16
REMARK    5  A    between atoms: C_16  and  N_17
REMARK    6  A    between atoms: C_18  and  C_20
REMARK                            x       y       z     vdW  Elec       q    Type
REMARK                         _______ _______ _______ _____ _____    ______ ____
ROOT
ATOM      1  C   UNL     1       2.732   4.559  18.631  0.00  0.00    +0.000 A 
ATOM      2  C   UNL     1       2.196   3.872  19.725  0.00  0.00    +0.000 A 
ATOM      3 CL   UNL     1       2.200   2.145  19.794  0.00  0.00    +0.000 Cl
ATOM      4  C   UNL     1       1.648   4.573  20.804  0.00  0.00    +0.000 A 
ATOM      5  C   UNL     1       1.647   5.970  20.804  0.00  0.00    +0.000 A 
ATOM      6  C   UNL     1       2.137   6.674  19.698  0.00  0.00    +0.000 A 
ATOM      7  C   UNL     1       2.625   5.955  18.604  0.00  0.00    +0.000 A 
ATOM      8  F   UNL     1       3.020   6.645  17.522  0.00  0.00    +0.000 F 
ENDROOT
BRANCH   1   9
ATOM      9  O   UNL     1       3.301   3.814  17.618  0.00  0.00    +0.000 OA
BRANCH   9  15
ATOM     10  C   UNL     1       6.215   4.413  15.391  0.00  0.00    +0.000 A 
ATOM     11  C   UNL     1       7.162   4.767  16.356  0.00  0.00    +0.000 A 
ATOM     12  C   UNL     1       6.783   4.854  17.694  0.00  0.00    +0.000 A 
ATOM     13 CL   UNL     1       7.939   5.325  18.876  0.00  0.00    +0.000 Cl
ATOM     14  C   UNL     1       5.481   4.546  18.085  0.00  0.00    +0.000 A 
ATOM     15  C   UNL     1       4.544   4.152  17.129  0.00  0.00    +0.000 A 
ATOM     16  C   UNL     1       4.895   4.147  15.774  0.00  0.00    +0.000 A 
BRANCH  10  18
ATOM     17  N   UNL     1       6.903   4.172  12.902  0.00  0.00    +0.000 NA
ATOM     18  C   UNL     1       6.603   4.286  14.017  0.00  0.00    +0.000 C 
ENDBRANCH  10  18
ENDBRANCH   9  15
ENDBRANCH   1   9
BRANCH   6  19
ATOM     19  C   UNL     1       2.221   8.175  19.705  0.00  0.00    +0.000 C 
BRANCH  19  20
ATOM     20  N   UNL     1       1.084   8.766  19.042  0.00  0.00    +0.000 N 
ATOM     21  C   UNL     1       0.469   9.913  19.483  0.00  0.00    +0.000 C 
ATOM     22  O   UNL     1       0.864  10.560  20.450  0.00  0.00    +0.000 OA
ATOM     23  H   UNL     1       0.695   8.339  18.204  0.00  0.00    +0.000 HD
BRANCH  21  24
ATOM     24  C   UNL     1      -0.695  10.285  18.705  0.00  0.00    +0.000 A 
ATOM     25  N   UNL     1      -0.901   9.953  17.441  0.00  0.00    +0.000 NA
ATOM     26  C   UNL     1      -2.142  10.462  17.130  0.00  0.00    +0.000 A 
ATOM     27  C   UNL     1      -2.870  10.387  15.933  0.00  0.00    +0.000 A 
ATOM     28  C   UNL     1      -4.135  10.987  15.877  0.00  0.00    +0.000 A 
ATOM     29  C   UNL     1      -4.663  11.653  16.986  0.00  0.00    +0.000 A 
ATOM     30  C   UNL     1      -3.948  11.741  18.188  0.00  0.00    +0.000 A 
ATOM     31  C   UNL     1      -2.695  11.132  18.218  0.00  0.00    +0.000 A 
ATOM     32  N   UNL     1      -1.749  11.010  19.201  0.00  0.00    +0.000 N 
ATOM     33  H   UNL     1      -1.807  11.366  20.145  0.00  0.00    +0.000 HD
ENDBRANCH  21  24
ENDBRANCH  19  20
ENDBRANCH   6  19
TORSDOF 6
ENDMDL
MODEL 6
REMARK VINA RESULT:      -8.6      1.916      2.572
REMARK  Name = 
REMARK  6 active torsions:
REMARK  status: ('A' for Active; 'I' for Inactive)
REMARK    1  A    between atoms: C_2  and  C_3
REMARK    2  A    between atoms: C_8  and  O_9
REMARK    3  A    between atoms: O_9  and  C_10
REMARK    4  A    between atoms: C_15  and  C_16
REMARK    5  A    between atoms: C_16  and  N_17
REMARK    6  A    between atoms: C_18  and  C_20
REMARK                            x       y       z     vdW  Elec       q    Type
REMARK                         _______ _______ _______ _____ _____    ______ ____
ROOT
ATOM      1  C   UNL     1       2.583   4.570  18.520  0.00  0.00    +0.000 A 
ATOM      2  C   UNL     1       2.017   3.789  19.532  0.00  0.00    +0.000 A 
ATOM      3 CL   UNL     1       2.031   2.063  19.453  0.00  0.00    +0.000 Cl
ATOM      4  C   UNL     1       1.428   4.391  20.649  0.00  0.00    +0.000 A 
ATOM      5  C   UNL     1       1.417   5.783  20.770  0.00  0.00    +0.000 A 
ATOM      6  C   UNL     1       1.938   6.582  19.746  0.00  0.00    +0.000 A 
ATOM      7  C   UNL     1       2.467   5.962  18.610  0.00  0.00    +0.000 A 
ATOM      8  F   UNL     1       2.892   6.745  17.605  0.00  0.00    +0.000 F 
ENDROOT
BRANCH   1   9
ATOM      9  O   UNL     1       3.191   3.918  17.466  0.00  0.00    +0.000 OA
BRANCH   9  15
ATOM     10  C   UNL     1       6.809   4.715  17.746  0.00  0.00    +0.000 A 
ATOM     11  C   UNL     1       7.143   4.711  16.390  0.00  0.00    +0.000 A 
ATOM     12  C   UNL     1       6.173   4.385  15.443  0.00  0.00    +0.000 A 
ATOM     13 CL   UNL     1       6.593   4.345  13.776  0.00  0.00    +0.000 Cl
ATOM     14  C   UNL     1       4.864   4.108  15.833  0.00  0.00    +0.000 A 
ATOM     15  C   UNL     1       4.519   4.151  17.185  0.00  0.00    +0.000 A 
ATOM     16  C   UNL     1       5.507   4.393  18.146  0.00  0.00    +0.000 A 
BRANCH  10  18
ATOM     17  N   UNL     1       8.576   5.368  19.529  0.00  0.00    +0.000 NA
ATOM     18  C   UNL     1       7.790   5.083  18.726  0.00  0.00    +0.000 C 
ENDBRANCH  10  18
ENDBRANCH   9  15
ENDBRANCH   1   9
BRANCH   6  19
ATOM     19  C   UNL     1       2.011   8.077  19.884  0.00  0.00    +0.000 C 
BRANCH  19  20
ATOM     20  N   UNL     1       0.922   8.721  19.190  0.00  0.00    +0.000 N 
ATOM     21  C   UNL     1       0.301   9.856  19.654  0.00  0.00    +0.000 C 
ATOM     22  O   UNL     1       0.651  10.447  20.673  0.00  0.00    +0.000 OA
ATOM     23  H   UNL     1       0.573   8.344  18.312  0.00  0.00    +0.000 HD
BRANCH  21  24
ATOM     24  C   UNL     1      -0.811  10.287  18.833  0.00  0.00    +0.000 A 
ATOM     25  N   UNL     1      -0.949  10.027  17.543  0.00  0.00    +0.000 NA
ATOM     26  C   UNL     1      -2.164  10.570  17.190  0.00  0.00    +0.000 A 
ATOM     27  C   UNL     1      -2.823  10.571  15.952  0.00  0.00    +0.000 A 
ATOM     28  C   UNL     1      -4.075  11.194  15.857  0.00  0.00    +0.000 A 
ATOM     29  C   UNL     1      -4.656  11.808  16.969  0.00  0.00    +0.000 A 
ATOM     30  C   UNL     1      -4.011  11.822  18.212  0.00  0.00    +0.000 A 
ATOM     31  C   UNL     1      -2.769  11.191  18.280  0.00  0.00    +0.000 A 
ATOM     32  N   UNL     1      -1.883  11.003  19.307  0.00  0.00    +0.000 N 
ATOM     33  H   UNL     1      -1.990  11.309  20.264  0.00  0.00    +0.000 HD
ENDBRANCH  21  24
ENDBRANCH  19  20
ENDBRANCH   6  19
TORSDOF 6
ENDMDL
MODEL 7
REMARK VINA RESULT:      -8.4      1.844      2.382
REMARK  Name = 
REMARK  6 active torsions:
REMARK  status: ('A' for Active; 'I' for Inactive)
REMARK    1  A    between atoms: C_2  and  C_3
REMARK    2  A    between atoms: C_8  and  O_9
REMARK    3  A    between atoms: O_9  and  C_10
REMARK    4  A    between atoms: C_15  and  C_16
REMARK    5  A    between atoms: C_16  and  N_17
REMARK    6  A    between atoms: C_18  and  C_20
REMARK                            x       y       z     vdW  Elec       q    Type
REMARK                         _______ _______ _______ _____ _____    ______ ____
ROOT
ATOM      1  C   UNL     1       2.594   6.358  18.657  0.00  0.00    +0.000 A 
ATOM      2  C   UNL     1       2.228   6.130  19.988  0.00  0.00    +0.000 A 
ATOM      3 CL   UNL     1       2.467   4.592  20.738  0.00  0.00    +0.000 Cl
ATOM      4  C   UNL     1       1.662   7.155  20.754  0.00  0.00    +0.000 A 
ATOM      5  C   UNL     1       1.474   8.423  20.198  0.00  0.00    +0.000 A 
ATOM      6  C   UNL     1       1.793   8.657  18.855  0.00  0.00    +0.000 A 
ATOM      7  C   UNL     1       2.301   7.603  18.090  0.00  0.00    +0.000 A 
ATOM      8  F   UNL     1       2.528   7.826  16.785  0.00  0.00    +0.000 F 
ENDROOT
BRANCH   1   9
ATOM      9  O   UNL     1       3.191   5.323  17.967  0.00  0.00    +0.000 OA
BRANCH   9  15
ATOM     10  C   UNL     1       6.612   6.553  17.201  0.00  0.00    +0.000 A 
ATOM     11  C   UNL     1       6.894   5.748  16.094  0.00  0.00    +0.000 A 
ATOM     12  C   UNL     1       5.969   4.790  15.685  0.00  0.00    +0.000 A 
ATOM     13 CL   UNL     1       6.332   3.775  14.346  0.00  0.00    +0.000 Cl
ATOM     14  C   UNL     1       4.746   4.659  16.340  0.00  0.00    +0.000 A 
ATOM     15  C   UNL     1       4.444   5.490  17.421  0.00  0.00    +0.000 A 
ATOM     16  C   UNL     1       5.404   6.394  17.890  0.00  0.00    +0.000 A 
BRANCH  10  18
ATOM     17  N   UNL     1       8.309   8.376  17.927  0.00  0.00    +0.000 NA
ATOM     18  C   UNL     1       7.542   7.566  17.608  0.00  0.00    +0.000 C 
ENDBRANCH  10  18
ENDBRANCH   9  15
ENDBRANCH   1   9
BRANCH   6  19
ATOM     19  C   UNL     1       1.676  10.030  18.255  0.00  0.00    +0.000 C 
BRANCH  19  20
ATOM     20  N   UNL     1       0.296  10.439  18.149  0.00  0.00    +0.000 N 
ATOM     21  C   UNL     1      -0.285  11.350  18.998  0.00  0.00    +0.000 C 
ATOM     22  O   UNL     1       0.332  11.929  19.888  0.00  0.00    +0.000 OA
ATOM     23  H   UNL     1      -0.303  10.056  17.421  0.00  0.00    +0.000 HD
BRANCH  21  24
ATOM     24  C   UNL     1      -1.697  11.557  18.750  0.00  0.00    +0.000 A 
ATOM     25  N   UNL     1      -2.337  11.191  17.652  0.00  0.00    +0.000 NA
ATOM     26  C   UNL     1      -3.654  11.527  17.870  0.00  0.00    +0.000 A 
ATOM     27  C   UNL     1      -4.776  11.347  17.047  0.00  0.00    +0.000 A 
ATOM     28  C   UNL     1      -6.027  11.772  17.513  0.00  0.00    +0.000 A 
ATOM     29  C   UNL     1      -6.159  12.370  18.769  0.00  0.00    +0.000 A 
ATOM     30  C   UNL     1      -5.049  12.563  19.602  0.00  0.00    +0.000 A 
ATOM     31  C   UNL     1      -3.818  12.126  19.115  0.00  0.00    +0.000 A 
ATOM     32  N   UNL     1      -2.556  12.140  19.648  0.00  0.00    +0.000 N 
ATOM     33  H   UNL     1      -2.285  12.492  20.556  0.00  0.00    +0.000 HD
ENDBRANCH  21  24
ENDBRANCH  19  20
ENDBRANCH   6  19
TORSDOF 6
ENDMDL
MODEL 8
REMARK VINA RESULT:      -8.4      4.828      9.082
REMARK  Name = 
REMARK  6 active torsions:
REMARK  status: ('A' for Active; 'I' for Inactive)
REMARK    1  A    between atoms: C_2  and  C_3
REMARK    2  A    between atoms: C_8  and  O_9
REMARK    3  A    between atoms: O_9  and  C_10
REMARK    4  A    between atoms: C_15  and  C_16
REMARK    5  A    between atoms: C_16  and  N_17
REMARK    6  A    between atoms: C_18  and  C_20
REMARK                            x       y       z     vdW  Elec       q    Type
REMARK                         _______ _______ _______ _____ _____    ______ ____
ROOT
ATOM      1  C   UNL     1       2.965   6.465  18.574  0.00  0.00    +0.000 A 
ATOM      2  C   UNL     1       3.139   5.441  19.510  0.00  0.00    +0.000 A 
ATOM      3 CL   UNL     1       1.877   4.990  20.600  0.00  0.00    +0.000 Cl
ATOM      4  C   UNL     1       4.350   4.743  19.580  0.00  0.00    +0.000 A 
ATOM      5  C   UNL     1       5.390   5.054  18.701  0.00  0.00    +0.000 A 
ATOM      6  C   UNL     1       5.249   6.106  17.789  0.00  0.00    +0.000 A 
ATOM      7  C   UNL     1       4.054   6.831  17.775  0.00  0.00    +0.000 A 
ATOM      8  F   UNL     1       3.966   7.884  16.947  0.00  0.00    +0.000 F 
ENDROOT
BRANCH   1   9
ATOM      9  O   UNL     1       1.733   7.086  18.521  0.00  0.00    +0.000 OA
BRANCH   9  15
ATOM     10  C   UNL     1       0.954   9.499  21.236  0.00  0.00    +0.000 A 
ATOM     11  C   UNL     1       0.969  10.682  20.493  0.00  0.00    +0.000 A 
ATOM     12  C   UNL     1       1.297  10.640  19.139  0.00  0.00    +0.000 A 
ATOM     13 CL   UNL     1       1.351  12.101  18.233  0.00  0.00    +0.000 Cl
ATOM     14  C   UNL     1       1.564   9.426  18.510  0.00  0.00    +0.000 A 
ATOM     15  C   UNL     1       1.509   8.238  19.241  0.00  0.00    +0.000 A 
ATOM     16  C   UNL     1       1.266   8.282  20.619  0.00  0.00    +0.000 A 
BRANCH  10  18
ATOM     17  N   UNL     1       0.299   9.560  23.746  0.00  0.00    +0.000 NA
ATOM     18  C   UNL     1       0.583   9.527  22.622  0.00  0.00    +0.000 C 
ENDBRANCH  10  18
ENDBRANCH   9  15
ENDBRANCH   1   9
BRANCH   6  19
ATOM     19  C   UNL     1       6.320   6.411  16.779  0.00  0.00    +0.000 C 
BRANCH  19  20
ATOM     20  N   UNL     1       7.026   7.624  17.114  0.00  0.00    +0.000 N 
ATOM     21  C   UNL     1       7.936   7.704  18.141  0.00  0.00    +0.000 C 
ATOM     22  O   UNL     1       8.262   6.741  18.830  0.00  0.00    +0.000 OA
ATOM     23  H   UNL     1       6.868   8.477  16.584  0.00  0.00    +0.000 HD
BRANCH  21  24
ATOM     24  C   UNL     1       8.469   9.036  18.342  0.00  0.00    +0.000 A 
ATOM     25  N   UNL     1       8.234  10.074  17.556  0.00  0.00    +0.000 NA
ATOM     26  C   UNL     1       8.884  11.133  18.150  0.00  0.00    +0.000 A 
ATOM     27  C   UNL     1       8.954  12.479  17.759  0.00  0.00    +0.000 A 
ATOM     28  C   UNL     1       9.683  13.373  18.554  0.00  0.00    +0.000 A 
ATOM     29  C   UNL     1      10.334  12.937  19.711  0.00  0.00    +0.000 A 
ATOM     30  C   UNL     1      10.279  11.597  20.114  0.00  0.00    +0.000 A 
ATOM     31  C   UNL     1       9.543  10.730  19.307  0.00  0.00    +0.000 A 
ATOM     32  N   UNL     1       9.269   9.391  19.399  0.00  0.00    +0.000 N 
ATOM     33  H   UNL     1       9.574   8.758  20.126  0.00  0.00    +0.000 HD
ENDBRANCH  21  24
ENDBRANCH  19  20
ENDBRANCH   6  19
TORSDOF 6
ENDMDL
MODEL 9
REMARK VINA RESULT:      -8.2      4.313     10.653
REMARK  Name = 
REMARK  6 active torsions:
REMARK  status: ('A' for Active; 'I' for Inactive)
REMARK    1  A    between atoms: C_2  and  C_3
REMARK    2  A    between atoms: C_8  and  O_9
REMARK    3  A    between atoms: O_9  and  C_10
REMARK    4  A    between atoms: C_15  and  C_16
REMARK    5  A    between atoms: C_16  and  N_17
REMARK    6  A    between atoms: C_18  and  C_20
REMARK                            x       y       z     vdW  Elec       q    Type
REMARK                         _______ _______ _______ _____ _____    ______ ____
ROOT
ATOM      1  C   UNL     1       0.232  11.733  20.948  0.00  0.00    +0.000 A 
ATOM      2  C   UNL     1       0.201  11.939  19.566  0.00  0.00    +0.000 A 
ATOM      3 CL   UNL     1      -0.163  13.488  18.893  0.00  0.00    +0.000 Cl
ATOM      4  C   UNL     1       0.475  10.887  18.685  0.00  0.00    +0.000 A 
ATOM      5  C   UNL     1       0.800   9.623  19.183  0.00  0.00    +0.000 A 
ATOM      6  C   UNL     1       0.793   9.387  20.563  0.00  0.00    +0.000 A 
ATOM      7  C   UNL     1       0.457  10.436  21.424  0.00  0.00    +0.000 A 
ATOM      8  F   UNL     1       0.380  10.171  22.738  0.00  0.00    +0.000 F 
ENDROOT
BRANCH   1   9
ATOM      9  O   UNL     1      -0.000  12.819  21.767  0.00  0.00    +0.000 OA
BRANCH   9  15
ATOM     10  C   UNL     1      -3.674  12.881  22.321  0.00  0.00    +0.000 A 
ATOM     11  C   UNL     1      -3.710  13.656  23.484  0.00  0.00    +0.000 A 
ATOM     12  C   UNL     1      -2.516  14.073  24.070  0.00  0.00    +0.000 A 
ATOM     13 CL   UNL     1      -2.560  14.995  25.521  0.00  0.00    +0.000 Cl
ATOM     14  C   UNL     1      -1.291  13.765  23.483  0.00  0.00    +0.000 A 
ATOM     15  C   UNL     1      -1.254  13.026  22.300  0.00  0.00    +0.000 A 
ATOM     16  C   UNL     1      -2.443  12.530  21.754  0.00  0.00    +0.000 A 
BRANCH  10  18
ATOM     17  N   UNL     1      -5.877  12.149  21.163  0.00  0.00    +0.000 NA
ATOM     18  C   UNL     1      -4.897  12.476  21.690  0.00  0.00    +0.000 C 
ENDBRANCH  10  18
ENDBRANCH   9  15
ENDBRANCH   1   9
BRANCH   6  19
ATOM     19  C   UNL     1       1.216   8.060  21.129  0.00  0.00    +0.000 C 
BRANCH  19  20
ATOM     20  N   UNL     1       2.176   7.407  20.272  0.00  0.00    +0.000 N 
ATOM     21  C   UNL     1       2.217   6.046  20.089  0.00  0.00    +0.000 C 
ATOM     22  O   UNL     1       1.411   5.273  20.602  0.00  0.00    +0.000 OA
ATOM     23  H   UNL     1       2.868   7.951  19.763  0.00  0.00    +0.000 HD
BRANCH  21  24
ATOM     24  C   UNL     1       3.307   5.605  19.244  0.00  0.00    +0.000 A 
ATOM     25  N   UNL     1       3.173   5.149  18.009  0.00  0.00    +0.000 NA
ATOM     26  C   UNL     1       4.456   4.907  17.570  0.00  0.00    +0.000 A 
ATOM     27  C   UNL     1       4.907   4.435  16.329  0.00  0.00    +0.000 A 
ATOM     28  C   UNL     1       6.285   4.282  16.128  0.00  0.00    +0.000 A 
ATOM     29  C   UNL     1       7.196   4.586  17.143  0.00  0.00    +0.000 A 
ATOM     30  C   UNL     1       6.763   5.053  18.391  0.00  0.00    +0.000 A 
ATOM     31  C   UNL     1       5.387   5.201  18.562  0.00  0.00    +0.000 A 
ATOM     32  N   UNL     1       4.628   5.634  19.616  0.00  0.00    +0.000 N 
ATOM     33  H   UNL     1       4.963   5.949  20.516  0.00  0.00    +0.000 HD
ENDBRANCH  21  24
ENDBRANCH  19  20
ENDBRANCH   6  19
TORSDOF 6
ENDMDL
