MODEL 1
REMARK VINA RESULT:      -8.4      0.000      0.000
REMARK  Name = 
REMARK  5 active torsions:
REMARK  status: ('A' for Active; 'I' for Inactive)
REMARK    1  A    between atoms: C_1  and  C_2
REMARK    2  A    between atoms: N_4  and  C_5
REMARK    3  A    between atoms: N_8  and  C_9
REMARK    4  A    between atoms: C_9  and  C_10
REMARK    5  A    between atoms: C_12  and  C_13
REMARK                            x       y       z     vdW  Elec       q    Type
REMARK                         _______ _______ _______ _____ _____    ______ ____
ROOT
ATOM      1  C   UNL     1       3.265   4.007  17.097  0.00  0.00    +0.000 C 
ENDROOT
BRANCH   1   2
ATOM      2  C   UNL     1       2.770   4.407  18.479  0.00  0.00    +0.000 A 
ATOM      3  C   UNL     1       2.580   3.384  19.421  0.00  0.00    +0.000 A 
ATOM      4  C   UNL     1       2.036   3.688  20.661  0.00  0.00    +0.000 A 
ATOM      5  C   UNL     1       1.721   2.606  21.649  0.00  0.00    +0.000 C 
ATOM      6  N   UNL     1       1.741   4.949  21.031  0.00  0.00    +0.000 NA
ATOM      7  C   UNL     1       1.948   5.946  20.156  0.00  0.00    +0.000 A 
ATOM      8  C   UNL     1       1.656   7.239  20.571  0.00  0.00    +0.000 A 
ATOM      9  C   UNL     1       1.826   8.342  19.734  0.00  0.00    +0.000 A 
ATOM     10  C   UNL     1       2.279   8.149  18.436  0.00  0.00    +0.000 A 
ATOM     11  C   UNL     1       2.576   6.860  17.994  0.00  0.00    +0.000 A 
ATOM     12  C   UNL     1       2.440   5.737  18.845  0.00  0.00    +0.000 A 
ENDBRANCH   1   2
BRANCH   1  16
ATOM     13  C   UNL     1       7.444   5.045  16.728  0.00  0.00    +0.000 C 
ATOM     14  C   UNL     1       6.703   4.448  15.534  0.00  0.00    +0.000 C 
ATOM     15  C   UNL     1       5.186   4.529  15.692  0.00  0.00    +0.000 C 
ATOM     16  N   UNL     1       4.730   3.903  16.937  0.00  0.00    +0.000 NA
ATOM     17  C   UNL     1       5.392   4.494  18.116  0.00  0.00    +0.000 C 
ATOM     18  C   UNL     1       6.919   4.433  18.028  0.00  0.00    +0.000 C 
BRANCH  13  22
ATOM     19  C   UNL     1       7.569   8.732  17.627  0.00  0.00    +0.000 C 
ATOM     20  C   UNL     1       7.784   7.256  17.807  0.00  0.00    +0.000 C 
ATOM     21  O   UNL     1       8.297   6.784  18.816  0.00  0.00    +0.000 OA
ATOM     22  N   UNL     1       7.352   6.504  16.735  0.00  0.00    +0.000 N 
ATOM     23  H   UNL     1       6.777   6.961  16.042  0.00  0.00    +0.000 HD
ENDBRANCH  13  22
ENDBRANCH   1  16
TORSDOF 3
ENDMDL
MODEL 2
REMARK VINA RESULT:      -7.7      3.431      6.194
REMARK  Name = 
REMARK  5 active torsions:
REMARK  status: ('A' for Active; 'I' for Inactive)
REMARK    1  A    between atoms: C_1  and  C_2
REMARK    2  A    between atoms: N_4  and  C_5
REMARK    3  A    between atoms: N_8  and  C_9
REMARK    4  A    between atoms: C_9  and  C_10
REMARK    5  A    between atoms: C_12  and  C_13
REMARK                            x       y       z     vdW  Elec       q    Type
REMARK                         _______ _______ _______ _____ _____    ______ ____
ROOT
ATOM      1  C   UNL     1       2.723   6.977  19.711  0.00  0.00    +0.000 C 
ENDROOT
BRANCH   1   2
ATOM      2  C   UNL     1       2.803   5.733  18.840  0.00  0.00    +0.000 A 
ATOM      3  C   UNL     1       1.883   4.703  19.092  0.00  0.00    +0.000 A 
ATOM      4  C   UNL     1       1.981   3.511  18.390  0.00  0.00    +0.000 A 
ATOM      5  C   UNL     1       1.083   2.354  18.711  0.00  0.00    +0.000 C 
ATOM      6  N   UNL     1       2.890   3.319  17.415  0.00  0.00    +0.000 NA
ATOM      7  C   UNL     1       3.757   4.305  17.134  0.00  0.00    +0.000 A 
ATOM      8  C   UNL     1       4.669   4.089  16.109  0.00  0.00    +0.000 A 
ATOM      9  C   UNL     1       5.617   5.045  15.748  0.00  0.00    +0.000 A 
ATOM     10  C   UNL     1       5.674   6.245  16.443  0.00  0.00    +0.000 A 
ATOM     11  C   UNL     1       4.772   6.485  17.479  0.00  0.00    +0.000 A 
ATOM     12  C   UNL     1       3.782   5.536  17.832  0.00  0.00    +0.000 A 
ENDBRANCH   1   2
BRANCH   1  16
ATOM     13  C   UNL     1       0.364  10.552  19.138  0.00  0.00    +0.000 C 
ATOM     14  C   UNL     1       0.099   9.655  20.345  0.00  0.00    +0.000 C 
ATOM     15  C   UNL     1       1.256   8.697  20.621  0.00  0.00    +0.000 C 
ATOM     16  N   UNL     1       1.586   7.884  19.446  0.00  0.00    +0.000 NA
ATOM     17  C   UNL     1       1.897   8.724  18.274  0.00  0.00    +0.000 C 
ATOM     18  C   UNL     1       0.770   9.701  17.933  0.00  0.00    +0.000 C 
BRANCH  13  22
ATOM     19  C   UNL     1       2.400  13.749  19.371  0.00  0.00    +0.000 C 
ATOM     20  C   UNL     1       1.253  12.865  18.969  0.00  0.00    +0.000 C 
ATOM     21  O   UNL     1       0.319  13.269  18.285  0.00  0.00    +0.000 OA
ATOM     22  N   UNL     1       1.361  11.576  19.445  0.00  0.00    +0.000 N 
ATOM     23  H   UNL     1       2.250  11.291  19.833  0.00  0.00    +0.000 HD
ENDBRANCH  13  22
ENDBRANCH   1  16
TORSDOF 3
ENDMDL
MODEL 3
REMARK VINA RESULT:      -7.7      3.403      6.469
REMARK  Name = 
REMARK  5 active torsions:
REMARK  status: ('A' for Active; 'I' for Inactive)
REMARK    1  A    between atoms: C_1  and  C_2
REMARK    2  A    between atoms: N_4  and  C_5
REMARK    3  A    between atoms: N_8  and  C_9
REMARK    4  A    between atoms: C_9  and  C_10
REMARK    5  A    between atoms: C_12  and  C_13
REMARK                            x       y       z     vdW  Elec       q    Type
REMARK                         _______ _______ _______ _____ _____    ______ ____
ROOT
ATOM      1  C   UNL     1       2.817   6.989  19.876  0.00  0.00    +0.000 C 
ENDROOT
BRANCH   1   2
ATOM      2  C   UNL     1       3.120   5.855  18.908  0.00  0.00    +0.000 A 
ATOM      3  C   UNL     1       4.107   6.078  17.935  0.00  0.00    +0.000 A 
ATOM      4  C   UNL     1       4.348   5.112  16.970  0.00  0.00    +0.000 A 
ATOM      5  C   UNL     1       5.318   5.363  15.855  0.00  0.00    +0.000 C 
ATOM      6  N   UNL     1       3.715   3.923  16.964  0.00  0.00    +0.000 NA
ATOM      7  C   UNL     1       2.793   3.676  17.907  0.00  0.00    +0.000 A 
ATOM      8  C   UNL     1       2.172   2.434  17.891  0.00  0.00    +0.000 A 
ATOM      9  C   UNL     1       1.192   2.084  18.821  0.00  0.00    +0.000 A 
ATOM     10  C   UNL     1       0.802   3.007  19.781  0.00  0.00    +0.000 A 
ATOM     11  C   UNL     1       1.408   4.263  19.815  0.00  0.00    +0.000 A 
ATOM     12  C   UNL     1       2.428   4.617  18.900  0.00  0.00    +0.000 A 
ENDBRANCH   1   2
BRANCH   1  16
ATOM     13  C   UNL     1       0.372  10.463  19.088  0.00  0.00    +0.000 C 
ATOM     14  C   UNL     1       0.077   9.589  20.304  0.00  0.00    +0.000 C 
ATOM     15  C   UNL     1       1.249   8.679  20.664  0.00  0.00    +0.000 C 
ATOM     16  N   UNL     1       1.666   7.848  19.530  0.00  0.00    +0.000 NA
ATOM     17  C   UNL     1       2.008   8.669  18.352  0.00  0.00    +0.000 C 
ATOM     18  C   UNL     1       0.867   9.597  17.929  0.00  0.00    +0.000 C 
BRANCH  13  22
ATOM     19  C   UNL     1       2.248  13.751  19.387  0.00  0.00    +0.000 C 
ATOM     20  C   UNL     1       1.146  12.820  18.966  0.00  0.00    +0.000 C 
ATOM     21  O   UNL     1       0.193  13.191  18.290  0.00  0.00    +0.000 OA
ATOM     22  N   UNL     1       1.318  11.528  19.416  0.00  0.00    +0.000 N 
ATOM     23  H   UNL     1       2.220  11.280  19.800  0.00  0.00    +0.000 HD
ENDBRANCH  13  22
ENDBRANCH   1  16
TORSDOF 3
ENDMDL
MODEL 4
REMARK VINA RESULT:      -7.7      0.923      2.801
REMARK  Name = 
REMARK  5 active torsions:
REMARK  status: ('A' for Active; 'I' for Inactive)
REMARK    1  A    between atoms: C_1  and  C_2
REMARK    2  A    between atoms: N_4  and  C_5
REMARK    3  A    between atoms: N_8  and  C_9
REMARK    4  A    between atoms: C_9  and  C_10
REMARK    5  A    between atoms: C_12  and  C_13
REMARK                            x       y       z     vdW  Elec       q    Type
REMARK                         _______ _______ _______ _____ _____    ______ ____
ROOT
ATOM      1  C   UNL     1       3.636   3.773  16.751  0.00  0.00    +0.000 C 
ENDROOT
BRANCH   1   2
ATOM      2  C   UNL     1       3.080   4.658  17.856  0.00  0.00    +0.000 A 
ATOM      3  C   UNL     1       2.909   6.022  17.571  0.00  0.00    +0.000 A 
ATOM      4  C   UNL     1       2.499   6.886  18.575  0.00  0.00    +0.000 A 
ATOM      5  C   UNL     1       2.411   8.362  18.332  0.00  0.00    +0.000 C 
ATOM      6  N   UNL     1       2.188   6.457  19.814  0.00  0.00    +0.000 NA
ATOM      7  C   UNL     1       2.311   5.151  20.097  0.00  0.00    +0.000 A 
ATOM      8  C   UNL     1       1.962   4.733  21.375  0.00  0.00    +0.000 A 
ATOM      9  C   UNL     1       2.065   3.399  21.772  0.00  0.00    +0.000 A 
ATOM     10  C   UNL     1       2.551   2.457  20.876  0.00  0.00    +0.000 A 
ATOM     11  C   UNL     1       2.912   2.852  19.588  0.00  0.00    +0.000 A 
ATOM     12  C   UNL     1       2.779   4.196  19.163  0.00  0.00    +0.000 A 
ENDBRANCH   1   2
BRANCH   1  16
ATOM     13  C   UNL     1       7.671   5.271  16.372  0.00  0.00    +0.000 C 
ATOM     14  C   UNL     1       6.949   4.721  15.144  0.00  0.00    +0.000 C 
ATOM     15  C   UNL     1       5.438   4.628  15.353  0.00  0.00    +0.000 C 
ATOM     16  N   UNL     1       5.096   3.838  16.540  0.00  0.00    +0.000 NA
ATOM     17  C   UNL     1       5.741   4.375  17.753  0.00  0.00    +0.000 C 
ATOM     18  C   UNL     1       7.261   4.483  17.617  0.00  0.00    +0.000 C 
BRANCH  13  22
ATOM     19  C   UNL     1       7.403   8.832  17.662  0.00  0.00    +0.000 C 
ATOM     20  C   UNL     1       7.760   7.373  17.692  0.00  0.00    +0.000 C 
ATOM     21  O   UNL     1       8.291   6.845  18.663  0.00  0.00    +0.000 OA
ATOM     22  N   UNL     1       7.434   6.705  16.531  0.00  0.00    +0.000 N 
ATOM     23  H   UNL     1       6.833   7.177  15.869  0.00  0.00    +0.000 HD
ENDBRANCH  13  22
ENDBRANCH   1  16
TORSDOF 3
ENDMDL
MODEL 5
REMARK VINA RESULT:      -7.7      3.596      6.833
REMARK  Name = 
REMARK  5 active torsions:
REMARK  status: ('A' for Active; 'I' for Inactive)
REMARK    1  A    between atoms: C_1  and  C_2
REMARK    2  A    between atoms: N_4  and  C_5
REMARK    3  A    between atoms: N_8  and  C_9
REMARK    4  A    between atoms: C_9  and  C_10
REMARK    5  A    between atoms: C_12  and  C_13
REMARK                            x       y       z     vdW  Elec       q    Type
REMARK                         _______ _______ _______ _____ _____    ______ ____
ROOT
ATOM      1  C   UNL     1       2.192   6.900  20.182  0.00  0.00    +0.000 C 
ENDROOT
BRANCH   1   2
ATOM      2  C   UNL     1       2.733   5.922  19.151  0.00  0.00    +0.000 A 
ATOM      3  C   UNL     1       3.750   6.375  18.297  0.00  0.00    +0.000 A 
ATOM      4  C   UNL     1       4.206   5.553  17.277  0.00  0.00    +0.000 A 
ATOM      5  C   UNL     1       5.214   6.046  16.283  0.00  0.00    +0.000 C 
ATOM      6  N   UNL     1       3.756   4.294  17.109  0.00  0.00    +0.000 NA
ATOM      7  C   UNL     1       2.809   3.829  17.937  0.00  0.00    +0.000 A 
ATOM      8  C   UNL     1       2.379   2.521  17.756  0.00  0.00    +0.000 A 
ATOM      9  C   UNL     1       1.391   1.948  18.557  0.00  0.00    +0.000 A 
ATOM     10  C   UNL     1       0.796   2.708  19.554  0.00  0.00    +0.000 A 
ATOM     11  C   UNL     1       1.207   4.025  19.754  0.00  0.00    +0.000 A 
ATOM     12  C   UNL     1       2.232   4.607  18.971  0.00  0.00    +0.000 A 
ENDBRANCH   1   2
BRANCH   1  16
ATOM     13  C   UNL     1       0.461  10.523  18.584  0.00  0.00    +0.000 C 
ATOM     14  C   UNL     1       1.569   9.809  17.814  0.00  0.00    +0.000 C 
ATOM     15  C   UNL     1       1.770   8.370  18.285  0.00  0.00    +0.000 C 
ATOM     16  N   UNL     1       2.024   8.296  19.727  0.00  0.00    +0.000 NA
ATOM     17  C   UNL     1       0.943   8.934  20.502  0.00  0.00    +0.000 C 
ATOM     18  C   UNL     1       0.698  10.387  20.088  0.00  0.00    +0.000 C 
BRANCH  13  22
ATOM     19  C   UNL     1      -3.171  10.180  17.528  0.00  0.00    +0.000 C 
ATOM     20  C   UNL     1      -1.889  10.887  17.868  0.00  0.00    +0.000 C 
ATOM     21  O   UNL     1      -1.787  12.109  17.850  0.00  0.00    +0.000 OA
ATOM     22  N   UNL     1      -0.859  10.031  18.193  0.00  0.00    +0.000 N 
ATOM     23  H   UNL     1      -1.090   9.062  18.363  0.00  0.00    +0.000 HD
ENDBRANCH  13  22
ENDBRANCH   1  16
TORSDOF 3
ENDMDL
MODEL 6
REMARK VINA RESULT:      -7.6      3.641      6.357
REMARK  Name = 
REMARK  5 active torsions:
REMARK  status: ('A' for Active; 'I' for Inactive)
REMARK    1  A    between atoms: C_1  and  C_2
REMARK    2  A    between atoms: N_4  and  C_5
REMARK    3  A    between atoms: N_8  and  C_9
REMARK    4  A    between atoms: C_9  and  C_10
REMARK    5  A    between atoms: C_12  and  C_13
REMARK                            x       y       z     vdW  Elec       q    Type
REMARK                         _______ _______ _______ _____ _____    ______ ____
ROOT
ATOM      1  C   UNL     1       2.552   7.470  20.050  0.00  0.00    +0.000 C 
ENDROOT
BRANCH   1   2
ATOM      2  C   UNL     1       2.570   5.992  19.690  0.00  0.00    +0.000 A 
ATOM      3  C   UNL     1       1.853   5.114  20.517  0.00  0.00    +0.000 A 
ATOM      4  C   UNL     1       1.920   3.748  20.287  0.00  0.00    +0.000 A 
ATOM      5  C   UNL     1       1.254   2.777  21.216  0.00  0.00    +0.000 C 
ATOM      6  N   UNL     1       2.599   3.223  19.249  0.00  0.00    +0.000 NA
ATOM      7  C   UNL     1       3.262   4.048  18.425  0.00  0.00    +0.000 A 
ATOM      8  C   UNL     1       3.935   3.482  17.349  0.00  0.00    +0.000 A 
ATOM      9  C   UNL     1       4.662   4.253  16.442  0.00  0.00    +0.000 A 
ATOM     10  C   UNL     1       4.742   5.627  16.625  0.00  0.00    +0.000 A 
ATOM     11  C   UNL     1       4.079   6.219  17.699  0.00  0.00    +0.000 A 
ATOM     12  C   UNL     1       3.309   5.452  18.606  0.00  0.00    +0.000 A 
ENDBRANCH   1   2
BRANCH   1  16
ATOM     13  C   UNL     1      -0.107  10.704  18.979  0.00  0.00    +0.000 C 
ATOM     14  C   UNL     1      -0.336   9.932  20.277  0.00  0.00    +0.000 C 
ATOM     15  C   UNL     1       0.893   9.131  20.701  0.00  0.00    +0.000 C 
ATOM     16  N   UNL     1       1.348   8.223  19.643  0.00  0.00    +0.000 NA
ATOM     17  C   UNL     1       1.627   8.948  18.389  0.00  0.00    +0.000 C 
ATOM     18  C   UNL     1       0.428   9.763  17.899  0.00  0.00    +0.000 C 
BRANCH  13  22
ATOM     19  C   UNL     1       1.533  14.129  18.997  0.00  0.00    +0.000 C 
ATOM     20  C   UNL     1       0.478  13.101  18.698  0.00  0.00    +0.000 C 
ATOM     21  O   UNL     1      -0.544  13.369  18.075  0.00  0.00    +0.000 OA
ATOM     22  N   UNL     1       0.777  11.850  19.191  0.00  0.00    +0.000 N 
ATOM     23  H   UNL     1       1.719  11.686  19.521  0.00  0.00    +0.000 HD
ENDBRANCH  13  22
ENDBRANCH   1  16
TORSDOF 3
ENDMDL
MODEL 7
REMARK VINA RESULT:      -7.6      7.294     10.580
REMARK  Name = 
REMARK  5 active torsions:
REMARK  status: ('A' for Active; 'I' for Inactive)
REMARK    1  A    between atoms: C_1  and  C_2
REMARK    2  A    between atoms: N_4  and  C_5
REMARK    3  A    between atoms: N_8  and  C_9
REMARK    4  A    between atoms: C_9  and  C_10
REMARK    5  A    between atoms: C_12  and  C_13
REMARK                            x       y       z     vdW  Elec       q    Type
REMARK                         _______ _______ _______ _____ _____    ______ ____
ROOT
ATOM      1  C   UNL     1      -1.425  11.893  18.828  0.00  0.00    +0.000 C 
ENDROOT
BRANCH   1   2
ATOM      2  C   UNL     1      -0.423  10.863  19.327  0.00  0.00    +0.000 A 
ATOM      3  C   UNL     1       0.415  10.260  18.376  0.00  0.00    +0.000 A 
ATOM      4  C   UNL     1       1.275   9.244  18.768  0.00  0.00    +0.000 A 
ATOM      5  C   UNL     1       2.105   8.507  17.760  0.00  0.00    +0.000 C 
ATOM      6  N   UNL     1       1.392   8.851  20.051  0.00  0.00    +0.000 NA
ATOM      7  C   UNL     1       0.624   9.440  20.981  0.00  0.00    +0.000 A 
ATOM      8  C   UNL     1       0.781   9.032  22.299  0.00  0.00    +0.000 A 
ATOM      9  C   UNL     1       0.024   9.574  23.338  0.00  0.00    +0.000 A 
ATOM     10  C   UNL     1      -0.936  10.535  23.052  0.00  0.00    +0.000 A 
ATOM     11  C   UNL     1      -1.115  10.960  21.736  0.00  0.00    +0.000 A 
ATOM     12  C   UNL     1      -0.329  10.442  20.678  0.00  0.00    +0.000 A 
ENDBRANCH   1   2
BRANCH   1  16
ATOM     13  C   UNL     1      -5.561  11.686  17.594  0.00  0.00    +0.000 C 
ATOM     14  C   UNL     1      -5.214  11.705  19.080  0.00  0.00    +0.000 C 
ATOM     15  C   UNL     1      -3.789  12.190  19.338  0.00  0.00    +0.000 C 
ATOM     16  N   UNL     1      -2.799  11.403  18.595  0.00  0.00    +0.000 NA
ATOM     17  C   UNL     1      -3.079  11.406  17.147  0.00  0.00    +0.000 C 
ATOM     18  C   UNL     1      -4.491  10.917  16.817  0.00  0.00    +0.000 C 
BRANCH  13  22
ATOM     19  C   UNL     1      -6.926  15.084  16.591  0.00  0.00    +0.000 C 
ATOM     20  C   UNL     1      -6.933  13.723  17.229  0.00  0.00    +0.000 C 
ATOM     21  O   UNL     1      -7.907  13.282  17.828  0.00  0.00    +0.000 OA
ATOM     22  N   UNL     1      -5.747  13.039  17.073  0.00  0.00    +0.000 N 
ATOM     23  H   UNL     1      -5.077  13.404  16.409  0.00  0.00    +0.000 HD
ENDBRANCH  13  22
ENDBRANCH   1  16
TORSDOF 3
ENDMDL
MODEL 8
REMARK VINA RESULT:      -7.5      3.526      6.625
REMARK  Name = 
REMARK  5 active torsions:
REMARK  status: ('A' for Active; 'I' for Inactive)
REMARK    1  A    between atoms: C_1  and  C_2
REMARK    2  A    between atoms: N_4  and  C_5
REMARK    3  A    between atoms: N_8  and  C_9
REMARK    4  A    between atoms: C_9  and  C_10
REMARK    5  A    between atoms: C_12  and  C_13
REMARK                            x       y       z     vdW  Elec       q    Type
REMARK                         _______ _______ _______ _____ _____    ______ ____
ROOT
ATOM      1  C   UNL     1       3.126   7.739  18.115  0.00  0.00    +0.000 C 
ENDROOT
BRANCH   1   2
ATOM      2  C   UNL     1       3.227   6.262  17.764  0.00  0.00    +0.000 A 
ATOM      3  C   UNL     1       2.164   5.430  18.146  0.00  0.00    +0.000 A 
ATOM      4  C   UNL     1       2.256   4.062  17.936  0.00  0.00    +0.000 A 
ATOM      5  C   UNL     1       1.186   3.134  18.429  0.00  0.00    +0.000 C 
ATOM      6  N   UNL     1       3.306   3.496  17.312  0.00  0.00    +0.000 NA
ATOM      7  C   UNL     1       4.318   4.279  16.907  0.00  0.00    +0.000 A 
ATOM      8  C   UNL     1       5.378   3.673  16.245  0.00  0.00    +0.000 A 
ATOM      9  C   UNL     1       6.482   4.397  15.795  0.00  0.00    +0.000 A 
ATOM     10  C   UNL     1       6.543   5.764  16.031  0.00  0.00    +0.000 A 
ATOM     11  C   UNL     1       5.493   6.396  16.696  0.00  0.00    +0.000 A 
ATOM     12  C   UNL     1       4.352   5.677  17.127  0.00  0.00    +0.000 A 
ENDBRANCH   1   2
BRANCH   1  16
ATOM     13  C   UNL     1       0.038  10.164  19.921  0.00  0.00    +0.000 C 
ATOM     14  C   UNL     1       0.497   8.882  20.613  0.00  0.00    +0.000 C 
ATOM     15  C   UNL     1       1.839   8.384  20.081  0.00  0.00    +0.000 C 
ATOM     16  N   UNL     1       1.818   8.196  18.627  0.00  0.00    +0.000 NA
ATOM     17  C   UNL     1       1.426   9.434  17.926  0.00  0.00    +0.000 C 
ATOM     18  C   UNL     1       0.079   9.981  18.403  0.00  0.00    +0.000 C 
BRANCH  13  22
ATOM     19  C   UNL     1       1.235  13.575  21.084  0.00  0.00    +0.000 C 
ATOM     20  C   UNL     1       0.244  12.513  20.701  0.00  0.00    +0.000 C 
ATOM     21  O   UNL     1      -0.967  12.710  20.705  0.00  0.00    +0.000 OA
ATOM     22  N   UNL     1       0.829  11.314  20.354  0.00  0.00    +0.000 N 
ATOM     23  H   UNL     1       1.828  11.307  20.200  0.00  0.00    +0.000 HD
ENDBRANCH  13  22
ENDBRANCH   1  16
TORSDOF 3
ENDMDL
MODEL 9
REMARK VINA RESULT:      -7.5      3.433      6.517
REMARK  Name = 
REMARK  5 active torsions:
REMARK  status: ('A' for Active; 'I' for Inactive)
REMARK    1  A    between atoms: C_1  and  C_2
REMARK    2  A    between atoms: N_4  and  C_5
REMARK    3  A    between atoms: N_8  and  C_9
REMARK    4  A    between atoms: C_9  and  C_10
REMARK    5  A    between atoms: C_12  and  C_13
REMARK                            x       y       z     vdW  Elec       q    Type
REMARK                         _______ _______ _______ _____ _____    ______ ____
ROOT
ATOM      1  C   UNL     1       2.278   6.820  17.971  0.00  0.00    +0.000 C 
ENDROOT
BRANCH   1   2
ATOM      2  C   UNL     1       3.235   5.784  18.542  0.00  0.00    +0.000 A 
ATOM      3  C   UNL     1       4.590   5.890  18.192  0.00  0.00    +0.000 A 
ATOM      4  C   UNL     1       5.483   4.913  18.608  0.00  0.00    +0.000 A 
ATOM      5  C   UNL     1       6.914   4.938  18.162  0.00  0.00    +0.000 C 
ATOM      6  N   UNL     1       5.114   3.888  19.400  0.00  0.00    +0.000 NA
ATOM      7  C   UNL     1       3.829   3.788  19.776  0.00  0.00    +0.000 A 
ATOM      8  C   UNL     1       3.481   2.735  20.611  0.00  0.00    +0.000 A 
ATOM      9  C   UNL     1       2.172   2.537  21.048  0.00  0.00    +0.000 A 
ATOM     10  C   UNL     1       1.173   3.402  20.621  0.00  0.00    +0.000 A 
ATOM     11  C   UNL     1       1.496   4.465  19.778  0.00  0.00    +0.000 A 
ATOM     12  C   UNL     1       2.827   4.696  19.357  0.00  0.00    +0.000 A 
ENDBRANCH   1   2
BRANCH   1  16
ATOM     13  C   UNL     1       0.891  10.551  19.652  0.00  0.00    +0.000 C 
ATOM     14  C   UNL     1       1.834  10.565  18.452  0.00  0.00    +0.000 C 
ATOM     15  C   UNL     1       1.891   9.214  17.741  0.00  0.00    +0.000 C 
ATOM     16  N   UNL     1       2.251   8.127  18.658  0.00  0.00    +0.000 NA
ATOM     17  C   UNL     1       1.325   8.056  19.805  0.00  0.00    +0.000 C 
ATOM     18  C   UNL     1       1.232   9.377  20.571  0.00  0.00    +0.000 C 
BRANCH  13  22
ATOM     19  C   UNL     1      -2.633  11.433  18.546  0.00  0.00    +0.000 C 
ATOM     20  C   UNL     1      -1.200  11.677  18.926  0.00  0.00    +0.000 C 
ATOM     21  O   UNL     1      -0.710  12.801  18.957  0.00  0.00    +0.000 OA
ATOM     22  N   UNL     1      -0.508  10.524  19.229  0.00  0.00    +0.000 N 
ATOM     23  H   UNL     1      -1.042   9.676  19.358  0.00  0.00    +0.000 HD
ENDBRANCH  13  22
ENDBRANCH   1  16
TORSDOF 3
ENDMDL
