MODEL 1
REMARK VINA RESULT:      -7.1      0.000      0.000
REMARK  Name = 
REMARK  7 active torsions:
REMARK  status: ('A' for Active; 'I' for Inactive)
REMARK    1  A    between atoms: C_1  and  N_2
REMARK    2  A    between atoms: N_2  and  C_3
REMARK    3  A    between atoms: N_2  and  C_18
REMARK    4  A    between atoms: C_3  and  C_4
REMARK    5  A    between atoms: C_4  and  C_5
REMARK    6  A    between atoms: C_5  and  N_6
REMARK    7  A    between atoms: C_18  and  C_19
REMARK                            x       y       z     vdW  Elec       q    Type
REMARK                         _______ _______ _______ _____ _____    ______ ____
ROOT
ATOM      1  C   UNL     1       5.186   3.857  18.259  0.00  0.00    +0.000 C 
ENDROOT
BRANCH   1   2
ATOM      2  N   UNL     1       4.222   3.832  19.360  0.00  0.00    +0.000 N 
ATOM      3  C   UNL     1       4.238   2.677  20.147  0.00  0.00    +0.000 C 
ATOM      4  O   UNL     1       5.237   1.958  20.248  0.00  0.00    +0.000 OA
ATOM      5  C   UNL     1       2.908   2.205  20.675  0.00  0.00    +0.000 C 
ATOM      6  S   UNL     1       2.059   3.450  21.638  0.00  0.00    +0.000 S 
ATOM      7  C   UNL     1       2.259   4.825  20.525  0.00  0.00    +0.000 A 
ATOM      8  C   UNL     1       1.346   5.881  20.688  0.00  0.00    +0.000 A 
ATOM      9  C   UNL     1       1.453   7.040  19.927  0.00  0.00    +0.000 A 
ATOM     10  C   UNL     1       2.488   7.149  19.008  0.00  0.00    +0.000 A 
ATOM     11 BR   UNL     1       2.691   8.747  18.017  0.00  0.00    +0.000 Br
ATOM     12  C   UNL     1       3.389   6.097  18.819  0.00  0.00    +0.000 A 
ATOM     13  C   UNL     1       3.283   4.903  19.556  0.00  0.00    +0.000 A 
ENDBRANCH   1   2
BRANCH   1  14
ATOM     14  C   UNL     1       6.460   4.649  18.539  0.00  0.00    +0.000 C 
BRANCH  14  15
ATOM     15  C   UNL     1       7.380   4.594  17.308  0.00  0.00    +0.000 C 
BRANCH  15  17
ATOM     16  C   UNL     1       7.318   6.992  17.283  0.00  0.00    +0.000 C 
ATOM     17  N   UNL     1       7.316   5.784  16.442  0.00  0.00    +0.000 NA
BRANCH  17  18
ATOM     18  C   UNL     1       6.121   5.761  15.573  0.00  0.00    +0.000 C 
BRANCH  18  19
ATOM     19  C   UNL     1       6.335   5.001  14.280  0.00  0.00    +0.000 A 
ATOM     20  C   UNL     1       5.409   4.029  13.869  0.00  0.00    +0.000 A 
ATOM     21  C   UNL     1       5.611   3.321  12.690  0.00  0.00    +0.000 A 
ATOM     22  C   UNL     1       6.738   3.573  11.909  0.00  0.00    +0.000 A 
ATOM     23  C   UNL     1       7.661   4.546  12.303  0.00  0.00    +0.000 A 
ATOM     24  C   UNL     1       7.458   5.257  13.482  0.00  0.00    +0.000 A 
ENDBRANCH  18  19
ENDBRANCH  17  18
ENDBRANCH  15  17
ENDBRANCH  14  15
ENDBRANCH   1  14
TORSDOF 6
ENDMDL
MODEL 2
REMARK VINA RESULT:      -7.1      1.478      3.340
REMARK  Name = 
REMARK  7 active torsions:
REMARK  status: ('A' for Active; 'I' for Inactive)
REMARK    1  A    between atoms: C_1  and  N_2
REMARK    2  A    between atoms: N_2  and  C_3
REMARK    3  A    between atoms: N_2  and  C_18
REMARK    4  A    between atoms: C_3  and  C_4
REMARK    5  A    between atoms: C_4  and  C_5
REMARK    6  A    between atoms: C_5  and  N_6
REMARK    7  A    between atoms: C_18  and  C_19
REMARK                            x       y       z     vdW  Elec       q    Type
REMARK                         _______ _______ _______ _____ _____    ______ ____
ROOT
ATOM      1  C   UNL     1       2.970   3.493  17.006  0.00  0.00    +0.000 C 
ENDROOT
BRANCH   1   2
ATOM      2  N   UNL     1       2.745   3.607  18.447  0.00  0.00    +0.000 N 
ATOM      3  C   UNL     1       2.812   2.407  19.162  0.00  0.00    +0.000 C 
ATOM      4  O   UNL     1       3.454   1.432  18.760  0.00  0.00    +0.000 OA
ATOM      5  C   UNL     1       1.866   2.264  20.326  0.00  0.00    +0.000 C 
ATOM      6  S   UNL     1       2.043   3.571  21.533  0.00  0.00    +0.000 S 
ATOM      7  C   UNL     1       2.050   4.959  20.418  0.00  0.00    +0.000 A 
ATOM      8  C   UNL     1       1.713   6.200  20.985  0.00  0.00    +0.000 A 
ATOM      9  C   UNL     1       1.760   7.367  20.229  0.00  0.00    +0.000 A 
ATOM     10  C   UNL     1       2.160   7.292  18.902  0.00  0.00    +0.000 A 
ATOM     11 BR   UNL     1       2.299   8.877  17.880  0.00  0.00    +0.000 Br
ATOM     12  C   UNL     1       2.476   6.062  18.319  0.00  0.00    +0.000 A 
ATOM     13  C   UNL     1       2.408   4.865  19.056  0.00  0.00    +0.000 A 
ENDBRANCH   1   2
BRANCH   1  14
ATOM     14  C   UNL     1       4.433   3.567  16.577  0.00  0.00    +0.000 C 
BRANCH  14  15
ATOM     15  C   UNL     1       4.713   4.939  15.941  0.00  0.00    +0.000 C 
BRANCH  15  17
ATOM     16  C   UNL     1       5.378   3.947  13.861  0.00  0.00    +0.000 C 
ATOM     17  N   UNL     1       5.748   4.928  14.894  0.00  0.00    +0.000 NA
BRANCH  17  18
ATOM     18  C   UNL     1       7.082   4.617  15.448  0.00  0.00    +0.000 C 
BRANCH  18  19
ATOM     19  C   UNL     1       7.418   5.420  16.688  0.00  0.00    +0.000 A 
ATOM     20  C   UNL     1       7.678   4.769  17.904  0.00  0.00    +0.000 A 
ATOM     21  C   UNL     1       7.974   5.505  19.046  0.00  0.00    +0.000 A 
ATOM     22  C   UNL     1       8.010   6.898  18.987  0.00  0.00    +0.000 A 
ATOM     23  C   UNL     1       7.764   7.556  17.780  0.00  0.00    +0.000 A 
ATOM     24  C   UNL     1       7.471   6.819  16.636  0.00  0.00    +0.000 A 
ENDBRANCH  18  19
ENDBRANCH  17  18
ENDBRANCH  15  17
ENDBRANCH  14  15
ENDBRANCH   1  14
TORSDOF 6
ENDMDL
MODEL 3
REMARK VINA RESULT:      -6.9      3.940      8.193
REMARK  Name = 
REMARK  7 active torsions:
REMARK  status: ('A' for Active; 'I' for Inactive)
REMARK    1  A    between atoms: C_1  and  N_2
REMARK    2  A    between atoms: N_2  and  C_3
REMARK    3  A    between atoms: N_2  and  C_18
REMARK    4  A    between atoms: C_3  and  C_4
REMARK    5  A    between atoms: C_4  and  C_5
REMARK    6  A    between atoms: C_5  and  N_6
REMARK    7  A    between atoms: C_18  and  C_19
REMARK                            x       y       z     vdW  Elec       q    Type
REMARK                         _______ _______ _______ _____ _____    ______ ____
ROOT
ATOM      1  C   UNL     1       3.553   7.323  18.322  0.00  0.00    +0.000 C 
ENDROOT
BRANCH   1   2
ATOM      2  N   UNL     1       4.192   6.156  17.714  0.00  0.00    +0.000 N 
ATOM      3  C   UNL     1       5.206   6.437  16.794  0.00  0.00    +0.000 C 
ATOM      4  O   UNL     1       5.848   7.491  16.818  0.00  0.00    +0.000 OA
ATOM      5  C   UNL     1       5.318   5.508  15.612  0.00  0.00    +0.000 C 
ATOM      6  S   UNL     1       5.541   3.799  16.089  0.00  0.00    +0.000 S 
ATOM      7  C   UNL     1       4.257   3.699  17.317  0.00  0.00    +0.000 A 
ATOM      8  C   UNL     1       3.792   2.406  17.612  0.00  0.00    +0.000 A 
ATOM      9  C   UNL     1       2.846   2.198  18.610  0.00  0.00    +0.000 A 
ATOM     10  C   UNL     1       2.373   3.288  19.327  0.00  0.00    +0.000 A 
ATOM     11 BR   UNL     1       1.141   3.015  20.735  0.00  0.00    +0.000 Br
ATOM     12  C   UNL     1       2.809   4.582  19.029  0.00  0.00    +0.000 A 
ATOM     13  C   UNL     1       3.744   4.821  18.004  0.00  0.00    +0.000 A 
ENDBRANCH   1   2
BRANCH   1  14
ATOM     14  C   UNL     1       2.352   7.870  17.555  0.00  0.00    +0.000 C 
BRANCH  14  15
ATOM     15  C   UNL     1       2.138   9.348  17.921  0.00  0.00    +0.000 C 
BRANCH  15  17
ATOM     16  C   UNL     1      -0.203   9.822  17.704  0.00  0.00    +0.000 C 
ATOM     17  N   UNL     1       0.896   9.621  18.662  0.00  0.00    +0.000 NA
BRANCH  17  18
ATOM     18  C   UNL     1       1.035  10.798  19.544  0.00  0.00    +0.000 C 
BRANCH  18  19
ATOM     19  C   UNL     1       0.329  10.637  20.875  0.00  0.00    +0.000 A 
ATOM     20  C   UNL     1       0.259   9.377  21.491  0.00  0.00    +0.000 A 
ATOM     21  C   UNL     1      -0.400   9.225  22.706  0.00  0.00    +0.000 A 
ATOM     22  C   UNL     1      -0.998  10.326  23.317  0.00  0.00    +0.000 A 
ATOM     23  C   UNL     1      -0.926  11.586  22.719  0.00  0.00    +0.000 A 
ATOM     24  C   UNL     1      -0.263  11.739  21.504  0.00  0.00    +0.000 A 
ENDBRANCH  18  19
ENDBRANCH  17  18
ENDBRANCH  15  17
ENDBRANCH  14  15
ENDBRANCH   1  14
TORSDOF 6
ENDMDL
MODEL 4
REMARK VINA RESULT:      -6.9      1.107      1.676
REMARK  Name = 
REMARK  7 active torsions:
REMARK  status: ('A' for Active; 'I' for Inactive)
REMARK    1  A    between atoms: C_1  and  N_2
REMARK    2  A    between atoms: N_2  and  C_3
REMARK    3  A    between atoms: N_2  and  C_18
REMARK    4  A    between atoms: C_3  and  C_4
REMARK    5  A    between atoms: C_4  and  C_5
REMARK    6  A    between atoms: C_5  and  N_6
REMARK    7  A    between atoms: C_18  and  C_19
REMARK                            x       y       z     vdW  Elec       q    Type
REMARK                         _______ _______ _______ _____ _____    ______ ____
ROOT
ATOM      1  C   UNL     1       2.972   3.453  17.095  0.00  0.00    +0.000 C 
ENDROOT
BRANCH   1   2
ATOM      2  N   UNL     1       2.711   3.600  18.528  0.00  0.00    +0.000 N 
ATOM      3  C   UNL     1       2.735   2.414  19.267  0.00  0.00    +0.000 C 
ATOM      4  O   UNL     1       3.366   1.418  18.901  0.00  0.00    +0.000 OA
ATOM      5  C   UNL     1       1.755   2.313  20.408  0.00  0.00    +0.000 C 
ATOM      6  S   UNL     1       1.928   3.640  21.594  0.00  0.00    +0.000 S 
ATOM      7  C   UNL     1       1.994   5.005  20.453  0.00  0.00    +0.000 A 
ATOM      8  C   UNL     1       1.668   6.264  20.987  0.00  0.00    +0.000 A 
ATOM      9  C   UNL     1       1.760   7.414  20.210  0.00  0.00    +0.000 A 
ATOM     10  C   UNL     1       2.193   7.305  18.895  0.00  0.00    +0.000 A 
ATOM     11 BR   UNL     1       2.392   8.866  17.847  0.00  0.00    +0.000 Br
ATOM     12  C   UNL     1       2.498   6.057  18.345  0.00  0.00    +0.000 A 
ATOM     13  C   UNL     1       2.385   4.876  19.103  0.00  0.00    +0.000 A 
ENDBRANCH   1   2
BRANCH   1  14
ATOM     14  C   UNL     1       4.420   3.132  16.736  0.00  0.00    +0.000 C 
BRANCH  14  15
ATOM     15  C   UNL     1       5.363   4.035  17.547  0.00  0.00    +0.000 C 
BRANCH  15  17
ATOM     16  C   UNL     1       7.523   5.053  17.780  0.00  0.00    +0.000 C 
ATOM     17  N   UNL     1       6.571   4.465  16.823  0.00  0.00    +0.000 NA
BRANCH  17  18
ATOM     18  C   UNL     1       6.250   5.432  15.753  0.00  0.00    +0.000 C 
BRANCH  18  19
ATOM     19  C   UNL     1       6.520   4.897  14.361  0.00  0.00    +0.000 A 
ATOM     20  C   UNL     1       7.611   5.376  13.619  0.00  0.00    +0.000 A 
ATOM     21  C   UNL     1       7.853   4.896  12.337  0.00  0.00    +0.000 A 
ATOM     22  C   UNL     1       7.008   3.937  11.781  0.00  0.00    +0.000 A 
ATOM     23  C   UNL     1       5.925   3.445  12.514  0.00  0.00    +0.000 A 
ATOM     24  C   UNL     1       5.684   3.923  13.799  0.00  0.00    +0.000 A 
ENDBRANCH  18  19
ENDBRANCH  17  18
ENDBRANCH  15  17
ENDBRANCH  14  15
ENDBRANCH   1  14
TORSDOF 6
ENDMDL
MODEL 5
REMARK VINA RESULT:      -6.9      0.231      1.011
REMARK  Name = 
REMARK  7 active torsions:
REMARK  status: ('A' for Active; 'I' for Inactive)
REMARK    1  A    between atoms: C_1  and  N_2
REMARK    2  A    between atoms: N_2  and  C_3
REMARK    3  A    between atoms: N_2  and  C_18
REMARK    4  A    between atoms: C_3  and  C_4
REMARK    5  A    between atoms: C_4  and  C_5
REMARK    6  A    between atoms: C_5  and  N_6
REMARK    7  A    between atoms: C_18  and  C_19
REMARK                            x       y       z     vdW  Elec       q    Type
REMARK                         _______ _______ _______ _____ _____    ______ ____
ROOT
ATOM      1  C   UNL     1       5.075   4.128  18.099  0.00  0.00    +0.000 C 
ENDROOT
BRANCH   1   2
ATOM      2  N   UNL     1       4.156   4.076  19.237  0.00  0.00    +0.000 N 
ATOM      3  C   UNL     1       4.208   2.904  19.998  0.00  0.00    +0.000 C 
ATOM      4  O   UNL     1       5.214   2.188  20.043  0.00  0.00    +0.000 OA
ATOM      5  C   UNL     1       2.903   2.413  20.568  0.00  0.00    +0.000 C 
ATOM      6  S   UNL     1       2.087   3.633  21.590  0.00  0.00    +0.000 S 
ATOM      7  C   UNL     1       2.236   5.032  20.500  0.00  0.00    +0.000 A 
ATOM      8  C   UNL     1       1.327   6.080  20.722  0.00  0.00    +0.000 A 
ATOM      9  C   UNL     1       1.398   7.257  19.983  0.00  0.00    +0.000 A 
ATOM     10  C   UNL     1       2.395   7.390  19.026  0.00  0.00    +0.000 A 
ATOM     11 BR   UNL     1       2.552   9.010  18.064  0.00  0.00    +0.000 Br
ATOM     12  C   UNL     1       3.292   6.347  18.779  0.00  0.00    +0.000 A 
ATOM     13  C   UNL     1       3.221   5.137  19.494  0.00  0.00    +0.000 A 
ENDBRANCH   1   2
BRANCH   1  14
ATOM     14  C   UNL     1       6.478   4.631  18.430  0.00  0.00    +0.000 C 
BRANCH  14  15
ATOM     15  C   UNL     1       7.342   4.617  17.158  0.00  0.00    +0.000 C 
BRANCH  15  17
ATOM     16  C   UNL     1       7.379   7.002  17.412  0.00  0.00    +0.000 C 
ATOM     17  N   UNL     1       7.389   5.900  16.437  0.00  0.00    +0.000 NA
BRANCH  17  18
ATOM     18  C   UNL     1       6.261   6.035  15.492  0.00  0.00    +0.000 C 
BRANCH  18  19
ATOM     19  C   UNL     1       6.376   5.125  14.286  0.00  0.00    +0.000 A 
ATOM     20  C   UNL     1       7.447   5.270  13.390  0.00  0.00    +0.000 A 
ATOM     21  C   UNL     1       7.546   4.445  12.275  0.00  0.00    +0.000 A 
ATOM     22  C   UNL     1       6.579   3.468  12.042  0.00  0.00    +0.000 A 
ATOM     23  C   UNL     1       5.515   3.308  12.934  0.00  0.00    +0.000 A 
ATOM     24  C   UNL     1       5.416   4.132  14.051  0.00  0.00    +0.000 A 
ENDBRANCH  18  19
ENDBRANCH  17  18
ENDBRANCH  15  17
ENDBRANCH  14  15
ENDBRANCH   1  14
TORSDOF 6
ENDMDL
MODEL 6
REMARK VINA RESULT:      -6.9      4.394      7.773
REMARK  Name = 
REMARK  7 active torsions:
REMARK  status: ('A' for Active; 'I' for Inactive)
REMARK    1  A    between atoms: C_1  and  N_2
REMARK    2  A    between atoms: N_2  and  C_3
REMARK    3  A    between atoms: N_2  and  C_18
REMARK    4  A    between atoms: C_3  and  C_4
REMARK    5  A    between atoms: C_4  and  C_5
REMARK    6  A    between atoms: C_5  and  N_6
REMARK    7  A    between atoms: C_18  and  C_19
REMARK                            x       y       z     vdW  Elec       q    Type
REMARK                         _______ _______ _______ _____ _____    ______ ____
ROOT
ATOM      1  C   UNL     1       3.673   7.327  18.449  0.00  0.00    +0.000 C 
ENDROOT
BRANCH   1   2
ATOM      2  N   UNL     1       4.261   6.175  17.765  0.00  0.00    +0.000 N 
ATOM      3  C   UNL     1       5.257   6.475  16.831  0.00  0.00    +0.000 C 
ATOM      4  O   UNL     1       5.930   7.509  16.890  0.00  0.00    +0.000 OA
ATOM      5  C   UNL     1       5.310   5.606  15.601  0.00  0.00    +0.000 C 
ATOM      6  S   UNL     1       5.496   3.869  15.983  0.00  0.00    +0.000 S 
ATOM      7  C   UNL     1       4.244   3.741  17.242  0.00  0.00    +0.000 A 
ATOM      8  C   UNL     1       3.750   2.448  17.485  0.00  0.00    +0.000 A 
ATOM      9  C   UNL     1       2.826   2.215  18.498  0.00  0.00    +0.000 A 
ATOM     10  C   UNL     1       2.405   3.280  19.282  0.00  0.00    +0.000 A 
ATOM     11 BR   UNL     1       1.204   2.968  20.709  0.00  0.00    +0.000 Br
ATOM     12  C   UNL     1       2.870   4.575  19.037  0.00  0.00    +0.000 A 
ATOM     13  C   UNL     1       3.783   4.840  17.999  0.00  0.00    +0.000 A 
ENDBRANCH   1   2
BRANCH   1  14
ATOM     14  C   UNL     1       2.560   8.033  17.678  0.00  0.00    +0.000 C 
BRANCH  14  15
ATOM     15  C   UNL     1       1.648   8.782  18.663  0.00  0.00    +0.000 C 
BRANCH  15  17
ATOM     16  C   UNL     1       2.268  11.033  18.113  0.00  0.00    +0.000 C 
ATOM     17  N   UNL     1       1.150  10.077  18.172  0.00  0.00    +0.000 NA
BRANCH  17  18
ATOM     18  C   UNL     1       0.065  10.603  19.025  0.00  0.00    +0.000 C 
BRANCH  18  19
ATOM     19  C   UNL     1      -1.282  10.635  18.332  0.00  0.00    +0.000 A 
ATOM     20  C   UNL     1      -1.523   9.815  17.218  0.00  0.00    +0.000 A 
ATOM     21  C   UNL     1      -2.754   9.852  16.572  0.00  0.00    +0.000 A 
ATOM     22  C   UNL     1      -3.755  10.708  17.029  0.00  0.00    +0.000 A 
ATOM     23  C   UNL     1      -3.530  11.521  18.143  0.00  0.00    +0.000 A 
ATOM     24  C   UNL     1      -2.298  11.482  18.791  0.00  0.00    +0.000 A 
ENDBRANCH  18  19
ENDBRANCH  17  18
ENDBRANCH  15  17
ENDBRANCH  14  15
ENDBRANCH   1  14
TORSDOF 6
ENDMDL
MODEL 7
REMARK VINA RESULT:      -6.8      2.888      7.179
REMARK  Name = 
REMARK  7 active torsions:
REMARK  status: ('A' for Active; 'I' for Inactive)
REMARK    1  A    between atoms: C_1  and  N_2
REMARK    2  A    between atoms: N_2  and  C_3
REMARK    3  A    between atoms: N_2  and  C_18
REMARK    4  A    between atoms: C_3  and  C_4
REMARK    5  A    between atoms: C_4  and  C_5
REMARK    6  A    between atoms: C_5  and  N_6
REMARK    7  A    between atoms: C_18  and  C_19
REMARK                            x       y       z     vdW  Elec       q    Type
REMARK                         _______ _______ _______ _____ _____    ______ ____
ROOT
ATOM      1  C   UNL     1       3.415   3.182  17.568  0.00  0.00    +0.000 C 
ENDROOT
BRANCH   1   2
ATOM      2  N   UNL     1       4.762   3.745  17.670  0.00  0.00    +0.000 N 
ATOM      3  C   UNL     1       5.222   3.972  18.970  0.00  0.00    +0.000 C 
ATOM      4  O   UNL     1       4.790   3.347  19.944  0.00  0.00    +0.000 OA
ATOM      5  C   UNL     1       6.090   5.187  19.175  0.00  0.00    +0.000 C 
ATOM      6  S   UNL     1       7.540   5.190  18.129  0.00  0.00    +0.000 S 
ATOM      7  C   UNL     1       6.753   4.775  16.587  0.00  0.00    +0.000 A 
ATOM      8  C   UNL     1       7.464   5.121  15.425  0.00  0.00    +0.000 A 
ATOM      9  C   UNL     1       6.984   4.777  14.165  0.00  0.00    +0.000 A 
ATOM     10  C   UNL     1       5.793   4.070  14.069  0.00  0.00    +0.000 A 
ATOM     11 BR   UNL     1       5.164   3.531  12.369  0.00  0.00    +0.000 Br
ATOM     12  C   UNL     1       5.065   3.738  15.215  0.00  0.00    +0.000 A 
ATOM     13  C   UNL     1       5.516   4.101  16.498  0.00  0.00    +0.000 A 
ENDBRANCH   1   2
BRANCH   1  14
ATOM     14  C   UNL     1       2.298   4.212  17.420  0.00  0.00    +0.000 C 
BRANCH  14  15
ATOM     15  C   UNL     1       2.164   5.014  18.726  0.00  0.00    +0.000 C 
BRANCH  15  17
ATOM     16  C   UNL     1       3.304   6.790  17.586  0.00  0.00    +0.000 C 
ATOM     17  N   UNL     1       2.245   6.474  18.558  0.00  0.00    +0.000 NA
BRANCH  17  18
ATOM     18  C   UNL     1       2.501   7.157  19.843  0.00  0.00    +0.000 C 
BRANCH  18  19
ATOM     19  C   UNL     1       1.496   8.248  20.153  0.00  0.00    +0.000 A 
ATOM     20  C   UNL     1       0.842   8.274  21.395  0.00  0.00    +0.000 A 
ATOM     21  C   UNL     1      -0.090   9.267  21.676  0.00  0.00    +0.000 A 
ATOM     22  C   UNL     1      -0.381  10.241  20.722  0.00  0.00    +0.000 A 
ATOM     23  C   UNL     1       0.271  10.230  19.486  0.00  0.00    +0.000 A 
ATOM     24  C   UNL     1       1.207   9.238  19.206  0.00  0.00    +0.000 A 
ENDBRANCH  18  19
ENDBRANCH  17  18
ENDBRANCH  15  17
ENDBRANCH  14  15
ENDBRANCH   1  14
TORSDOF 6
ENDMDL
MODEL 8
REMARK VINA RESULT:      -6.8      2.915      7.215
REMARK  Name = 
REMARK  7 active torsions:
REMARK  status: ('A' for Active; 'I' for Inactive)
REMARK    1  A    between atoms: C_1  and  N_2
REMARK    2  A    between atoms: N_2  and  C_3
REMARK    3  A    between atoms: N_2  and  C_18
REMARK    4  A    between atoms: C_3  and  C_4
REMARK    5  A    between atoms: C_4  and  C_5
REMARK    6  A    between atoms: C_5  and  N_6
REMARK    7  A    between atoms: C_18  and  C_19
REMARK                            x       y       z     vdW  Elec       q    Type
REMARK                         _______ _______ _______ _____ _____    ______ ____
ROOT
ATOM      1  C   UNL     1       3.311   3.233  17.497  0.00  0.00    +0.000 C 
ENDROOT
BRANCH   1   2
ATOM      2  N   UNL     1       4.686   3.722  17.599  0.00  0.00    +0.000 N 
ATOM      3  C   UNL     1       5.172   3.884  18.900  0.00  0.00    +0.000 C 
ATOM      4  O   UNL     1       4.719   3.253  19.859  0.00  0.00    +0.000 OA
ATOM      5  C   UNL     1       6.105   5.045  19.130  0.00  0.00    +0.000 C 
ATOM      6  S   UNL     1       7.542   5.005  18.066  0.00  0.00    +0.000 S 
ATOM      7  C   UNL     1       6.717   4.679  16.522  0.00  0.00    +0.000 A 
ATOM      8  C   UNL     1       7.431   5.024  15.362  0.00  0.00    +0.000 A 
ATOM      9  C   UNL     1       6.920   4.744  14.099  0.00  0.00    +0.000 A 
ATOM     10  C   UNL     1       5.693   4.103  13.997  0.00  0.00    +0.000 A 
ATOM     11 BR   UNL     1       5.017   3.651  12.290  0.00  0.00    +0.000 Br
ATOM     12  C   UNL     1       4.961   3.775  15.142  0.00  0.00    +0.000 A 
ATOM     13  C   UNL     1       5.445   4.074  16.429  0.00  0.00    +0.000 A 
ENDBRANCH   1   2
BRANCH   1  14
ATOM     14  C   UNL     1       2.245   4.325  17.435  0.00  0.00    +0.000 C 
BRANCH  14  15
ATOM     15  C   UNL     1       2.246   5.119  18.752  0.00  0.00    +0.000 C 
BRANCH  15  17
ATOM     16  C   UNL     1       3.369   6.941  17.669  0.00  0.00    +0.000 C 
ATOM     17  N   UNL     1       2.274   6.581  18.584  0.00  0.00    +0.000 NA
BRANCH  17  18
ATOM     18  C   UNL     1       2.433   7.275  19.879  0.00  0.00    +0.000 C 
BRANCH  18  19
ATOM     19  C   UNL     1       1.421   8.382  20.094  0.00  0.00    +0.000 A 
ATOM     20  C   UNL     1       1.184   9.330  19.087  0.00  0.00    +0.000 A 
ATOM     21  C   UNL     1       0.265  10.354  19.288  0.00  0.00    +0.000 A 
ATOM     22  C   UNL     1      -0.424  10.444  20.496  0.00  0.00    +0.000 A 
ATOM     23  C   UNL     1      -0.205   9.500  21.502  0.00  0.00    +0.000 A 
ATOM     24  C   UNL     1       0.713   8.473  21.300  0.00  0.00    +0.000 A 
ENDBRANCH  18  19
ENDBRANCH  17  18
ENDBRANCH  15  17
ENDBRANCH  14  15
ENDBRANCH   1  14
TORSDOF 6
ENDMDL
MODEL 9
REMARK VINA RESULT:      -6.7      5.332      7.085
REMARK  Name = 
REMARK  7 active torsions:
REMARK  status: ('A' for Active; 'I' for Inactive)
REMARK    1  A    between atoms: C_1  and  N_2
REMARK    2  A    between atoms: N_2  and  C_3
REMARK    3  A    between atoms: N_2  and  C_18
REMARK    4  A    between atoms: C_3  and  C_4
REMARK    5  A    between atoms: C_4  and  C_5
REMARK    6  A    between atoms: C_5  and  N_6
REMARK    7  A    between atoms: C_18  and  C_19
REMARK                            x       y       z     vdW  Elec       q    Type
REMARK                         _______ _______ _______ _____ _____    ______ ____
ROOT
ATOM      1  C   UNL     1       1.156  10.630  18.692  0.00  0.00    +0.000 C 
ENDROOT
BRANCH   1   2
ATOM      2  N   UNL     1       0.078  11.297  19.422  0.00  0.00    +0.000 N 
ATOM      3  C   UNL     1       0.422  11.787  20.685  0.00  0.00    +0.000 C 
ATOM      4  O   UNL     1       1.582  12.080  20.988  0.00  0.00    +0.000 OA
ATOM      5  C   UNL     1      -0.643  11.711  21.749  0.00  0.00    +0.000 C 
ATOM      6  S   UNL     1      -2.153  12.550  21.286  0.00  0.00    +0.000 S 
ATOM      7  C   UNL     1      -2.332  11.881  19.646  0.00  0.00    +0.000 A 
ATOM      8  C   UNL     1      -3.628  11.929  19.105  0.00  0.00    +0.000 A 
ATOM      9  C   UNL     1      -3.873  11.506  17.802  0.00  0.00    +0.000 A 
ATOM     10  C   UNL     1      -2.813  11.048  17.033  0.00  0.00    +0.000 A 
ATOM     11 BR   UNL     1      -3.117  10.538  15.237  0.00  0.00    +0.000 Br
ATOM     12  C   UNL     1      -1.523  10.974  17.565  0.00  0.00    +0.000 A 
ATOM     13  C   UNL     1      -1.256  11.368  18.890  0.00  0.00    +0.000 A 
ENDBRANCH   1   2
BRANCH   1  14
ATOM     14  C   UNL     1       1.355   9.158  19.044  0.00  0.00    +0.000 C 
BRANCH  14  15
ATOM     15  C   UNL     1       2.022   8.433  17.863  0.00  0.00    +0.000 C 
BRANCH  15  17
ATOM     16  C   UNL     1       2.290   6.797  19.597  0.00  0.00    +0.000 C 
ATOM     17  N   UNL     1       2.631   7.137  18.206  0.00  0.00    +0.000 NA
BRANCH  17  18
ATOM     18  C   UNL     1       4.097   7.159  18.023  0.00  0.00    +0.000 C 
BRANCH  18  19
ATOM     19  C   UNL     1       4.605   6.054  17.119  0.00  0.00    +0.000 A 
ATOM     20  C   UNL     1       5.183   6.365  15.878  0.00  0.00    +0.000 A 
ATOM     21  C   UNL     1       5.637   5.352  15.041  0.00  0.00    +0.000 A 
ATOM     22  C   UNL     1       5.517   4.019  15.432  0.00  0.00    +0.000 A 
ATOM     23  C   UNL     1       4.953   3.698  16.669  0.00  0.00    +0.000 A 
ATOM     24  C   UNL     1       4.500   4.712  17.508  0.00  0.00    +0.000 A 
ENDBRANCH  18  19
ENDBRANCH  17  18
ENDBRANCH  15  17
ENDBRANCH  14  15
ENDBRANCH   1  14
TORSDOF 6
ENDMDL
