MODEL 1
REMARK VINA RESULT:      -8.2      0.000      0.000
REMARK  Name = 
REMARK  5 active torsions:
REMARK  status: ('A' for Active; 'I' for Inactive)
REMARK    1  A    between atoms: C_1  and  O_2
REMARK    2  A    between atoms: O_2  and  C_3
REMARK    3  A    between atoms: C_6  and  C_7
REMARK    4  A    between atoms: N_19  and  C_20
REMARK    5  A    between atoms: C_22  and  C_23
REMARK                            x       y       z     vdW  Elec       q    Type
REMARK                         _______ _______ _______ _____ _____    ______ ____
ROOT
ATOM      1  C   UNL     1       2.358   6.983  19.322  0.00  0.00    +0.000 A 
ATOM      2  N   UNL     1       3.157   7.130  18.274  0.00  0.00    +0.000 NA
ATOM      3  C   UNL     1       3.589   5.865  17.913  0.00  0.00    +0.000 A 
ATOM      4  C   UNL     1       4.479   5.433  16.888  0.00  0.00    +0.000 A 
ATOM      5  C   UNL     1       5.104   6.348  16.018  0.00  0.00    +0.000 A 
ATOM      6  C   UNL     1       5.973   5.887  15.023  0.00  0.00    +0.000 A 
ATOM      7  C   UNL     1       6.227   4.525  14.888  0.00  0.00    +0.000 A 
ATOM      8  C   UNL     1       5.612   3.608  15.741  0.00  0.00    +0.000 A 
ATOM      9  C   UNL     1       4.741   4.044  16.750  0.00  0.00    +0.000 A 
ATOM     10  C   UNL     1       4.134   3.125  17.614  0.00  0.00    +0.000 A 
ATOM     11  C   UNL     1       3.267   3.539  18.626  0.00  0.00    +0.000 A 
ATOM     12  C   UNL     1       3.015   4.913  18.744  0.00  0.00    +0.000 A 
ATOM     13  N   UNL     1       2.218   5.632  19.603  0.00  0.00    +0.000 N 
ATOM     14  C   UNL     1       1.361   5.026  20.596  0.00  0.00    +0.000 C 
ENDROOT
BRANCH   1  18
ATOM     15  C   UNL     1       0.537  10.250  21.478  0.00  0.00    +0.000 A 
ATOM     16  C   UNL     1       1.004   9.127  22.153  0.00  0.00    +0.000 A 
ATOM     17  C   UNL     1       1.626   8.091  21.457  0.00  0.00    +0.000 A 
ATOM     18  C   UNL     1       1.719   8.094  20.061  0.00  0.00    +0.000 A 
ATOM     19  C   UNL     1       1.212   9.213  19.383  0.00  0.00    +0.000 A 
ATOM     20  C   UNL     1       0.632  10.301  20.078  0.00  0.00    +0.000 A 
ATOM     21  C   UNL     1       0.124  11.495  19.317  0.00  0.00    +0.000 C 
BRANCH  15  23
ATOM     22  C   UNL     1      -1.090  11.007  23.007  0.00  0.00    +0.000 C 
ATOM     23  O   UNL     1      -0.016  11.327  22.123  0.00  0.00    +0.000 OA
ENDBRANCH  15  23
ENDBRANCH   1  18
TORSDOF 2
ENDMDL
MODEL 2
REMARK VINA RESULT:      -8.0      3.122      8.013
REMARK  Name = 
REMARK  5 active torsions:
REMARK  status: ('A' for Active; 'I' for Inactive)
REMARK    1  A    between atoms: C_1  and  O_2
REMARK    2  A    between atoms: O_2  and  C_3
REMARK    3  A    between atoms: C_6  and  C_7
REMARK    4  A    between atoms: N_19  and  C_20
REMARK    5  A    between atoms: C_22  and  C_23
REMARK                            x       y       z     vdW  Elec       q    Type
REMARK                         _______ _______ _______ _____ _____    ______ ____
ROOT
ATOM      1  C   UNL     1       1.716   7.541  20.001  0.00  0.00    +0.000 A 
ATOM      2  N   UNL     1       0.985   8.047  20.984  0.00  0.00    +0.000 NA
ATOM      3  C   UNL     1       0.711   9.362  20.651  0.00  0.00    +0.000 A 
ATOM      4  C   UNL     1      -0.002  10.379  21.348  0.00  0.00    +0.000 A 
ATOM      5  C   UNL     1      -0.579  10.145  22.612  0.00  0.00    +0.000 A 
ATOM      6  C   UNL     1      -1.272  11.168  23.267  0.00  0.00    +0.000 A 
ATOM      7  C   UNL     1      -1.393  12.423  22.678  0.00  0.00    +0.000 A 
ATOM      8  C   UNL     1      -0.829  12.669  21.426  0.00  0.00    +0.000 A 
ATOM      9  C   UNL     1      -0.126  11.662  20.749  0.00  0.00    +0.000 A 
ATOM     10  C   UNL     1       0.451  11.911  19.499  0.00  0.00    +0.000 A 
ATOM     11  C   UNL     1       1.157  10.924  18.811  0.00  0.00    +0.000 A 
ATOM     12  C   UNL     1       1.264   9.663  19.414  0.00  0.00    +0.000 A 
ATOM     13  N   UNL     1       1.864   8.495  19.006  0.00  0.00    +0.000 N 
ATOM     14  C   UNL     1       2.501   8.330  17.719  0.00  0.00    +0.000 C 
ENDROOT
BRANCH   1  18
ATOM     15  C   UNL     1       3.367   3.552  19.986  0.00  0.00    +0.000 A 
ATOM     16  C   UNL     1       4.001   4.585  19.302  0.00  0.00    +0.000 A 
ATOM     17  C   UNL     1       3.485   5.880  19.341  0.00  0.00    +0.000 A 
ATOM     18  C   UNL     1       2.275   6.172  19.981  0.00  0.00    +0.000 A 
ATOM     19  C   UNL     1       1.622   5.117  20.637  0.00  0.00    +0.000 A 
ATOM     20  C   UNL     1       2.162   3.809  20.659  0.00  0.00    +0.000 A 
ATOM     21  C   UNL     1       1.445   2.711  21.396  0.00  0.00    +0.000 C 
BRANCH  15  23
ATOM     22  C   UNL     1       3.801   1.555  18.809  0.00  0.00    +0.000 C 
ATOM     23  O   UNL     1       3.873   2.278  20.039  0.00  0.00    +0.000 OA
ENDBRANCH  15  23
ENDBRANCH   1  18
TORSDOF 2
ENDMDL
MODEL 3
REMARK VINA RESULT:      -8.0      0.664      1.504
REMARK  Name = 
REMARK  5 active torsions:
REMARK  status: ('A' for Active; 'I' for Inactive)
REMARK    1  A    between atoms: C_1  and  O_2
REMARK    2  A    between atoms: O_2  and  C_3
REMARK    3  A    between atoms: C_6  and  C_7
REMARK    4  A    between atoms: N_19  and  C_20
REMARK    5  A    between atoms: C_22  and  C_23
REMARK                            x       y       z     vdW  Elec       q    Type
REMARK                         _______ _______ _______ _____ _____    ______ ____
ROOT
ATOM      1  C   UNL     1       2.320   7.191  19.175  0.00  0.00    +0.000 A 
ATOM      2  N   UNL     1       3.104   7.248  18.108  0.00  0.00    +0.000 NA
ATOM      3  C   UNL     1       3.603   5.973  17.902  0.00  0.00    +0.000 A 
ATOM      4  C   UNL     1       4.509   5.465  16.928  0.00  0.00    +0.000 A 
ATOM      5  C   UNL     1       5.079   6.295  15.943  0.00  0.00    +0.000 A 
ATOM      6  C   UNL     1       5.966   5.761  15.002  0.00  0.00    +0.000 A 
ATOM      7  C   UNL     1       6.294   4.409  15.036  0.00  0.00    +0.000 A 
ATOM      8  C   UNL     1       5.736   3.574  16.004  0.00  0.00    +0.000 A 
ATOM      9  C   UNL     1       4.847   4.085  16.961  0.00  0.00    +0.000 A 
ATOM     10  C   UNL     1       4.296   3.251  17.941  0.00  0.00    +0.000 A 
ATOM     11  C   UNL     1       3.412   3.741  18.903  0.00  0.00    +0.000 A 
ATOM     12  C   UNL     1       3.086   5.103  18.852  0.00  0.00    +0.000 A 
ATOM     13  N   UNL     1       2.255   5.880  19.624  0.00  0.00    +0.000 N 
ATOM     14  C   UNL     1       1.438   5.358  20.696  0.00  0.00    +0.000 C 
ENDROOT
BRANCH   1  18
ATOM     15  C   UNL     1       0.250  10.550  20.928  0.00  0.00    +0.000 A 
ATOM     16  C   UNL     1       0.614  10.563  19.585  0.00  0.00    +0.000 A 
ATOM     17  C   UNL     1       1.248   9.460  19.014  0.00  0.00    +0.000 A 
ATOM     18  C   UNL     1       1.625   8.350  19.777  0.00  0.00    +0.000 A 
ATOM     19  C   UNL     1       1.287   8.359  21.139  0.00  0.00    +0.000 A 
ATOM     20  C   UNL     1       0.590   9.444  21.723  0.00  0.00    +0.000 A 
ATOM     21  C   UNL     1       0.222   9.405  23.181  0.00  0.00    +0.000 C 
BRANCH  15  23
ATOM     22  C   UNL     1      -1.507  12.111  20.734  0.00  0.00    +0.000 C 
ATOM     23  O   UNL     1      -0.440  11.577  21.519  0.00  0.00    +0.000 OA
ENDBRANCH  15  23
ENDBRANCH   1  18
TORSDOF 2
ENDMDL
MODEL 4
REMARK VINA RESULT:      -7.9      2.939      7.958
REMARK  Name = 
REMARK  5 active torsions:
REMARK  status: ('A' for Active; 'I' for Inactive)
REMARK    1  A    between atoms: C_1  and  O_2
REMARK    2  A    between atoms: O_2  and  C_3
REMARK    3  A    between atoms: C_6  and  C_7
REMARK    4  A    between atoms: N_19  and  C_20
REMARK    5  A    between atoms: C_22  and  C_23
REMARK                            x       y       z     vdW  Elec       q    Type
REMARK                         _______ _______ _______ _____ _____    ______ ____
ROOT
ATOM      1  C   UNL     1       1.847   7.370  19.938  0.00  0.00    +0.000 A 
ATOM      2  N   UNL     1       1.115   7.830  20.942  0.00  0.00    +0.000 NA
ATOM      3  C   UNL     1       0.783   9.138  20.638  0.00  0.00    +0.000 A 
ATOM      4  C   UNL     1       0.044  10.114  21.365  0.00  0.00    +0.000 A 
ATOM      5  C   UNL     1      -0.501   9.835  22.634  0.00  0.00    +0.000 A 
ATOM      6  C   UNL     1      -1.222  10.819  23.320  0.00  0.00    +0.000 A 
ATOM      7  C   UNL     1      -1.402  12.078  22.756  0.00  0.00    +0.000 A 
ATOM      8  C   UNL     1      -0.871  12.368  21.499  0.00  0.00    +0.000 A 
ATOM      9  C   UNL     1      -0.141  11.401  20.792  0.00  0.00    +0.000 A 
ATOM     10  C   UNL     1       0.403  11.695  19.537  0.00  0.00    +0.000 A 
ATOM     11  C   UNL     1       1.135  10.748  18.819  0.00  0.00    +0.000 A 
ATOM     12  C   UNL     1       1.302   9.482  19.397  0.00  0.00    +0.000 A 
ATOM     13  N   UNL     1       1.940   8.347  18.958  0.00  0.00    +0.000 N 
ATOM     14  C   UNL     1       2.560   8.230  17.657  0.00  0.00    +0.000 C 
ENDROOT
BRANCH   1  18
ATOM     15  C   UNL     1       3.617   3.437  19.731  0.00  0.00    +0.000 A 
ATOM     16  C   UNL     1       2.350   3.618  20.277  0.00  0.00    +0.000 A 
ATOM     17  C   UNL     1       1.767   4.884  20.307  0.00  0.00    +0.000 A 
ATOM     18  C   UNL     1       2.459   6.024  19.883  0.00  0.00    +0.000 A 
ATOM     19  C   UNL     1       3.751   5.840  19.368  0.00  0.00    +0.000 A 
ATOM     20  C   UNL     1       4.335   4.554  19.274  0.00  0.00    +0.000 A 
ATOM     21  C   UNL     1       5.713   4.394  18.691  0.00  0.00    +0.000 C 
BRANCH  15  23
ATOM     22  C   UNL     1       3.654   1.377  18.586  0.00  0.00    +0.000 C 
ATOM     23  O   UNL     1       4.205   2.204  19.611  0.00  0.00    +0.000 OA
ENDBRANCH  15  23
ENDBRANCH   1  18
TORSDOF 2
ENDMDL
MODEL 5
REMARK VINA RESULT:      -7.7      1.988      3.670
REMARK  Name = 
REMARK  5 active torsions:
REMARK  status: ('A' for Active; 'I' for Inactive)
REMARK    1  A    between atoms: C_1  and  O_2
REMARK    2  A    between atoms: O_2  and  C_3
REMARK    3  A    between atoms: C_6  and  C_7
REMARK    4  A    between atoms: N_19  and  C_20
REMARK    5  A    between atoms: C_22  and  C_23
REMARK                            x       y       z     vdW  Elec       q    Type
REMARK                         _______ _______ _______ _____ _____    ______ ____
ROOT
ATOM      1  C   UNL     1       1.046   8.482  20.501  0.00  0.00    +0.000 A 
ATOM      2  N   UNL     1       1.233   7.273  21.010  0.00  0.00    +0.000 NA
ATOM      3  C   UNL     1       2.007   6.567  20.106  0.00  0.00    +0.000 A 
ATOM      4  C   UNL     1       2.482   5.224  20.123  0.00  0.00    +0.000 A 
ATOM      5  C   UNL     1       2.182   4.347  21.183  0.00  0.00    +0.000 A 
ATOM      6  C   UNL     1       2.665   3.034  21.166  0.00  0.00    +0.000 A 
ATOM      7  C   UNL     1       3.440   2.585  20.100  0.00  0.00    +0.000 A 
ATOM      8  C   UNL     1       3.748   3.444  19.044  0.00  0.00    +0.000 A 
ATOM      9  C   UNL     1       3.273   4.763  19.036  0.00  0.00    +0.000 A 
ATOM     10  C   UNL     1       3.569   5.621  17.970  0.00  0.00    +0.000 A 
ATOM     11  C   UNL     1       3.104   6.936  17.942  0.00  0.00    +0.000 A 
ATOM     12  C   UNL     1       2.330   7.375  19.025  0.00  0.00    +0.000 A 
ATOM     13  N   UNL     1       1.744   8.587  19.307  0.00  0.00    +0.000 N 
ATOM     14  C   UNL     1       1.895   9.761  18.477  0.00  0.00    +0.000 C 
ENDROOT
BRANCH   1  18
ATOM     15  C   UNL     1      -1.314  11.611  22.312  0.00  0.00    +0.000 A 
ATOM     16  C   UNL     1      -0.752  10.604  23.091  0.00  0.00    +0.000 A 
ATOM     17  C   UNL     1       0.041   9.617  22.507  0.00  0.00    +0.000 A 
ATOM     18  C   UNL     1       0.224   9.544  21.122  0.00  0.00    +0.000 A 
ATOM     19  C   UNL     1      -0.376  10.541  20.338  0.00  0.00    +0.000 A 
ATOM     20  C   UNL     1      -1.134  11.585  20.920  0.00  0.00    +0.000 A 
ATOM     21  C   UNL     1      -1.740  12.652  20.049  0.00  0.00    +0.000 C 
BRANCH  15  23
ATOM     22  C   UNL     1      -3.213  12.246  23.557  0.00  0.00    +0.000 C 
ATOM     23  O   UNL     1      -2.040  12.644  22.847  0.00  0.00    +0.000 OA
ENDBRANCH  15  23
ENDBRANCH   1  18
TORSDOF 2
ENDMDL
MODEL 6
REMARK VINA RESULT:      -7.5      1.890      2.793
REMARK  Name = 
REMARK  5 active torsions:
REMARK  status: ('A' for Active; 'I' for Inactive)
REMARK    1  A    between atoms: C_1  and  O_2
REMARK    2  A    between atoms: O_2  and  C_3
REMARK    3  A    between atoms: C_6  and  C_7
REMARK    4  A    between atoms: N_19  and  C_20
REMARK    5  A    between atoms: C_22  and  C_23
REMARK                            x       y       z     vdW  Elec       q    Type
REMARK                         _______ _______ _______ _____ _____    ______ ____
ROOT
ATOM      1  C   UNL     1       2.016   8.837  18.508  0.00  0.00    +0.000 A 
ATOM      2  N   UNL     1       2.770   8.402  17.509  0.00  0.00    +0.000 NA
ATOM      3  C   UNL     1       3.300   7.185  17.900  0.00  0.00    +0.000 A 
ATOM      4  C   UNL     1       4.196   6.294  17.242  0.00  0.00    +0.000 A 
ATOM      5  C   UNL     1       4.715   6.578  15.964  0.00  0.00    +0.000 A 
ATOM      6  C   UNL     1       5.592   5.680  15.347  0.00  0.00    +0.000 A 
ATOM      7  C   UNL     1       5.961   4.504  15.993  0.00  0.00    +0.000 A 
ATOM      8  C   UNL     1       5.452   4.207  17.258  0.00  0.00    +0.000 A 
ATOM      9  C   UNL     1       4.574   5.093  17.900  0.00  0.00    +0.000 A 
ATOM     10  C   UNL     1       4.074   4.803  19.174  0.00  0.00    +0.000 A 
ATOM     11  C   UNL     1       3.202   5.672  19.831  0.00  0.00    +0.000 A 
ATOM     12  C   UNL     1       2.835   6.850  19.165  0.00  0.00    +0.000 A 
ATOM     13  N   UNL     1       2.002   7.886  19.517  0.00  0.00    +0.000 N 
ATOM     14  C   UNL     1       1.229   7.911  20.738  0.00  0.00    +0.000 C 
ENDROOT
BRANCH   1  18
ATOM     15  C   UNL     1      -0.065  12.620  18.517  0.00  0.00    +0.000 A 
ATOM     16  C   UNL     1       1.322  12.572  18.631  0.00  0.00    +0.000 A 
ATOM     17  C   UNL     1       1.992  11.351  18.589  0.00  0.00    +0.000 A 
ATOM     18  C   UNL     1       1.304  10.134  18.528  0.00  0.00    +0.000 A 
ATOM     19  C   UNL     1      -0.096  10.188  18.452  0.00  0.00    +0.000 A 
ATOM     20  C   UNL     1      -0.790  11.421  18.432  0.00  0.00    +0.000 A 
ATOM     21  C   UNL     1      -2.291  11.439  18.323  0.00  0.00    +0.000 C 
BRANCH  15  23
ATOM     22  C   UNL     1      -0.031  14.945  18.913  0.00  0.00    +0.000 C 
ATOM     23  O   UNL     1      -0.765  13.799  18.480  0.00  0.00    +0.000 OA
ENDBRANCH  15  23
ENDBRANCH   1  18
TORSDOF 2
ENDMDL
MODEL 7
REMARK VINA RESULT:      -7.5      2.716      7.548
REMARK  Name = 
REMARK  5 active torsions:
REMARK  status: ('A' for Active; 'I' for Inactive)
REMARK    1  A    between atoms: C_1  and  O_2
REMARK    2  A    between atoms: O_2  and  C_3
REMARK    3  A    between atoms: C_6  and  C_7
REMARK    4  A    between atoms: N_19  and  C_20
REMARK    5  A    between atoms: C_22  and  C_23
REMARK                            x       y       z     vdW  Elec       q    Type
REMARK                         _______ _______ _______ _____ _____    ______ ____
ROOT
ATOM      1  C   UNL     1       2.752   6.931  18.858  0.00  0.00    +0.000 A 
ATOM      2  N   UNL     1       2.426   8.173  18.532  0.00  0.00    +0.000 NA
ATOM      3  C   UNL     1       1.547   8.630  19.498  0.00  0.00    +0.000 A 
ATOM      4  C   UNL     1       0.860   9.870  19.633  0.00  0.00    +0.000 A 
ATOM      5  C   UNL     1       1.005  10.903  18.686  0.00  0.00    +0.000 A 
ATOM      6  C   UNL     1       0.314  12.108  18.850  0.00  0.00    +0.000 A 
ATOM      7  C   UNL     1      -0.523  12.293  19.947  0.00  0.00    +0.000 A 
ATOM      8  C   UNL     1      -0.674  11.281  20.895  0.00  0.00    +0.000 A 
ATOM      9  C   UNL     1       0.004  10.062  20.751  0.00  0.00    +0.000 A 
ATOM     10  C   UNL     1      -0.157   9.040  21.694  0.00  0.00    +0.000 A 
ATOM     11  C   UNL     1       0.506   7.819  21.567  0.00  0.00    +0.000 A 
ATOM     12  C   UNL     1       1.351   7.650  20.461  0.00  0.00    +0.000 A 
ATOM     13  N   UNL     1       2.142   6.601  20.059  0.00  0.00    +0.000 N 
ATOM     14  C   UNL     1       2.308   5.385  20.823  0.00  0.00    +0.000 C 
ENDROOT
BRANCH   1  18
ATOM     15  C   UNL     1       5.309   4.384  16.489  0.00  0.00    +0.000 A 
ATOM     16  C   UNL     1       3.999   4.009  16.772  0.00  0.00    +0.000 A 
ATOM     17  C   UNL     1       3.165   4.852  17.505  0.00  0.00    +0.000 A 
ATOM     18  C   UNL     1       3.631   6.049  18.060  0.00  0.00    +0.000 A 
ATOM     19  C   UNL     1       4.964   6.403  17.802  0.00  0.00    +0.000 A 
ATOM     20  C   UNL     1       5.808   5.589  17.010  0.00  0.00    +0.000 A 
ATOM     21  C   UNL     1       7.224   6.017  16.733  0.00  0.00    +0.000 C 
BRANCH  15  23
ATOM     22  C   UNL     1       6.037   3.864  14.307  0.00  0.00    +0.000 C 
ATOM     23  O   UNL     1       6.147   3.626  15.711  0.00  0.00    +0.000 OA
ENDBRANCH  15  23
ENDBRANCH   1  18
TORSDOF 2
ENDMDL
MODEL 8
REMARK VINA RESULT:      -7.4      2.637      7.651
REMARK  Name = 
REMARK  5 active torsions:
REMARK  status: ('A' for Active; 'I' for Inactive)
REMARK    1  A    between atoms: C_1  and  O_2
REMARK    2  A    between atoms: O_2  and  C_3
REMARK    3  A    between atoms: C_6  and  C_7
REMARK    4  A    between atoms: N_19  and  C_20
REMARK    5  A    between atoms: C_22  and  C_23
REMARK                            x       y       z     vdW  Elec       q    Type
REMARK                         _______ _______ _______ _____ _____    ______ ____
ROOT
ATOM      1  C   UNL     1       2.584   7.230  18.790  0.00  0.00    +0.000 A 
ATOM      2  N   UNL     1       2.269   8.469  18.440  0.00  0.00    +0.000 NA
ATOM      3  C   UNL     1       1.450   8.976  19.433  0.00  0.00    +0.000 A 
ATOM      4  C   UNL     1       0.797  10.235  19.561  0.00  0.00    +0.000 A 
ATOM      5  C   UNL     1       0.916  11.234  18.575  0.00  0.00    +0.000 A 
ATOM      6  C   UNL     1       0.260  12.459  18.734  0.00  0.00    +0.000 A 
ATOM      7  C   UNL     1      -0.516  12.698  19.864  0.00  0.00    +0.000 A 
ATOM      8  C   UNL     1      -0.641  11.720  20.851  0.00  0.00    +0.000 A 
ATOM      9  C   UNL     1       0.003  10.481  20.714  0.00  0.00    +0.000 A 
ATOM     10  C   UNL     1      -0.133   9.494  21.697  0.00  0.00    +0.000 A 
ATOM     11  C   UNL     1       0.497   8.255  21.577  0.00  0.00    +0.000 A 
ATOM     12  C   UNL     1       1.281   8.032  20.437  0.00  0.00    +0.000 A 
ATOM     13  N   UNL     1       2.029   6.952  20.031  0.00  0.00    +0.000 N 
ATOM     14  C   UNL     1       2.207   5.758  20.825  0.00  0.00    +0.000 C 
ENDROOT
BRANCH   1  18
ATOM     15  C   UNL     1       5.004   4.518  16.460  0.00  0.00    +0.000 A 
ATOM     16  C   UNL     1       5.205   5.893  16.385  0.00  0.00    +0.000 A 
ATOM     17  C   UNL     1       4.447   6.762  17.167  0.00  0.00    +0.000 A 
ATOM     18  C   UNL     1       3.404   6.304  17.979  0.00  0.00    +0.000 A 
ATOM     19  C   UNL     1       3.182   4.919  18.022  0.00  0.00    +0.000 A 
ATOM     20  C   UNL     1       3.981   4.016  17.280  0.00  0.00    +0.000 A 
ATOM     21  C   UNL     1       3.729   2.536  17.374  0.00  0.00    +0.000 C 
BRANCH  15  23
ATOM     22  C   UNL     1       6.130   4.028  14.448  0.00  0.00    +0.000 C 
ATOM     23  O   UNL     1       5.771   3.617  15.767  0.00  0.00    +0.000 OA
ENDBRANCH  15  23
ENDBRANCH   1  18
TORSDOF 2
ENDMDL
MODEL 9
REMARK VINA RESULT:      -7.4      1.855      2.634
REMARK  Name = 
REMARK  5 active torsions:
REMARK  status: ('A' for Active; 'I' for Inactive)
REMARK    1  A    between atoms: C_1  and  O_2
REMARK    2  A    between atoms: O_2  and  C_3
REMARK    3  A    between atoms: C_6  and  C_7
REMARK    4  A    between atoms: N_19  and  C_20
REMARK    5  A    between atoms: C_22  and  C_23
REMARK                            x       y       z     vdW  Elec       q    Type
REMARK                         _______ _______ _______ _____ _____    ______ ____
ROOT
ATOM      1  C   UNL     1       2.112   8.767  18.455  0.00  0.00    +0.000 A 
ATOM      2  N   UNL     1       2.871   8.332  17.459  0.00  0.00    +0.000 NA
ATOM      3  C   UNL     1       3.385   7.107  17.845  0.00  0.00    +0.000 A 
ATOM      4  C   UNL     1       4.277   6.213  17.187  0.00  0.00    +0.000 A 
ATOM      5  C   UNL     1       4.811   6.503  15.916  0.00  0.00    +0.000 A 
ATOM      6  C   UNL     1       5.685   5.601  15.300  0.00  0.00    +0.000 A 
ATOM      7  C   UNL     1       6.035   4.415  15.938  0.00  0.00    +0.000 A 
ATOM      8  C   UNL     1       5.512   4.113  17.196  0.00  0.00    +0.000 A 
ATOM      9  C   UNL     1       4.637   5.002  17.837  0.00  0.00    +0.000 A 
ATOM     10  C   UNL     1       4.122   4.706  19.104  0.00  0.00    +0.000 A 
ATOM     11  C   UNL     1       3.252   5.578  19.760  0.00  0.00    +0.000 A 
ATOM     12  C   UNL     1       2.904   6.765  19.101  0.00  0.00    +0.000 A 
ATOM     13  N   UNL     1       2.079   7.806  19.455  0.00  0.00    +0.000 N 
ATOM     14  C   UNL     1       1.294   7.829  20.669  0.00  0.00    +0.000 C 
ENDROOT
BRANCH   1  18
ATOM     15  C   UNL     1       0.082  12.576  18.575  0.00  0.00    +0.000 A 
ATOM     16  C   UNL     1      -0.636  11.386  18.646  0.00  0.00    +0.000 A 
ATOM     17  C   UNL     1       0.026  10.159  18.645  0.00  0.00    +0.000 A 
ATOM     18  C   UNL     1       1.413  10.070  18.480  0.00  0.00    +0.000 A 
ATOM     19  C   UNL     1       2.128  11.273  18.372  0.00  0.00    +0.000 A 
ATOM     20  C   UNL     1       1.478  12.529  18.431  0.00  0.00    +0.000 A 
ATOM     21  C   UNL     1       2.282  13.798  18.339  0.00  0.00    +0.000 C 
BRANCH  15  23
ATOM     22  C   UNL     1      -1.014  14.157  19.938  0.00  0.00    +0.000 C 
ATOM     23  O   UNL     1      -0.515  13.808  18.646  0.00  0.00    +0.000 OA
ENDBRANCH  15  23
ENDBRANCH   1  18
TORSDOF 2
ENDMDL
