MODEL 1
REMARK VINA RESULT:      -8.7      0.000      0.000
REMARK  Name = 
REMARK  4 active torsions:
REMARK  status: ('A' for Active; 'I' for Inactive)
REMARK    1  A    between atoms: C_8  and  C_9
REMARK    2  A    between atoms: C_9  and  N_10
REMARK    3  A    between atoms: N_10  and  N_11
REMARK    4  A    between atoms: N_10  and  C_13
REMARK                            x       y       z     vdW  Elec       q    Type
REMARK                         _______ _______ _______ _____ _____    ______ ____
ROOT
ATOM      1  N   UNL     1      -4.409  12.762  19.422  0.00  0.00    +0.000 N 
ATOM      2  C   UNL     1      -3.369  11.962  18.991  0.00  0.00    +0.000 A 
ATOM      3  N   UNL     1      -3.567  11.217  17.905  0.00  0.00    +0.000 NA
ATOM      4  C   UNL     1      -2.547  10.441  17.516  0.00  0.00    +0.000 A 
ATOM      5  N   UNL     1      -2.796   9.671  16.371  0.00  0.00    +0.000 N 
ATOM      6  C   UNL     1      -1.306  10.406  18.167  0.00  0.00    +0.000 A 
ATOM      7  C   UNL     1      -0.184   9.617  17.784  0.00  0.00    +0.000 A 
ATOM      8  C   UNL     1       1.017   9.674  18.504  0.00  0.00    +0.000 A 
ATOM      9  C   UNL     1       1.075  10.524  19.613  0.00  0.00    +0.000 A 
ATOM     10  C   UNL     1      -0.030  11.294  19.983  0.00  0.00    +0.000 A 
ATOM     11  C   UNL     1      -1.221  11.252  19.275  0.00  0.00    +0.000 A 
ATOM     12  N   UNL     1      -2.232  12.025  19.682  0.00  0.00    +0.000 NA
ATOM     13  H   UNL     1      -5.028  12.971  18.654  0.00  0.00    +0.000 HD
ATOM     14  H   UNL     1      -4.041  13.542  19.950  0.00  0.00    +0.000 HD
ATOM     15  H   UNL     1      -3.769   9.840  16.116  0.00  0.00    +0.000 HD
ATOM     16  H   UNL     1      -2.632   8.688  16.550  0.00  0.00    +0.000 HD
ENDROOT
BRANCH   8  17
ATOM     17  C   UNL     1       2.247   8.886  18.079  0.00  0.00    +0.000 C 
BRANCH  17  18
ATOM     18  N   UNL     1       2.357   7.541  18.700  0.00  0.00    +0.000 N 
BRANCH  18  19
ATOM     19  C   UNL     1       3.104   6.588  17.903  0.00  0.00    +0.000 A 
ATOM     20  C   UNL     1       4.264   6.999  17.211  0.00  0.00    +0.000 A 
ATOM     21  C   UNL     1       5.095   6.083  16.578  0.00  0.00    +0.000 A 
ATOM     22  C   UNL     1       4.800   4.723  16.628  0.00  0.00    +0.000 A 
ATOM     23 CL   UNL     1       5.939   3.664  15.853  0.00  0.00    +0.000 Cl
ATOM     24  C   UNL     1       3.640   4.246  17.280  0.00  0.00    +0.000 A 
ATOM     25  C   UNL     1       3.326   2.866  17.347  0.00  0.00    +0.000 A 
ATOM     26  C   UNL     1       2.171   2.400  17.969  0.00  0.00    +0.000 A 
ATOM     27  C   UNL     1       1.284   3.307  18.521  0.00  0.00    +0.000 A 
ATOM     28  C   UNL     1       1.574   4.673  18.478  0.00  0.00    +0.000 A 
ATOM     29  C   UNL     1       2.763   5.187  17.898  0.00  0.00    +0.000 A 
ENDBRANCH  18  19
BRANCH  18  30
ATOM     30  N   UNL     1       2.396   7.357  20.054  0.00  0.00    +0.000 NA
ATOM     31  O   UNL     1       1.274   7.210  20.551  0.00  0.00    +0.000 OA
ENDBRANCH  18  30
ENDBRANCH  17  18
ENDBRANCH   8  17
TORSDOF 4
ENDMDL
MODEL 2
REMARK VINA RESULT:      -8.5      3.864      8.368
REMARK  Name = 
REMARK  4 active torsions:
REMARK  status: ('A' for Active; 'I' for Inactive)
REMARK    1  A    between atoms: C_8  and  C_9
REMARK    2  A    between atoms: C_9  and  N_10
REMARK    3  A    between atoms: N_10  and  N_11
REMARK    4  A    between atoms: N_10  and  C_13
REMARK                            x       y       z     vdW  Elec       q    Type
REMARK                         _______ _______ _______ _____ _____    ______ ____
ROOT
ATOM      1  N   UNL     1       4.749   3.377  17.484  0.00  0.00    +0.000 N 
ATOM      2  C   UNL     1       4.019   4.284  18.227  0.00  0.00    +0.000 A 
ATOM      3  N   UNL     1       3.653   3.929  19.457  0.00  0.00    +0.000 NA
ATOM      4  C   UNL     1       2.936   4.822  20.152  0.00  0.00    +0.000 A 
ATOM      5  N   UNL     1       2.570   4.409  21.440  0.00  0.00    +0.000 N 
ATOM      6  C   UNL     1       2.592   6.089  19.662  0.00  0.00    +0.000 A 
ATOM      7  C   UNL     1       1.850   7.083  20.364  0.00  0.00    +0.000 A 
ATOM      8  C   UNL     1       1.577   8.327  19.779  0.00  0.00    +0.000 A 
ATOM      9  C   UNL     1       2.049   8.558  18.482  0.00  0.00    +0.000 A 
ATOM     10  C   UNL     1       2.774   7.578  17.800  0.00  0.00    +0.000 A 
ATOM     11  C   UNL     1       3.057   6.347  18.370  0.00  0.00    +0.000 A 
ATOM     12  N   UNL     1       3.765   5.464  17.661  0.00  0.00    +0.000 NA
ATOM     13  H   UNL     1       5.234   2.738  18.095  0.00  0.00    +0.000 HD
ATOM     14  H   UNL     1       5.297   3.869  16.792  0.00  0.00    +0.000 HD
ATOM     15  H   UNL     1       2.897   3.449  21.539  0.00  0.00    +0.000 HD
ATOM     16  H   UNL     1       1.567   4.467  21.570  0.00  0.00    +0.000 HD
ENDROOT
BRANCH   8  17
ATOM     17  C   UNL     1       0.839   9.424  20.531  0.00  0.00    +0.000 C 
BRANCH  17  18
ATOM     18  N   UNL     1       0.595  10.654  19.735  0.00  0.00    +0.000 N 
BRANCH  18  19
ATOM     19  C   UNL     1      -0.775  11.125  19.791  0.00  0.00    +0.000 A 
ATOM     20  C   UNL     1      -1.206  11.921  20.875  0.00  0.00    +0.000 A 
ATOM     21  C   UNL     1      -2.456  12.528  20.880  0.00  0.00    +0.000 A 
ATOM     22  C   UNL     1      -3.312  12.368  19.793  0.00  0.00    +0.000 A 
ATOM     23 CL   UNL     1      -4.824  13.218  19.880  0.00  0.00    +0.000 Cl
ATOM     24  C   UNL     1      -2.955  11.562  18.688  0.00  0.00    +0.000 A 
ATOM     25  C   UNL     1      -3.810  11.391  17.571  0.00  0.00    +0.000 A 
ATOM     26  C   UNL     1      -3.467  10.578  16.495  0.00  0.00    +0.000 A 
ATOM     27  C   UNL     1      -2.266   9.891  16.519  0.00  0.00    +0.000 A 
ATOM     28  C   UNL     1      -1.400  10.048  17.603  0.00  0.00    +0.000 A 
ATOM     29  C   UNL     1      -1.688  10.905  18.697  0.00  0.00    +0.000 A 
ENDBRANCH  18  19
BRANCH  18  30
ATOM     30  N   UNL     1       1.554  11.610  19.545  0.00  0.00    +0.000 NA
ATOM     31  O   UNL     1       1.480  12.150  18.436  0.00  0.00    +0.000 OA
ENDBRANCH  18  30
ENDBRANCH  17  18
ENDBRANCH   8  17
TORSDOF 4
ENDMDL
MODEL 3
REMARK VINA RESULT:      -8.5      3.718      7.990
REMARK  Name = 
REMARK  4 active torsions:
REMARK  status: ('A' for Active; 'I' for Inactive)
REMARK    1  A    between atoms: C_8  and  C_9
REMARK    2  A    between atoms: C_9  and  N_10
REMARK    3  A    between atoms: N_10  and  N_11
REMARK    4  A    between atoms: N_10  and  C_13
REMARK                            x       y       z     vdW  Elec       q    Type
REMARK                         _______ _______ _______ _____ _____    ______ ____
ROOT
ATOM      1  N   UNL     1       4.837   2.105  19.682  0.00  0.00    +0.000 N 
ATOM      2  C   UNL     1       4.187   3.306  19.477  0.00  0.00    +0.000 A 
ATOM      3  N   UNL     1       3.052   3.520  20.141  0.00  0.00    +0.000 NA
ATOM      4  C   UNL     1       2.435   4.687  19.914  0.00  0.00    +0.000 A 
ATOM      5  N   UNL     1       1.244   4.872  20.631  0.00  0.00    +0.000 N 
ATOM      6  C   UNL     1       2.936   5.675  19.057  0.00  0.00    +0.000 A 
ATOM      7  C   UNL     1       2.332   6.940  18.795  0.00  0.00    +0.000 A 
ATOM      8  C   UNL     1       2.934   7.860  17.927  0.00  0.00    +0.000 A 
ATOM      9  C   UNL     1       4.140   7.495  17.319  0.00  0.00    +0.000 A 
ATOM     10  C   UNL     1       4.725   6.253  17.580  0.00  0.00    +0.000 A 
ATOM     11  C   UNL     1       4.144   5.337  18.442  0.00  0.00    +0.000 A 
ATOM     12  N   UNL     1       4.767   4.174  18.650  0.00  0.00    +0.000 NA
ATOM     13  H   UNL     1       4.584   1.722  20.580  0.00  0.00    +0.000 HD
ATOM     14  H   UNL     1       5.821   2.214  19.482  0.00  0.00    +0.000 HD
ATOM     15  H   UNL     1       1.078   4.007  21.142  0.00  0.00    +0.000 HD
ATOM     16  H   UNL     1       0.473   5.082  20.008  0.00  0.00    +0.000 HD
ENDROOT
BRANCH   8  17
ATOM     17  C   UNL     1       2.339   9.238  17.679  0.00  0.00    +0.000 C 
BRANCH  17  18
ATOM     18  N   UNL     1       0.981   9.430  18.250  0.00  0.00    +0.000 N 
BRANCH  18  19
ATOM     19  C   UNL     1       0.905  10.487  19.239  0.00  0.00    +0.000 A 
ATOM     20  C   UNL     1       1.229  11.814  18.882  0.00  0.00    +0.000 A 
ATOM     21  C   UNL     1       1.008  12.875  19.752  0.00  0.00    +0.000 A 
ATOM     22  C   UNL     1       0.443  12.644  21.004  0.00  0.00    +0.000 A 
ATOM     23 CL   UNL     1       0.158  14.049  21.985  0.00  0.00    +0.000 Cl
ATOM     24  C   UNL     1       0.122  11.337  21.436  0.00  0.00    +0.000 A 
ATOM     25  C   UNL     1      -0.457  11.082  22.703  0.00  0.00    +0.000 A 
ATOM     26  C   UNL     1      -0.752   9.792  23.136  0.00  0.00    +0.000 A 
ATOM     27  C   UNL     1      -0.449   8.717  22.319  0.00  0.00    +0.000 A 
ATOM     28  C   UNL     1       0.114   8.940  21.060  0.00  0.00    +0.000 A 
ATOM     29  C   UNL     1       0.384  10.240  20.560  0.00  0.00    +0.000 A 
ENDBRANCH  18  19
BRANCH  18  30
ATOM     30  N   UNL     1      -0.159   9.193  17.532  0.00  0.00    +0.000 NA
ATOM     31  O   UNL     1      -0.982  10.110  17.623  0.00  0.00    +0.000 OA
ENDBRANCH  18  30
ENDBRANCH  17  18
ENDBRANCH   8  17
TORSDOF 4
ENDMDL
MODEL 4
REMARK VINA RESULT:      -8.3      3.552      5.241
REMARK  Name = 
REMARK  4 active torsions:
REMARK  status: ('A' for Active; 'I' for Inactive)
REMARK    1  A    between atoms: C_8  and  C_9
REMARK    2  A    between atoms: C_9  and  N_10
REMARK    3  A    between atoms: N_10  and  N_11
REMARK    4  A    between atoms: N_10  and  C_13
REMARK                            x       y       z     vdW  Elec       q    Type
REMARK                         _______ _______ _______ _____ _____    ______ ____
ROOT
ATOM      1  N   UNL     1       1.076   9.657  21.911  0.00  0.00    +0.000 N 
ATOM      2  C   UNL     1       1.328   8.705  20.944  0.00  0.00    +0.000 A 
ATOM      3  N   UNL     1       1.719   9.128  19.743  0.00  0.00    +0.000 NA
ATOM      4  C   UNL     1       1.945   8.184  18.819  0.00  0.00    +0.000 A 
ATOM      5  N   UNL     1       2.352   8.670  17.569  0.00  0.00    +0.000 N 
ATOM      6  C   UNL     1       1.821   6.810  19.066  0.00  0.00    +0.000 A 
ATOM      7  C   UNL     1       2.068   5.766  18.129  0.00  0.00    +0.000 A 
ATOM      8  C   UNL     1       1.926   4.421  18.494  0.00  0.00    +0.000 A 
ATOM      9  C   UNL     1       1.527   4.136  19.804  0.00  0.00    +0.000 A 
ATOM     10  C   UNL     1       1.285   5.166  20.718  0.00  0.00    +0.000 A 
ATOM     11  C   UNL     1       1.429   6.500  20.372  0.00  0.00    +0.000 A 
ATOM     12  N   UNL     1       1.190   7.429  21.301  0.00  0.00    +0.000 NA
ATOM     13  H   UNL     1       1.586  10.503  21.707  0.00  0.00    +0.000 HD
ATOM     14  H   UNL     1       1.196   9.249  22.828  0.00  0.00    +0.000 HD
ATOM     15  H   UNL     1       2.324   9.686  17.631  0.00  0.00    +0.000 HD
ATOM     16  H   UNL     1       1.745   8.333  16.831  0.00  0.00    +0.000 HD
ENDROOT
BRANCH   8  17
ATOM     17  C   UNL     1       2.241   3.289  17.528  0.00  0.00    +0.000 C 
BRANCH  17  18
ATOM     18  N   UNL     1       3.621   2.752  17.644  0.00  0.00    +0.000 N 
BRANCH  18  19
ATOM     19  C   UNL     1       4.634   3.775  17.823  0.00  0.00    +0.000 A 
ATOM     20  C   UNL     1       4.943   4.246  19.117  0.00  0.00    +0.000 A 
ATOM     21  C   UNL     1       6.017   5.097  19.343  0.00  0.00    +0.000 A 
ATOM     22  C   UNL     1       6.827   5.495  18.282  0.00  0.00    +0.000 A 
ATOM     23 CL   UNL     1       8.175   6.512  18.689  0.00  0.00    +0.000 Cl
ATOM     24  C   UNL     1       6.557   5.084  16.957  0.00  0.00    +0.000 A 
ATOM     25  C   UNL     1       7.372   5.473  15.866  0.00  0.00    +0.000 A 
ATOM     26  C   UNL     1       7.092   5.085  14.558  0.00  0.00    +0.000 A 
ATOM     27  C   UNL     1       5.970   4.316  14.305  0.00  0.00    +0.000 A 
ATOM     28  C   UNL     1       5.154   3.910  15.363  0.00  0.00    +0.000 A 
ATOM     29  C   UNL     1       5.431   4.240  16.715  0.00  0.00    +0.000 A 
ENDBRANCH  18  19
BRANCH  18  30
ATOM     30  N   UNL     1       3.893   1.531  18.197  0.00  0.00    +0.000 NA
ATOM     31  O   UNL     1       3.189   1.284  19.182  0.00  0.00    +0.000 OA
ENDBRANCH  18  30
ENDBRANCH  17  18
ENDBRANCH   8  17
TORSDOF 4
ENDMDL
MODEL 5
REMARK VINA RESULT:      -8.3      3.792      8.435
REMARK  Name = 
REMARK  4 active torsions:
REMARK  status: ('A' for Active; 'I' for Inactive)
REMARK    1  A    between atoms: C_8  and  C_9
REMARK    2  A    between atoms: C_9  and  N_10
REMARK    3  A    between atoms: N_10  and  N_11
REMARK    4  A    between atoms: N_10  and  C_13
REMARK                            x       y       z     vdW  Elec       q    Type
REMARK                         _______ _______ _______ _____ _____    ______ ____
ROOT
ATOM      1  N   UNL     1       4.041   1.392  18.166  0.00  0.00    +0.000 N 
ATOM      2  C   UNL     1       3.528   2.519  18.776  0.00  0.00    +0.000 A 
ATOM      3  N   UNL     1       3.148   2.419  20.049  0.00  0.00    +0.000 NA
ATOM      4  C   UNL     1       2.642   3.525  20.613  0.00  0.00    +0.000 A 
ATOM      5  N   UNL     1       2.252   3.377  21.951  0.00  0.00    +0.000 N 
ATOM      6  C   UNL     1       2.530   4.753  19.948  0.00  0.00    +0.000 A 
ATOM      7  C   UNL     1       2.021   5.961  20.504  0.00  0.00    +0.000 A 
ATOM      8  C   UNL     1       1.971   7.139  19.747  0.00  0.00    +0.000 A 
ATOM      9  C   UNL     1       2.429   7.088  18.426  0.00  0.00    +0.000 A 
ATOM     10  C   UNL     1       2.926   5.899  17.887  0.00  0.00    +0.000 A 
ATOM     11  C   UNL     1       2.988   4.729  18.627  0.00  0.00    +0.000 A 
ATOM     12  N   UNL     1       3.485   3.634  18.048  0.00  0.00    +0.000 NA
ATOM     13  H   UNL     1       4.417   0.762  18.859  0.00  0.00    +0.000 HD
ATOM     14  H   UNL     1       4.648   1.664  17.405  0.00  0.00    +0.000 HD
ATOM     15  H   UNL     1       2.392   2.395  22.185  0.00  0.00    +0.000 HD
ATOM     16  H   UNL     1       1.284   3.648  22.080  0.00  0.00    +0.000 HD
ENDROOT
BRANCH   8  17
ATOM     17  C   UNL     1       1.486   8.454  20.339  0.00  0.00    +0.000 C 
BRANCH  17  18
ATOM     18  N   UNL     1       1.186   9.505  19.332  0.00  0.00    +0.000 N 
BRANCH  18  19
ATOM     19  C   UNL     1       0.027  10.312  19.657  0.00  0.00    +0.000 A 
ATOM     20  C   UNL     1       0.003  11.069  20.849  0.00  0.00    +0.000 A 
ATOM     21  C   UNL     1      -1.013  11.980  21.111  0.00  0.00    +0.000 A 
ATOM     22  C   UNL     1      -2.032  12.174  20.183  0.00  0.00    +0.000 A 
ATOM     23 CL   UNL     1      -3.216  13.379  20.587  0.00  0.00    +0.000 Cl
ATOM     24  C   UNL     1      -2.085  11.430  18.982  0.00  0.00    +0.000 A 
ATOM     25  C   UNL     1      -3.110  11.616  18.023  0.00  0.00    +0.000 A 
ATOM     26  C   UNL     1      -3.173  10.866  16.852  0.00  0.00    +0.000 A 
ATOM     27  C   UNL     1      -2.222   9.887  16.622  0.00  0.00    +0.000 A 
ATOM     28  C   UNL     1      -1.195   9.688  17.546  0.00  0.00    +0.000 A 
ATOM     29  C   UNL     1      -1.065  10.464  18.727  0.00  0.00    +0.000 A 
ENDBRANCH  18  19
BRANCH  18  30
ATOM     30  N   UNL     1       2.161  10.118  18.595  0.00  0.00    +0.000 NA
ATOM     31  O   UNL     1       1.912  10.127  17.384  0.00  0.00    +0.000 OA
ENDBRANCH  18  30
ENDBRANCH  17  18
ENDBRANCH   8  17
TORSDOF 4
ENDMDL
MODEL 6
REMARK VINA RESULT:      -8.3      3.722      8.246
REMARK  Name = 
REMARK  4 active torsions:
REMARK  status: ('A' for Active; 'I' for Inactive)
REMARK    1  A    between atoms: C_8  and  C_9
REMARK    2  A    between atoms: C_9  and  N_10
REMARK    3  A    between atoms: N_10  and  N_11
REMARK    4  A    between atoms: N_10  and  C_13
REMARK                            x       y       z     vdW  Elec       q    Type
REMARK                         _______ _______ _______ _____ _____    ______ ____
ROOT
ATOM      1  N   UNL     1       3.801   1.708  17.892  0.00  0.00    +0.000 N 
ATOM      2  C   UNL     1       3.567   3.042  18.159  0.00  0.00    +0.000 A 
ATOM      3  N   UNL     1       4.174   3.946  17.392  0.00  0.00    +0.000 NA
ATOM      4  C   UNL     1       3.939   5.233  17.681  0.00  0.00    +0.000 A 
ATOM      5  N   UNL     1       4.598   6.152  16.852  0.00  0.00    +0.000 N 
ATOM      6  C   UNL     1       3.083   5.654  18.706  0.00  0.00    +0.000 A 
ATOM      7  C   UNL     1       2.782   7.006  19.043  0.00  0.00    +0.000 A 
ATOM      8  C   UNL     1       1.894   7.310  20.083  0.00  0.00    +0.000 A 
ATOM      9  C   UNL     1       1.319   6.246  20.785  0.00  0.00    +0.000 A 
ATOM     10  C   UNL     1       1.619   4.923  20.450  0.00  0.00    +0.000 A 
ATOM     11  C   UNL     1       2.490   4.608  19.419  0.00  0.00    +0.000 A 
ATOM     12  N   UNL     1       2.720   3.321  19.150  0.00  0.00    +0.000 NA
ATOM     13  H   UNL     1       4.080   1.591  16.929  0.00  0.00    +0.000 HD
ATOM     14  H   UNL     1       3.023   1.154  18.222  0.00  0.00    +0.000 HD
ATOM     15  H   UNL     1       5.185   5.604  16.223  0.00  0.00    +0.000 HD
ATOM     16  H   UNL     1       5.154   6.800  17.396  0.00  0.00    +0.000 HD
ENDROOT
BRANCH   8  17
ATOM     17  C   UNL     1       1.513   8.744  20.420  0.00  0.00    +0.000 C 
BRANCH  17  18
ATOM     18  N   UNL     1       1.007   9.531  19.267  0.00  0.00    +0.000 N 
BRANCH  18  19
ATOM     19  C   UNL     1      -0.192  10.292  19.558  0.00  0.00    +0.000 A 
ATOM     20  C   UNL     1      -0.288  11.029  20.758  0.00  0.00    +0.000 A 
ATOM     21  C   UNL     1      -1.346  11.900  20.993  0.00  0.00    +0.000 A 
ATOM     22  C   UNL     1      -2.336  12.070  20.028  0.00  0.00    +0.000 A 
ATOM     23 CL   UNL     1      -3.577  13.226  20.403  0.00  0.00    +0.000 Cl
ATOM     24  C   UNL     1      -2.316  11.342  18.817  0.00  0.00    +0.000 A 
ATOM     25  C   UNL     1      -3.310  11.506  17.821  0.00  0.00    +0.000 A 
ATOM     26  C   UNL     1      -3.301  10.771  16.639  0.00  0.00    +0.000 A 
ATOM     27  C   UNL     1      -2.307   9.830  16.433  0.00  0.00    +0.000 A 
ATOM     28  C   UNL     1      -1.309   9.655  17.393  0.00  0.00    +0.000 A 
ATOM     29  C   UNL     1      -1.252  10.418  18.589  0.00  0.00    +0.000 A 
ENDBRANCH  18  19
BRANCH  18  30
ATOM     30  N   UNL     1       1.836  10.053  18.312  0.00  0.00    +0.000 NA
ATOM     31  O   UNL     1       1.906   9.347  17.300  0.00  0.00    +0.000 OA
ENDBRANCH  18  30
ENDBRANCH  17  18
ENDBRANCH   8  17
TORSDOF 4
ENDMDL
MODEL 7
REMARK VINA RESULT:      -8.2      3.838      8.303
REMARK  Name = 
REMARK  4 active torsions:
REMARK  status: ('A' for Active; 'I' for Inactive)
REMARK    1  A    between atoms: C_8  and  C_9
REMARK    2  A    between atoms: C_9  and  N_10
REMARK    3  A    between atoms: N_10  and  N_11
REMARK    4  A    between atoms: N_10  and  C_13
REMARK                            x       y       z     vdW  Elec       q    Type
REMARK                         _______ _______ _______ _____ _____    ______ ____
ROOT
ATOM      1  N   UNL     1       5.438   3.228  19.012  0.00  0.00    +0.000 N 
ATOM      2  C   UNL     1       4.898   4.425  18.586  0.00  0.00    +0.000 A 
ATOM      3  N   UNL     1       5.322   4.918  17.423  0.00  0.00    +0.000 NA
ATOM      4  C   UNL     1       4.792   6.087  17.039  0.00  0.00    +0.000 A 
ATOM      5  N   UNL     1       5.265   6.573  15.812  0.00  0.00    +0.000 N 
ATOM      6  C   UNL     1       3.816   6.775  17.772  0.00  0.00    +0.000 A 
ATOM      7  C   UNL     1       3.205   8.007  17.401  0.00  0.00    +0.000 A 
ATOM      8  C   UNL     1       2.224   8.599  18.209  0.00  0.00    +0.000 A 
ATOM      9  C   UNL     1       1.871   7.945  19.394  0.00  0.00    +0.000 A 
ATOM     10  C   UNL     1       2.476   6.737  19.752  0.00  0.00    +0.000 A 
ATOM     11  C   UNL     1       3.441   6.138  18.958  0.00  0.00    +0.000 A 
ATOM     12  N   UNL     1       3.967   4.978  19.361  0.00  0.00    +0.000 NA
ATOM     13  H   UNL     1       5.781   2.700  18.224  0.00  0.00    +0.000 HD
ATOM     14  H   UNL     1       4.789   2.767  19.636  0.00  0.00    +0.000 HD
ATOM     15  H   UNL     1       5.988   5.923  15.504  0.00  0.00    +0.000 HD
ATOM     16  H   UNL     1       5.636   7.511  15.910  0.00  0.00    +0.000 HD
ENDROOT
BRANCH   8  17
ATOM     17  C   UNL     1       1.517   9.883  17.803  0.00  0.00    +0.000 C 
BRANCH  17  18
ATOM     18  N   UNL     1       0.123   9.998  18.303  0.00  0.00    +0.000 N 
BRANCH  18  19
ATOM     19  C   UNL     1      -0.089  11.124  19.192  0.00  0.00    +0.000 A 
ATOM     20  C   UNL     1      -0.139  12.436  18.672  0.00  0.00    +0.000 A 
ATOM     21  C   UNL     1      -0.506  13.518  19.463  0.00  0.00    +0.000 A 
ATOM     22  C   UNL     1      -0.846  13.321  20.798  0.00  0.00    +0.000 A 
ATOM     23 CL   UNL     1      -1.345  14.734  21.677  0.00  0.00    +0.000 Cl
ATOM     24  C   UNL     1      -0.790  12.039  21.390  0.00  0.00    +0.000 A 
ATOM     25  C   UNL     1      -1.138  11.817  22.746  0.00  0.00    +0.000 A 
ATOM     26  C   UNL     1      -1.059  10.557  23.333  0.00  0.00    +0.000 A 
ATOM     27  C   UNL     1      -0.604   9.487  22.583  0.00  0.00    +0.000 A 
ATOM     28  C   UNL     1      -0.263   9.675  21.242  0.00  0.00    +0.000 A 
ATOM     29  C   UNL     1      -0.376  10.931  20.591  0.00  0.00    +0.000 A 
ENDBRANCH  18  19
BRANCH  18  30
ATOM     30  N   UNL     1      -0.958   9.598  17.568  0.00  0.00    +0.000 NA
ATOM     31  O   UNL     1      -1.621  10.547  17.135  0.00  0.00    +0.000 OA
ENDBRANCH  18  30
ENDBRANCH  17  18
ENDBRANCH   8  17
TORSDOF 4
ENDMDL
MODEL 8
REMARK VINA RESULT:      -8.2      4.559      8.495
REMARK  Name = 
REMARK  4 active torsions:
REMARK  status: ('A' for Active; 'I' for Inactive)
REMARK    1  A    between atoms: C_8  and  C_9
REMARK    2  A    between atoms: C_9  and  N_10
REMARK    3  A    between atoms: N_10  and  N_11
REMARK    4  A    between atoms: N_10  and  C_13
REMARK                            x       y       z     vdW  Elec       q    Type
REMARK                         _______ _______ _______ _____ _____    ______ ____
ROOT
ATOM      1  N   UNL     1       2.586   6.133  19.938  0.00  0.00    +0.000 N 
ATOM      2  C   UNL     1       1.978   7.368  20.045  0.00  0.00    +0.000 A 
ATOM      3  N   UNL     1       2.000   8.167  18.979  0.00  0.00    +0.000 NA
ATOM      4  C   UNL     1       1.415   9.364  19.114  0.00  0.00    +0.000 A 
ATOM      5  N   UNL     1       1.462  10.174  17.971  0.00  0.00    +0.000 N 
ATOM      6  C   UNL     1       0.772   9.786  20.285  0.00  0.00    +0.000 A 
ATOM      7  C   UNL     1       0.118  11.037  20.476  0.00  0.00    +0.000 A 
ATOM      8  C   UNL     1      -0.508  11.346  21.691  0.00  0.00    +0.000 A 
ATOM      9  C   UNL     1      -0.463  10.391  22.712  0.00  0.00    +0.000 A 
ATOM     10  C   UNL     1       0.182   9.167  22.518  0.00  0.00    +0.000 A 
ATOM     11  C   UNL     1       0.798   8.846  21.319  0.00  0.00    +0.000 A 
ATOM     12  N   UNL     1       1.386   7.652  21.204  0.00  0.00    +0.000 NA
ATOM     13  H   UNL     1       2.621   5.846  18.971  0.00  0.00    +0.000 HD
ATOM     14  H   UNL     1       2.171   5.492  20.600  0.00  0.00    +0.000 HD
ATOM     15  H   UNL     1       2.012   9.666  17.280  0.00  0.00    +0.000 HD
ATOM     16  H   UNL     1       1.878  11.074  18.178  0.00  0.00    +0.000 HD
ENDROOT
BRANCH   8  17
ATOM     17  C   UNL     1      -1.264  12.650  21.896  0.00  0.00    +0.000 C 
BRANCH  17  18
ATOM     18  N   UNL     1      -1.827  13.234  20.652  0.00  0.00    +0.000 N 
BRANCH  18  19
ATOM     19  C   UNL     1      -3.116  12.686  20.280  0.00  0.00    +0.000 A 
ATOM     20  C   UNL     1      -4.236  12.877  21.119  0.00  0.00    +0.000 A 
ATOM     21  C   UNL     1      -5.516  12.514  20.717  0.00  0.00    +0.000 A 
ATOM     22  C   UNL     1      -5.719  11.959  19.456  0.00  0.00    +0.000 A 
ATOM     23 CL   UNL     1      -7.366  11.598  19.037  0.00  0.00    +0.000 Cl
ATOM     24  C   UNL     1      -4.639  11.714  18.578  0.00  0.00    +0.000 A 
ATOM     25  C   UNL     1      -4.827  11.155  17.289  0.00  0.00    +0.000 A 
ATOM     26  C   UNL     1      -3.760  10.894  16.434  0.00  0.00    +0.000 A 
ATOM     27  C   UNL     1      -2.470  11.161  16.858  0.00  0.00    +0.000 A 
ATOM     28  C   UNL     1      -2.257  11.720  18.120  0.00  0.00    +0.000 A 
ATOM     29  C   UNL     1      -3.318  12.049  19.002  0.00  0.00    +0.000 A 
ENDBRANCH  18  19
BRANCH  18  30
ATOM     30  N   UNL     1      -1.588  14.526  20.272  0.00  0.00    +0.000 NA
ATOM     31  O   UNL     1      -0.706  14.617  19.410  0.00  0.00    +0.000 OA
ENDBRANCH  18  30
ENDBRANCH  17  18
ENDBRANCH   8  17
TORSDOF 4
ENDMDL
MODEL 9
REMARK VINA RESULT:      -8.1      4.040      8.257
REMARK  Name = 
REMARK  4 active torsions:
REMARK  status: ('A' for Active; 'I' for Inactive)
REMARK    1  A    between atoms: C_8  and  C_9
REMARK    2  A    between atoms: C_9  and  N_10
REMARK    3  A    between atoms: N_10  and  N_11
REMARK    4  A    between atoms: N_10  and  C_13
REMARK                            x       y       z     vdW  Elec       q    Type
REMARK                         _______ _______ _______ _____ _____    ______ ____
ROOT
ATOM      1  N   UNL     1       6.904   3.977  13.014  0.00  0.00    +0.000 N 
ATOM      2  C   UNL     1       6.533   4.430  14.264  0.00  0.00    +0.000 A 
ATOM      3  N   UNL     1       7.243   5.421  14.803  0.00  0.00    +0.000 NA
ATOM      4  C   UNL     1       6.869   5.833  16.022  0.00  0.00    +0.000 A 
ATOM      5  N   UNL     1       7.642   6.874  16.553  0.00  0.00    +0.000 N 
ATOM      6  C   UNL     1       5.776   5.301  16.719  0.00  0.00    +0.000 A 
ATOM      7  C   UNL     1       5.323   5.715  18.005  0.00  0.00    +0.000 A 
ATOM      8  C   UNL     1       4.204   5.120  18.601  0.00  0.00    +0.000 A 
ATOM      9  C   UNL     1       3.550   4.103  17.898  0.00  0.00    +0.000 A 
ATOM     10  C   UNL     1       4.001   3.702  16.638  0.00  0.00    +0.000 A 
ATOM     11  C   UNL     1       5.102   4.287  16.033  0.00  0.00    +0.000 A 
ATOM     12  N   UNL     1       5.467   3.858  14.823  0.00  0.00    +0.000 NA
ATOM     13  H   UNL     1       7.404   4.699  12.517  0.00  0.00    +0.000 HD
ATOM     14  H   UNL     1       6.107   3.560  12.554  0.00  0.00    +0.000 HD
ATOM     15  H   UNL     1       8.389   7.050  15.883  0.00  0.00    +0.000 HD
ATOM     16  H   UNL     1       8.017   6.623  17.460  0.00  0.00    +0.000 HD
ENDROOT
BRANCH   8  17
ATOM     17  C   UNL     1       3.668   5.586  19.947  0.00  0.00    +0.000 C 
BRANCH  17  18
ATOM     18  N   UNL     1       2.244   6.007  19.926  0.00  0.00    +0.000 N 
BRANCH  18  19
ATOM     19  C   UNL     1       2.049   7.396  19.557  0.00  0.00    +0.000 A 
ATOM     20  C   UNL     1       2.444   7.852  18.280  0.00  0.00    +0.000 A 
ATOM     21  C   UNL     1       2.123   9.127  17.832  0.00  0.00    +0.000 A 
ATOM     22  C   UNL     1       1.384   9.985  18.643  0.00  0.00    +0.000 A 
ATOM     23 CL   UNL     1       0.990  11.533  17.959  0.00  0.00    +0.000 Cl
ATOM     24  C   UNL     1       0.981   9.603  19.943  0.00  0.00    +0.000 A 
ATOM     25  C   UNL     1       0.224  10.460  20.780  0.00  0.00    +0.000 A 
ATOM     26  C   UNL     1      -0.152  10.091  22.069  0.00  0.00    +0.000 A 
ATOM     27  C   UNL     1       0.243   8.861  22.564  0.00  0.00    +0.000 A 
ATOM     28  C   UNL     1       0.981   7.993  21.757  0.00  0.00    +0.000 A 
ATOM     29  C   UNL     1       1.343   8.308  20.422  0.00  0.00    +0.000 A 
ENDBRANCH  18  19
BRANCH  18  30
ATOM     30  N   UNL     1       1.227   5.151  19.605  0.00  0.00    +0.000 NA
ATOM     31  O   UNL     1       0.846   4.477  20.568  0.00  0.00    +0.000 OA
ENDBRANCH  18  30
ENDBRANCH  17  18
ENDBRANCH   8  17
TORSDOF 4
ENDMDL
