MODEL 1
REMARK VINA RESULT:      -7.9      0.000      0.000
REMARK  Name = 
REMARK  9 active torsions:
REMARK  status: ('A' for Active; 'I' for Inactive)
REMARK    1  A    between atoms: C_1  and  C_2
REMARK    2  A    between atoms: C_2  and  C_3
REMARK    3  A    between atoms: C_2  and  C_4
REMARK    4  A    between atoms: C_2  and  C_8
REMARK    5  A    between atoms: C_4  and  C_5
REMARK    6  A    between atoms: C_5  and  O_7
REMARK    7  A    between atoms: C_8  and  C_9
REMARK    8  A    between atoms: N_18  and  C_19
REMARK    9  A    between atoms: C_19  and  C_20
REMARK                            x       y       z     vdW  Elec       q    Type
REMARK                         _______ _______ _______ _____ _____    ______ ____
ROOT
ATOM      1  C   UNL     1       2.971   4.380  17.636  0.00  0.00    +0.000 A 
ATOM      2  N   UNL     1       3.393   3.984  16.444  0.00  0.00    +0.000 NA
ATOM      3  C   UNL     1       4.627   4.551  16.259  0.00  0.00    +0.000 A 
ATOM      4  C   UNL     1       5.485   4.479  15.152  0.00  0.00    +0.000 A 
ATOM      5  C   UNL     1       6.699   5.168  15.209  0.00  0.00    +0.000 A 
ATOM      6 CL   UNL     1       7.750   5.138  13.842  0.00  0.00    +0.000 Cl
ATOM      7  C   UNL     1       7.073   5.890  16.342  0.00  0.00    +0.000 A 
ATOM      8  C   UNL     1       6.224   5.974  17.452  0.00  0.00    +0.000 A 
ATOM      9  C   UNL     1       4.994   5.306  17.366  0.00  0.00    +0.000 A 
ATOM     10  N   UNL     1       3.891   5.246  18.199  0.00  0.00    +0.000 N 
ENDROOT
BRANCH   1  11
ATOM     11  C   UNL     1       1.617   4.032  18.218  0.00  0.00    +0.000 C 
BRANCH  11  13
ATOM     12  C   UNL     1       0.358   2.035  19.053  0.00  0.00    +0.000 C 
ATOM     13  C   UNL     1       1.597   2.924  19.331  0.00  0.00    +0.000 C 
ATOM     14  C   UNL     1       1.423   3.578  20.718  0.00  0.00    +0.000 C 
BRANCH  13  15
ATOM     15  C   UNL     1       2.880   2.051  19.256  0.00  0.00    +0.000 C 
BRANCH  15  16
ATOM     16  C   UNL     1       3.936   2.253  20.327  0.00  0.00    +0.000 C 
ATOM     17  O   UNL     1       3.793   2.102  21.532  0.00  0.00    +0.000 OA
BRANCH  16  18
ATOM     18  O   UNL     1       5.117   2.657  19.794  0.00  0.00    +0.000 OA
ATOM     19  H   UNL     1       5.063   3.533  19.362  0.00  0.00    +0.000 HD
ENDBRANCH  16  18
ENDBRANCH  15  16
ENDBRANCH  13  15
ENDBRANCH  11  13
ENDBRANCH   1  11
BRANCH  10  20
ATOM     20  C   UNL     1       3.677   6.155  19.320  0.00  0.00    +0.000 C 
BRANCH  20  21
ATOM     21  C   UNL     1       2.782   7.334  19.048  0.00  0.00    +0.000 A 
ATOM     22  C   UNL     1       2.794   8.102  17.877  0.00  0.00    +0.000 A 
ATOM     23  C   UNL     1       1.953   9.215  17.753  0.00  0.00    +0.000 A 
ATOM     24  C   UNL     1       1.081   9.556  18.787  0.00  0.00    +0.000 A 
ATOM     25 CL   UNL     1       0.081  10.947  18.641  0.00  0.00    +0.000 Cl
ATOM     26  C   UNL     1       1.019   8.779  19.936  0.00  0.00    +0.000 A 
ATOM     27  C   UNL     1       1.864   7.681  20.052  0.00  0.00    +0.000 A 
ATOM     28  F   UNL     1       1.800   6.937  21.165  0.00  0.00    +0.000 F 
ENDBRANCH  20  21
ENDBRANCH  10  20
TORSDOF 7
ENDMDL
MODEL 2
REMARK VINA RESULT:      -7.6      0.903      1.339
REMARK  Name = 
REMARK  9 active torsions:
REMARK  status: ('A' for Active; 'I' for Inactive)
REMARK    1  A    between atoms: C_1  and  C_2
REMARK    2  A    between atoms: C_2  and  C_3
REMARK    3  A    between atoms: C_2  and  C_4
REMARK    4  A    between atoms: C_2  and  C_8
REMARK    5  A    between atoms: C_4  and  C_5
REMARK    6  A    between atoms: C_5  and  O_7
REMARK    7  A    between atoms: C_8  and  C_9
REMARK    8  A    between atoms: N_18  and  C_19
REMARK    9  A    between atoms: C_19  and  C_20
REMARK                            x       y       z     vdW  Elec       q    Type
REMARK                         _______ _______ _______ _____ _____    ______ ____
ROOT
ATOM      1  C   UNL     1       2.899   4.386  17.540  0.00  0.00    +0.000 A 
ATOM      2  N   UNL     1       3.389   4.031  16.362  0.00  0.00    +0.000 NA
ATOM      3  C   UNL     1       4.645   4.574  16.282  0.00  0.00    +0.000 A 
ATOM      4  C   UNL     1       5.571   4.528  15.230  0.00  0.00    +0.000 A 
ATOM      5  C   UNL     1       6.794   5.183  15.395  0.00  0.00    +0.000 A 
ATOM      6 CL   UNL     1       7.931   5.185  14.099  0.00  0.00    +0.000 Cl
ATOM      7  C   UNL     1       7.110   5.847  16.580  0.00  0.00    +0.000 A 
ATOM      8  C   UNL     1       6.192   5.904  17.636  0.00  0.00    +0.000 A 
ATOM      9  C   UNL     1       4.956   5.272  17.442  0.00  0.00    +0.000 A 
ATOM     10  N   UNL     1       3.800   5.205  18.199  0.00  0.00    +0.000 N 
ENDROOT
BRANCH   1  11
ATOM     11  C   UNL     1       1.503   4.047  18.018  0.00  0.00    +0.000 C 
BRANCH  11  13
ATOM     12  C   UNL     1       2.800   2.322  19.287  0.00  0.00    +0.000 C 
ATOM     13  C   UNL     1       1.392   2.954  19.140  0.00  0.00    +0.000 C 
ATOM     14  C   UNL     1       0.408   1.850  18.701  0.00  0.00    +0.000 C 
BRANCH  13  15
ATOM     15  C   UNL     1       0.977   3.598  20.492  0.00  0.00    +0.000 C 
BRANCH  15  16
ATOM     16  C   UNL     1       1.806   3.264  21.718  0.00  0.00    +0.000 C 
ATOM     17  O   UNL     1       1.744   2.240  22.385  0.00  0.00    +0.000 OA
BRANCH  16  18
ATOM     18  O   UNL     1       2.658   4.271  22.036  0.00  0.00    +0.000 OA
ATOM     19  H   UNL     1       2.263   5.158  21.924  0.00  0.00    +0.000 HD
ENDBRANCH  16  18
ENDBRANCH  15  16
ENDBRANCH  13  15
ENDBRANCH  11  13
ENDBRANCH   1  11
BRANCH  10  20
ATOM     20  C   UNL     1       3.534   6.070  19.343  0.00  0.00    +0.000 C 
BRANCH  20  21
ATOM     21  C   UNL     1       2.713   7.300  19.059  0.00  0.00    +0.000 A 
ATOM     22  C   UNL     1       2.771   8.053  17.880  0.00  0.00    +0.000 A 
ATOM     23  C   UNL     1       2.000   9.214  17.745  0.00  0.00    +0.000 A 
ATOM     24  C   UNL     1       1.153   9.621  18.776  0.00  0.00    +0.000 A 
ATOM     25 CL   UNL     1       0.242  11.069  18.616  0.00  0.00    +0.000 Cl
ATOM     26  C   UNL     1       1.045   8.861  19.933  0.00  0.00    +0.000 A 
ATOM     27  C   UNL     1       1.820   7.714  20.060  0.00  0.00    +0.000 A 
ATOM     28  F   UNL     1       1.712   6.987  21.181  0.00  0.00    +0.000 F 
ENDBRANCH  20  21
ENDBRANCH  10  20
TORSDOF 7
ENDMDL
MODEL 3
REMARK VINA RESULT:      -7.5      1.140      1.558
REMARK  Name = 
REMARK  9 active torsions:
REMARK  status: ('A' for Active; 'I' for Inactive)
REMARK    1  A    between atoms: C_1  and  C_2
REMARK    2  A    between atoms: C_2  and  C_3
REMARK    3  A    between atoms: C_2  and  C_4
REMARK    4  A    between atoms: C_2  and  C_8
REMARK    5  A    between atoms: C_4  and  C_5
REMARK    6  A    between atoms: C_5  and  O_7
REMARK    7  A    between atoms: C_8  and  C_9
REMARK    8  A    between atoms: N_18  and  C_19
REMARK    9  A    between atoms: C_19  and  C_20
REMARK                            x       y       z     vdW  Elec       q    Type
REMARK                         _______ _______ _______ _____ _____    ______ ____
ROOT
ATOM      1  C   UNL     1       3.970   3.358  18.292  0.00  0.00    +0.000 A 
ATOM      2  N   UNL     1       4.336   2.930  17.093  0.00  0.00    +0.000 NA
ATOM      3  C   UNL     1       5.221   3.853  16.602  0.00  0.00    +0.000 A 
ATOM      4  C   UNL     1       5.875   3.891  15.361  0.00  0.00    +0.000 A 
ATOM      5  C   UNL     1       6.730   4.963  15.095  0.00  0.00    +0.000 A 
ATOM      6 CL   UNL     1       7.506   5.061  13.559  0.00  0.00    +0.000 Cl
ATOM      7  C   UNL     1       6.959   5.963  16.040  0.00  0.00    +0.000 A 
ATOM      8  C   UNL     1       6.309   5.939  17.281  0.00  0.00    +0.000 A 
ATOM      9  C   UNL     1       5.427   4.875  17.518  0.00  0.00    +0.000 A 
ATOM     10  N   UNL     1       4.562   4.581  18.556  0.00  0.00    +0.000 N 
ENDROOT
BRANCH   1  11
ATOM     11  C   UNL     1       2.949   2.664  19.168  0.00  0.00    +0.000 C 
BRANCH  11  13
ATOM     12  C   UNL     1       0.598   1.947  18.690  0.00  0.00    +0.000 C 
ATOM     13  C   UNL     1       1.468   3.176  19.058  0.00  0.00    +0.000 C 
ATOM     14  C   UNL     1       1.354   4.211  17.919  0.00  0.00    +0.000 C 
BRANCH  13  15
ATOM     15  C   UNL     1       0.987   3.754  20.418  0.00  0.00    +0.000 C 
BRANCH  15  16
ATOM     16  C   UNL     1       1.516   3.110  21.686  0.00  0.00    +0.000 C 
ATOM     17  O   UNL     1       1.043   2.142  22.266  0.00  0.00    +0.000 OA
BRANCH  16  18
ATOM     18  O   UNL     1       2.614   3.755  22.155  0.00  0.00    +0.000 OA
ATOM     19  H   UNL     1       2.777   3.593  23.105  0.00  0.00    +0.000 HD
ENDBRANCH  16  18
ENDBRANCH  15  16
ENDBRANCH  13  15
ENDBRANCH  11  13
ENDBRANCH   1  11
BRANCH  10  20
ATOM     20  C   UNL     1       4.180   5.542  19.586  0.00  0.00    +0.000 C 
BRANCH  20  21
ATOM     21  C   UNL     1       3.292   6.670  19.135  0.00  0.00    +0.000 A 
ATOM     22  C   UNL     1       3.367   7.306  17.889  0.00  0.00    +0.000 A 
ATOM     23  C   UNL     1       2.524   8.385  17.595  0.00  0.00    +0.000 A 
ATOM     24  C   UNL     1       1.590   8.824  18.533  0.00  0.00    +0.000 A 
ATOM     25 CL   UNL     1       0.588  10.175  18.178  0.00  0.00    +0.000 Cl
ATOM     26  C   UNL     1       1.466   8.176  19.755  0.00  0.00    +0.000 A 
ATOM     27  C   UNL     1       2.313   7.110  20.039  0.00  0.00    +0.000 A 
ATOM     28  F   UNL     1       2.190   6.491  21.222  0.00  0.00    +0.000 F 
ENDBRANCH  20  21
ENDBRANCH  10  20
TORSDOF 7
ENDMDL
MODEL 4
REMARK VINA RESULT:      -7.4      1.705      5.308
REMARK  Name = 
REMARK  9 active torsions:
REMARK  status: ('A' for Active; 'I' for Inactive)
REMARK    1  A    between atoms: C_1  and  C_2
REMARK    2  A    between atoms: C_2  and  C_3
REMARK    3  A    between atoms: C_2  and  C_4
REMARK    4  A    between atoms: C_2  and  C_8
REMARK    5  A    between atoms: C_4  and  C_5
REMARK    6  A    between atoms: C_5  and  O_7
REMARK    7  A    between atoms: C_8  and  C_9
REMARK    8  A    between atoms: N_18  and  C_19
REMARK    9  A    between atoms: C_19  and  C_20
REMARK                            x       y       z     vdW  Elec       q    Type
REMARK                         _______ _______ _______ _____ _____    ______ ____
ROOT
ATOM      1  C   UNL     1       2.529   5.744  20.243  0.00  0.00    +0.000 A 
ATOM      2  N   UNL     1       1.513   6.528  20.571  0.00  0.00    +0.000 NA
ATOM      3  C   UNL     1       1.569   7.611  19.734  0.00  0.00    +0.000 A 
ATOM      4  C   UNL     1       0.747   8.747  19.688  0.00  0.00    +0.000 A 
ATOM      5  C   UNL     1       1.027   9.729  18.735  0.00  0.00    +0.000 A 
ATOM      6 CL   UNL     1       0.065  11.159  18.691  0.00  0.00    +0.000 Cl
ATOM      7  C   UNL     1       2.075   9.583  17.826  0.00  0.00    +0.000 A 
ATOM      8  C   UNL     1       2.905   8.456  17.864  0.00  0.00    +0.000 A 
ATOM      9  C   UNL     1       2.633   7.497  18.849  0.00  0.00    +0.000 A 
ATOM     10  N   UNL     1       3.278   6.337  19.242  0.00  0.00    +0.000 N 
ENDROOT
BRANCH   1  11
ATOM     11  C   UNL     1       2.878   4.457  20.961  0.00  0.00    +0.000 C 
BRANCH  11  13
ATOM     12  C   UNL     1       1.041   3.624  19.478  0.00  0.00    +0.000 C 
ATOM     13  C   UNL     1       2.120   3.165  20.492  0.00  0.00    +0.000 C 
ATOM     14  C   UNL     1       1.408   2.509  21.694  0.00  0.00    +0.000 C 
BRANCH  13  15
ATOM     15  C   UNL     1       3.097   2.183  19.789  0.00  0.00    +0.000 C 
BRANCH  15  16
ATOM     16  C   UNL     1       4.525   2.121  20.299  0.00  0.00    +0.000 C 
ATOM     17  O   UNL     1       4.901   1.654  21.365  0.00  0.00    +0.000 OA
BRANCH  16  18
ATOM     18  O   UNL     1       5.395   2.680  19.419  0.00  0.00    +0.000 OA
ATOM     19  H   UNL     1       5.748   2.041  18.770  0.00  0.00    +0.000 HD
ENDBRANCH  16  18
ENDBRANCH  15  16
ENDBRANCH  13  15
ENDBRANCH  11  13
ENDBRANCH   1  11
BRANCH  10  20
ATOM     20  C   UNL     1       4.633   5.988  18.829  0.00  0.00    +0.000 C 
BRANCH  20  21
ATOM     21  C   UNL     1       4.770   5.413  17.444  0.00  0.00    +0.000 A 
ATOM     22  C   UNL     1       4.175   4.224  17.004  0.00  0.00    +0.000 A 
ATOM     23  C   UNL     1       4.416   3.752  15.707  0.00  0.00    +0.000 A 
ATOM     24  C   UNL     1       5.234   4.472  14.837  0.00  0.00    +0.000 A 
ATOM     25 CL   UNL     1       5.555   3.864  13.262  0.00  0.00    +0.000 Cl
ATOM     26  C   UNL     1       5.793   5.678  15.238  0.00  0.00    +0.000 A 
ATOM     27  C   UNL     1       5.554   6.133  16.530  0.00  0.00    +0.000 A 
ATOM     28  F   UNL     1       6.100   7.297  16.911  0.00  0.00    +0.000 F 
ENDBRANCH  20  21
ENDBRANCH  10  20
TORSDOF 7
ENDMDL
MODEL 5
REMARK VINA RESULT:      -7.3      0.925      1.310
REMARK  Name = 
REMARK  9 active torsions:
REMARK  status: ('A' for Active; 'I' for Inactive)
REMARK    1  A    between atoms: C_1  and  C_2
REMARK    2  A    between atoms: C_2  and  C_3
REMARK    3  A    between atoms: C_2  and  C_4
REMARK    4  A    between atoms: C_2  and  C_8
REMARK    5  A    between atoms: C_4  and  C_5
REMARK    6  A    between atoms: C_5  and  O_7
REMARK    7  A    between atoms: C_8  and  C_9
REMARK    8  A    between atoms: N_18  and  C_19
REMARK    9  A    between atoms: C_19  and  C_20
REMARK                            x       y       z     vdW  Elec       q    Type
REMARK                         _______ _______ _______ _____ _____    ______ ____
ROOT
ATOM      1  C   UNL     1       3.055   4.390  17.599  0.00  0.00    +0.000 A 
ATOM      2  N   UNL     1       3.393   4.001  16.379  0.00  0.00    +0.000 NA
ATOM      3  C   UNL     1       4.656   4.483  16.151  0.00  0.00    +0.000 A 
ATOM      4  C   UNL     1       5.455   4.382  15.003  0.00  0.00    +0.000 A 
ATOM      5  C   UNL     1       6.718   4.980  15.020  0.00  0.00    +0.000 A 
ATOM      6 CL   UNL     1       7.701   4.915  13.606  0.00  0.00    +0.000 Cl
ATOM      7  C   UNL     1       7.195   5.639  16.153  0.00  0.00    +0.000 A 
ATOM      8  C   UNL     1       6.405   5.750  17.304  0.00  0.00    +0.000 A 
ATOM      9  C   UNL     1       5.127   5.176  17.258  0.00  0.00    +0.000 A 
ATOM     10  N   UNL     1       4.062   5.171  18.141  0.00  0.00    +0.000 N 
ENDROOT
BRANCH   1  11
ATOM     11  C   UNL     1       1.707   4.123  18.235  0.00  0.00    +0.000 C 
BRANCH  11  13
ATOM     12  C   UNL     1       0.408   2.128  19.009  0.00  0.00    +0.000 C 
ATOM     13  C   UNL     1       1.657   2.990  19.321  0.00  0.00    +0.000 C 
ATOM     14  C   UNL     1       1.480   3.613  20.722  0.00  0.00    +0.000 C 
BRANCH  13  15
ATOM     15  C   UNL     1       2.927   2.098  19.239  0.00  0.00    +0.000 C 
BRANCH  15  16
ATOM     16  C   UNL     1       3.972   2.253  20.328  0.00  0.00    +0.000 C 
ATOM     17  O   UNL     1       3.801   2.110  21.530  0.00  0.00    +0.000 OA
BRANCH  16  18
ATOM     18  O   UNL     1       5.180   2.601  19.816  0.00  0.00    +0.000 OA
ATOM     19  H   UNL     1       5.843   2.805  20.504  0.00  0.00    +0.000 HD
ENDBRANCH  16  18
ENDBRANCH  15  16
ENDBRANCH  13  15
ENDBRANCH  11  13
ENDBRANCH   1  11
BRANCH  10  20
ATOM     20  C   UNL     1       3.966   6.059  19.295  0.00  0.00    +0.000 C 
BRANCH  20  21
ATOM     21  C   UNL     1       2.936   7.153  19.198  0.00  0.00    +0.000 A 
ATOM     22  C   UNL     1       2.010   7.479  20.197  0.00  0.00    +0.000 A 
ATOM     23  C   UNL     1       1.058   8.482  19.977  0.00  0.00    +0.000 A 
ATOM     24  C   UNL     1       1.036   9.179  18.769  0.00  0.00    +0.000 A 
ATOM     25 CL   UNL     1      -0.162  10.380  18.494  0.00  0.00    +0.000 Cl
ATOM     26  C   UNL     1       1.976   8.904  17.785  0.00  0.00    +0.000 A 
ATOM     27  C   UNL     1       2.912   7.901  18.010  0.00  0.00    +0.000 A 
ATOM     28  F   UNL     1       3.815   7.640  17.055  0.00  0.00    +0.000 F 
ENDBRANCH  20  21
ENDBRANCH  10  20
TORSDOF 7
ENDMDL
MODEL 6
REMARK VINA RESULT:      -7.3      2.007      5.578
REMARK  Name = 
REMARK  9 active torsions:
REMARK  status: ('A' for Active; 'I' for Inactive)
REMARK    1  A    between atoms: C_1  and  C_2
REMARK    2  A    between atoms: C_2  and  C_3
REMARK    3  A    between atoms: C_2  and  C_4
REMARK    4  A    between atoms: C_2  and  C_8
REMARK    5  A    between atoms: C_4  and  C_5
REMARK    6  A    between atoms: C_5  and  O_7
REMARK    7  A    between atoms: C_8  and  C_9
REMARK    8  A    between atoms: N_18  and  C_19
REMARK    9  A    between atoms: C_19  and  C_20
REMARK                            x       y       z     vdW  Elec       q    Type
REMARK                         _______ _______ _______ _____ _____    ______ ____
ROOT
ATOM      1  C   UNL     1       3.158   5.424  19.323  0.00  0.00    +0.000 A 
ATOM      2  N   UNL     1       2.055   5.989  19.789  0.00  0.00    +0.000 NA
ATOM      3  C   UNL     1       1.994   7.242  19.237  0.00  0.00    +0.000 A 
ATOM      4  C   UNL     1       1.048   8.258  19.432  0.00  0.00    +0.000 A 
ATOM      5  C   UNL     1       1.222   9.466  18.752  0.00  0.00    +0.000 A 
ATOM      6 CL   UNL     1       0.101  10.750  19.012  0.00  0.00    +0.000 Cl
ATOM      7  C   UNL     1       2.290   9.660  17.876  0.00  0.00    +0.000 A 
ATOM      8  C   UNL     1       3.245   8.655  17.676  0.00  0.00    +0.000 A 
ATOM      9  C   UNL     1       3.075   7.462  18.393  0.00  0.00    +0.000 A 
ATOM     10  N   UNL     1       3.845   6.320  18.522  0.00  0.00    +0.000 N 
ENDROOT
BRANCH   1  11
ATOM     11  C   UNL     1       3.646   4.049  19.727  0.00  0.00    +0.000 C 
BRANCH  11  13
ATOM     12  C   UNL     1       4.238   1.846  18.694  0.00  0.00    +0.000 C 
ATOM     13  C   UNL     1       3.065   2.834  18.920  0.00  0.00    +0.000 C 
ATOM     14  C   UNL     1       2.560   3.312  17.542  0.00  0.00    +0.000 C 
BRANCH  13  15
ATOM     15  C   UNL     1       1.947   2.123  19.733  0.00  0.00    +0.000 C 
BRANCH  15  16
ATOM     16  C   UNL     1       1.348   2.868  20.912  0.00  0.00    +0.000 C 
ATOM     17  O   UNL     1       1.658   2.743  22.088  0.00  0.00    +0.000 OA
BRANCH  16  18
ATOM     18  O   UNL     1       0.367   3.720  20.519  0.00  0.00    +0.000 OA
ATOM     19  H   UNL     1       0.612   4.660  20.625  0.00  0.00    +0.000 HD
ENDBRANCH  16  18
ENDBRANCH  15  16
ENDBRANCH  13  15
ENDBRANCH  11  13
ENDBRANCH   1  11
BRANCH  10  20
ATOM     20  C   UNL     1       5.236   6.232  18.091  0.00  0.00    +0.000 C 
BRANCH  20  21
ATOM     21  C   UNL     1       5.465   5.623  16.733  0.00  0.00    +0.000 A 
ATOM     22  C   UNL     1       5.070   6.193  15.517  0.00  0.00    +0.000 A 
ATOM     23  C   UNL     1       5.285   5.510  14.313  0.00  0.00    +0.000 A 
ATOM     24  C   UNL     1       5.913   4.265  14.313  0.00  0.00    +0.000 A 
ATOM     25 CL   UNL     1       6.136   3.417  12.835  0.00  0.00    +0.000 Cl
ATOM     26  C   UNL     1       6.356   3.705  15.504  0.00  0.00    +0.000 A 
ATOM     27  C   UNL     1       6.130   4.388  16.694  0.00  0.00    +0.000 A 
ATOM     28  F   UNL     1       6.559   3.839  17.840  0.00  0.00    +0.000 F 
ENDBRANCH  20  21
ENDBRANCH  10  20
TORSDOF 7
ENDMDL
MODEL 7
REMARK VINA RESULT:      -7.2      2.115      5.540
REMARK  Name = 
REMARK  9 active torsions:
REMARK  status: ('A' for Active; 'I' for Inactive)
REMARK    1  A    between atoms: C_1  and  C_2
REMARK    2  A    between atoms: C_2  and  C_3
REMARK    3  A    between atoms: C_2  and  C_4
REMARK    4  A    between atoms: C_2  and  C_8
REMARK    5  A    between atoms: C_4  and  C_5
REMARK    6  A    between atoms: C_5  and  O_7
REMARK    7  A    between atoms: C_8  and  C_9
REMARK    8  A    between atoms: N_18  and  C_19
REMARK    9  A    between atoms: C_19  and  C_20
REMARK                            x       y       z     vdW  Elec       q    Type
REMARK                         _______ _______ _______ _____ _____    ______ ____
ROOT
ATOM      1  C   UNL     1       2.498   5.774  20.414  0.00  0.00    +0.000 A 
ATOM      2  N   UNL     1       1.482   6.583  20.676  0.00  0.00    +0.000 NA
ATOM      3  C   UNL     1       1.571   7.622  19.788  0.00  0.00    +0.000 A 
ATOM      4  C   UNL     1       0.764   8.762  19.664  0.00  0.00    +0.000 A 
ATOM      5  C   UNL     1       1.078   9.693  18.671  0.00  0.00    +0.000 A 
ATOM      6 CL   UNL     1       0.133  11.128  18.531  0.00  0.00    +0.000 Cl
ATOM      7  C   UNL     1       2.149   9.492  17.800  0.00  0.00    +0.000 A 
ATOM      8  C   UNL     1       2.965   8.361  17.915  0.00  0.00    +0.000 A 
ATOM      9  C   UNL     1       2.657   7.454  18.939  0.00  0.00    +0.000 A 
ATOM     10  N   UNL     1       3.279   6.310  19.405  0.00  0.00    +0.000 N 
ENDROOT
BRANCH   1  11
ATOM     11  C   UNL     1       2.815   4.521  21.204  0.00  0.00    +0.000 C 
BRANCH  11  13
ATOM     12  C   UNL     1       1.680   2.461  22.060  0.00  0.00    +0.000 C 
ATOM     13  C   UNL     1       2.076   3.208  20.762  0.00  0.00    +0.000 C 
ATOM     14  C   UNL     1       3.039   2.310  19.958  0.00  0.00    +0.000 C 
BRANCH  13  15
ATOM     15  C   UNL     1       0.791   3.549  19.956  0.00  0.00    +0.000 C 
BRANCH  15  16
ATOM     16  C   UNL     1       0.666   2.986  18.553  0.00  0.00    +0.000 C 
ATOM     17  O   UNL     1       0.255   1.876  18.245  0.00  0.00    +0.000 OA
BRANCH  16  18
ATOM     18  O   UNL     1       1.094   3.872  17.619  0.00  0.00    +0.000 OA
ATOM     19  H   UNL     1       2.058   4.033  17.655  0.00  0.00    +0.000 HD
ENDBRANCH  16  18
ENDBRANCH  15  16
ENDBRANCH  13  15
ENDBRANCH  11  13
ENDBRANCH   1  11
BRANCH  10  20
ATOM     20  C   UNL     1       4.641   5.928  19.046  0.00  0.00    +0.000 C 
BRANCH  20  21
ATOM     21  C   UNL     1       4.820   5.356  17.665  0.00  0.00    +0.000 A 
ATOM     22  C   UNL     1       4.344   4.109  17.242  0.00  0.00    +0.000 A 
ATOM     23  C   UNL     1       4.617   3.652  15.946  0.00  0.00    +0.000 A 
ATOM     24  C   UNL     1       5.348   4.443  15.060  0.00  0.00    +0.000 A 
ATOM     25 CL   UNL     1       5.712   3.855  13.486  0.00  0.00    +0.000 Cl
ATOM     26  C   UNL     1       5.787   5.703  15.445  0.00  0.00    +0.000 A 
ATOM     27  C   UNL     1       5.517   6.144  16.736  0.00  0.00    +0.000 A 
ATOM     28  F   UNL     1       5.946   7.360  17.101  0.00  0.00    +0.000 F 
ENDBRANCH  20  21
ENDBRANCH  10  20
TORSDOF 7
ENDMDL
MODEL 8
REMARK VINA RESULT:      -7.0      1.212      1.832
REMARK  Name = 
REMARK  9 active torsions:
REMARK  status: ('A' for Active; 'I' for Inactive)
REMARK    1  A    between atoms: C_1  and  C_2
REMARK    2  A    between atoms: C_2  and  C_3
REMARK    3  A    between atoms: C_2  and  C_4
REMARK    4  A    between atoms: C_2  and  C_8
REMARK    5  A    between atoms: C_4  and  C_5
REMARK    6  A    between atoms: C_5  and  O_7
REMARK    7  A    between atoms: C_8  and  C_9
REMARK    8  A    between atoms: N_18  and  C_19
REMARK    9  A    between atoms: C_19  and  C_20
REMARK                            x       y       z     vdW  Elec       q    Type
REMARK                         _______ _______ _______ _____ _____    ______ ____
ROOT
ATOM      1  C   UNL     1       3.171   4.312  17.398  0.00  0.00    +0.000 A 
ATOM      2  N   UNL     1       3.508   3.962  16.166  0.00  0.00    +0.000 NA
ATOM      3  C   UNL     1       4.777   4.436  15.958  0.00  0.00    +0.000 A 
ATOM      4  C   UNL     1       5.578   4.366  14.809  0.00  0.00    +0.000 A 
ATOM      5  C   UNL     1       6.849   4.946  14.851  0.00  0.00    +0.000 A 
ATOM      6 CL   UNL     1       7.834   4.919  13.437  0.00  0.00    +0.000 Cl
ATOM      7  C   UNL     1       7.331   5.558  16.008  0.00  0.00    +0.000 A 
ATOM      8  C   UNL     1       6.539   5.638  17.160  0.00  0.00    +0.000 A 
ATOM      9  C   UNL     1       5.254   5.082  17.091  0.00  0.00    +0.000 A 
ATOM     10  N   UNL     1       4.186   5.060  17.970  0.00  0.00    +0.000 N 
ENDROOT
BRANCH   1  11
ATOM     11  C   UNL     1       1.818   4.040  18.021  0.00  0.00    +0.000 C 
BRANCH  11  13
ATOM     12  C   UNL     1       2.945   1.969  18.863  0.00  0.00    +0.000 C 
ATOM     13  C   UNL     1       1.771   2.942  19.143  0.00  0.00    +0.000 C 
ATOM     14  C   UNL     1       0.450   2.150  19.048  0.00  0.00    +0.000 C 
BRANCH  13  15
ATOM     15  C   UNL     1       1.963   3.585  20.544  0.00  0.00    +0.000 C 
BRANCH  15  16
ATOM     16  C   UNL     1       1.969   2.665  21.750  0.00  0.00    +0.000 C 
ATOM     17  O   UNL     1       1.009   2.364  22.445  0.00  0.00    +0.000 OA
BRANCH  16  18
ATOM     18  O   UNL     1       3.214   2.192  22.013  0.00  0.00    +0.000 OA
ATOM     19  H   UNL     1       3.350   1.275  21.703  0.00  0.00    +0.000 HD
ENDBRANCH  16  18
ENDBRANCH  15  16
ENDBRANCH  13  15
ENDBRANCH  11  13
ENDBRANCH   1  11
BRANCH  10  20
ATOM     20  C   UNL     1       4.098   5.907  19.155  0.00  0.00    +0.000 C 
BRANCH  20  21
ATOM     21  C   UNL     1       3.078   7.012  19.097  0.00  0.00    +0.000 A 
ATOM     22  C   UNL     1       2.157   7.312  20.110  0.00  0.00    +0.000 A 
ATOM     23  C   UNL     1       1.213   8.330  19.926  0.00  0.00    +0.000 A 
ATOM     24  C   UNL     1       1.193   9.067  18.743  0.00  0.00    +0.000 A 
ATOM     25 CL   UNL     1       0.005  10.287  18.512  0.00  0.00    +0.000 Cl
ATOM     26  C   UNL     1       2.129   8.818  17.747  0.00  0.00    +0.000 A 
ATOM     27  C   UNL     1       3.057   7.800  17.936  0.00  0.00    +0.000 A 
ATOM     28  F   UNL     1       3.955   7.564  16.970  0.00  0.00    +0.000 F 
ENDBRANCH  20  21
ENDBRANCH  10  20
TORSDOF 7
ENDMDL
MODEL 9
REMARK VINA RESULT:      -7.0      1.983      2.484
REMARK  Name = 
REMARK  9 active torsions:
REMARK  status: ('A' for Active; 'I' for Inactive)
REMARK    1  A    between atoms: C_1  and  C_2
REMARK    2  A    between atoms: C_2  and  C_3
REMARK    3  A    between atoms: C_2  and  C_4
REMARK    4  A    between atoms: C_2  and  C_8
REMARK    5  A    between atoms: C_4  and  C_5
REMARK    6  A    between atoms: C_5  and  O_7
REMARK    7  A    between atoms: C_8  and  C_9
REMARK    8  A    between atoms: N_18  and  C_19
REMARK    9  A    between atoms: C_19  and  C_20
REMARK                            x       y       z     vdW  Elec       q    Type
REMARK                         _______ _______ _______ _____ _____    ______ ____
ROOT
ATOM      1  C   UNL     1       3.850   4.878  19.591  0.00  0.00    +0.000 A 
ATOM      2  N   UNL     1       4.995   4.336  19.204  0.00  0.00    +0.000 NA
ATOM      3  C   UNL     1       5.309   4.906  17.998  0.00  0.00    +0.000 A 
ATOM      4  C   UNL     1       6.397   4.656  17.149  0.00  0.00    +0.000 A 
ATOM      5  C   UNL     1       6.482   5.371  15.952  0.00  0.00    +0.000 A 
ATOM      6 CL   UNL     1       7.782   5.047  14.867  0.00  0.00    +0.000 Cl
ATOM      7  C   UNL     1       5.532   6.333  15.611  0.00  0.00    +0.000 A 
ATOM      8  C   UNL     1       4.438   6.590  16.447  0.00  0.00    +0.000 A 
ATOM      9  C   UNL     1       4.348   5.838  17.627  0.00  0.00    +0.000 A 
ATOM     10  N   UNL     1       3.388   5.749  18.619  0.00  0.00    +0.000 N 
ENDROOT
BRANCH   1  11
ATOM     11  C   UNL     1       3.106   4.488  20.851  0.00  0.00    +0.000 C 
BRANCH  11  13
ATOM     12  C   UNL     1       0.677   4.071  20.412  0.00  0.00    +0.000 C 
ATOM     13  C   UNL     1       2.023   3.361  20.704  0.00  0.00    +0.000 C 
ATOM     14  C   UNL     1       1.887   2.588  22.032  0.00  0.00    +0.000 C 
BRANCH  13  15
ATOM     15  C   UNL     1       2.372   2.420  19.517  0.00  0.00    +0.000 C 
BRANCH  15  16
ATOM     16  C   UNL     1       1.432   2.404  18.327  0.00  0.00    +0.000 C 
ATOM     17  O   UNL     1       0.293   1.958  18.301  0.00  0.00    +0.000 OA
BRANCH  16  18
ATOM     18  O   UNL     1       2.010   2.946  17.225  0.00  0.00    +0.000 OA
ATOM     19  H   UNL     1       2.286   2.276  16.569  0.00  0.00    +0.000 HD
ENDBRANCH  16  18
ENDBRANCH  15  16
ENDBRANCH  13  15
ENDBRANCH  11  13
ENDBRANCH   1  11
BRANCH  10  20
ATOM     20  C   UNL     1       2.039   6.288  18.486  0.00  0.00    +0.000 C 
BRANCH  20  21
ATOM     21  C   UNL     1       1.762   7.558  19.247  0.00  0.00    +0.000 A 
ATOM     22  C   UNL     1       1.531   7.637  20.626  0.00  0.00    +0.000 A 
ATOM     23  C   UNL     1       1.228   8.867  21.222  0.00  0.00    +0.000 A 
ATOM     24  C   UNL     1       1.172  10.028  20.451  0.00  0.00    +0.000 A 
ATOM     25 CL   UNL     1       0.759  11.527  21.185  0.00  0.00    +0.000 Cl
ATOM     26  C   UNL     1       1.446   9.979  19.090  0.00  0.00    +0.000 A 
ATOM     27  C   UNL     1       1.738   8.751  18.507  0.00  0.00    +0.000 A 
ATOM     28  F   UNL     1       1.999   8.710  17.193  0.00  0.00    +0.000 F 
ENDBRANCH  20  21
ENDBRANCH  10  20
TORSDOF 7
ENDMDL
