MODEL 1
REMARK VINA RESULT:      -8.2      0.000      0.000
REMARK  Name = 
REMARK  2 active torsions:
REMARK  status: ('A' for Active; 'I' for Inactive)
REMARK    1  A    between atoms: C_1  and  C_2
REMARK    2  A    between atoms: C_14  and  C_15
REMARK                            x       y       z     vdW  Elec       q    Type
REMARK                         _______ _______ _______ _____ _____    ______ ____
ROOT
ATOM      1  C   UNL     1       5.961   3.908  14.121  0.00  0.00    +0.000 C 
ATOM      2  C   UNL     1       6.419   4.300  15.505  0.00  0.00    +0.000 C 
ATOM      3  O   UNL     1       7.596   4.596  15.718  0.00  0.00    +0.000 OA
ATOM      4  N   UNL     1       5.422   4.343  16.473  0.00  0.00    +0.000 N 
ATOM      5  N   UNL     1       4.149   3.764  16.199  0.00  0.00    +0.000 NA
ATOM      6  C   UNL     1       3.444   3.939  17.262  0.00  0.00    +0.000 C 
ATOM      7  C   UNL     1       1.775   3.480  17.771  0.00  0.00    +0.000 C 
ATOM      8  C   UNL     1       1.101   3.607  19.468  0.00  0.00    +0.000 C 
ATOM      9  C   UNL     1       2.358   4.526  20.562  0.00  0.00    +0.000 C 
ATOM     10  N   UNL     1       3.861   4.388  19.996  0.00  0.00    +0.000 NA
ATOM     11  C   UNL     1       3.295   3.352  19.294  0.00  0.00    +0.000 C 
ATOM     12  C   UNL     1       2.200   4.689  18.335  0.00  0.00    +0.000 C 
ATOM     13  C   UNL     1       4.344   4.899  18.558  0.00  0.00    +0.000 C 
ATOM     14  C   UNL     1       5.722   4.693  17.910  0.00  0.00    +0.000 C 
ENDROOT
BRANCH  14  15
ATOM     15  C   UNL     1       6.430   6.019  18.170  0.00  0.00    +0.000 A 
ATOM     16  C   UNL     1       6.099   7.124  17.368  0.00  0.00    +0.000 A 
ATOM     17  C   UNL     1       6.958   8.222  17.288  0.00  0.00    +0.000 A 
ATOM     18  C   UNL     1       8.149   8.230  18.011  0.00  0.00    +0.000 A 
ATOM     19  C   UNL     1       8.461   7.167  18.855  0.00  0.00    +0.000 A 
ATOM     20  C   UNL     1       7.599   6.075  18.952  0.00  0.00    +0.000 A 
ENDBRANCH  14  15
TORSDOF 1
ENDMDL
MODEL 2
REMARK VINA RESULT:      -8.1      2.864      5.980
REMARK  Name = 
REMARK  2 active torsions:
REMARK  status: ('A' for Active; 'I' for Inactive)
REMARK    1  A    between atoms: C_1  and  C_2
REMARK    2  A    between atoms: C_14  and  C_15
REMARK                            x       y       z     vdW  Elec       q    Type
REMARK                         _______ _______ _______ _____ _____    ______ ____
ROOT
ATOM      1  C   UNL     1       1.361   9.285  18.731  0.00  0.00    +0.000 C 
ATOM      2  C   UNL     1       1.825   8.062  19.485  0.00  0.00    +0.000 C 
ATOM      3  O   UNL     1       1.359   7.792  20.592  0.00  0.00    +0.000 OA
ATOM      4  N   UNL     1       2.755   7.270  18.821  0.00  0.00    +0.000 N 
ATOM      5  N   UNL     1       3.408   7.774  17.659  0.00  0.00    +0.000 NA
ATOM      6  C   UNL     1       4.210   6.844  17.272  0.00  0.00    +0.000 C 
ATOM      7  C   UNL     1       5.418   6.679  15.941  0.00  0.00    +0.000 C 
ATOM      8  C   UNL     1       6.649   5.335  15.775  0.00  0.00    +0.000 C 
ATOM      9  C   UNL     1       6.294   4.009  17.094  0.00  0.00    +0.000 C 
ATOM     10  N   UNL     1       5.516   4.620  18.367  0.00  0.00    +0.000 NA
ATOM     11  C   UNL     1       5.969   5.802  17.832  0.00  0.00    +0.000 C 
ATOM     12  C   UNL     1       4.805   5.463  16.271  0.00  0.00    +0.000 C 
ATOM     13  C   UNL     1       4.077   5.319  18.306  0.00  0.00    +0.000 C 
ATOM     14  C   UNL     1       3.337   6.027  19.451  0.00  0.00    +0.000 C 
ENDROOT
BRANCH  14  15
ATOM     15  C   UNL     1       2.352   4.967  19.934  0.00  0.00    +0.000 A 
ATOM     16  C   UNL     1       2.467   4.497  21.253  0.00  0.00    +0.000 A 
ATOM     17  C   UNL     1       1.878   3.288  21.627  0.00  0.00    +0.000 A 
ATOM     18  C   UNL     1       1.165   2.540  20.692  0.00  0.00    +0.000 A 
ATOM     19  C   UNL     1       0.995   3.022  19.396  0.00  0.00    +0.000 A 
ATOM     20  C   UNL     1       1.567   4.237  19.022  0.00  0.00    +0.000 A 
ENDBRANCH  14  15
TORSDOF 1
ENDMDL
MODEL 3
REMARK VINA RESULT:      -7.5      2.629      5.827
REMARK  Name = 
REMARK  2 active torsions:
REMARK  status: ('A' for Active; 'I' for Inactive)
REMARK    1  A    between atoms: C_1  and  C_2
REMARK    2  A    between atoms: C_14  and  C_15
REMARK                            x       y       z     vdW  Elec       q    Type
REMARK                         _______ _______ _______ _____ _____    ______ ____
ROOT
ATOM      1  C   UNL     1       1.553   8.819  18.751  0.00  0.00    +0.000 C 
ATOM      2  C   UNL     1       2.152   7.594  19.397  0.00  0.00    +0.000 C 
ATOM      3  O   UNL     1       1.787   7.230  20.515  0.00  0.00    +0.000 OA
ATOM      4  N   UNL     1       3.086   6.909  18.626  0.00  0.00    +0.000 N 
ATOM      5  N   UNL     1       3.618   7.524  17.456  0.00  0.00    +0.000 NA
ATOM      6  C   UNL     1       4.451   6.677  16.959  0.00  0.00    +0.000 C 
ATOM      7  C   UNL     1       5.570   6.674  15.543  0.00  0.00    +0.000 C 
ATOM      8  C   UNL     1       6.875   5.434  15.214  0.00  0.00    +0.000 C 
ATOM      9  C   UNL     1       6.707   4.015  16.471  0.00  0.00    +0.000 C 
ATOM     10  N   UNL     1       5.982   4.496  17.827  0.00  0.00    +0.000 NA
ATOM     11  C   UNL     1       6.314   5.736  17.336  0.00  0.00    +0.000 C 
ATOM     12  C   UNL     1       5.067   5.401  15.839  0.00  0.00    +0.000 C 
ATOM     13  C   UNL     1       4.498   5.092  17.906  0.00  0.00    +0.000 C 
ATOM     14  C   UNL     1       3.794   5.679  19.138  0.00  0.00    +0.000 C 
ENDROOT
BRANCH  14  15
ATOM     15  C   UNL     1       2.921   4.525  19.623  0.00  0.00    +0.000 A 
ATOM     16  C   UNL     1       1.979   3.979  18.736  0.00  0.00    +0.000 A 
ATOM     17  C   UNL     1       0.913   3.217  19.217  0.00  0.00    +0.000 A 
ATOM     18  C   UNL     1       0.781   2.987  20.585  0.00  0.00    +0.000 A 
ATOM     19  C   UNL     1       1.740   3.474  21.470  0.00  0.00    +0.000 A 
ATOM     20  C   UNL     1       2.816   4.222  20.993  0.00  0.00    +0.000 A 
ENDBRANCH  14  15
TORSDOF 1
ENDMDL
MODEL 4
REMARK VINA RESULT:      -7.2      0.615      1.231
REMARK  Name = 
REMARK  2 active torsions:
REMARK  status: ('A' for Active; 'I' for Inactive)
REMARK    1  A    between atoms: C_1  and  C_2
REMARK    2  A    between atoms: C_14  and  C_15
REMARK                            x       y       z     vdW  Elec       q    Type
REMARK                         _______ _______ _______ _____ _____    ______ ____
ROOT
ATOM      1  C   UNL     1       5.668   3.976  13.592  0.00  0.00    +0.000 C 
ATOM      2  C   UNL     1       6.342   4.200  14.925  0.00  0.00    +0.000 C 
ATOM      3  O   UNL     1       7.569   4.262  15.007  0.00  0.00    +0.000 OA
ATOM      4  N   UNL     1       5.484   4.371  16.005  0.00  0.00    +0.000 N 
ATOM      5  N   UNL     1       4.102   4.052  15.864  0.00  0.00    +0.000 NA
ATOM      6  C   UNL     1       3.564   4.295  17.008  0.00  0.00    +0.000 C 
ATOM      7  C   UNL     1       1.904   4.123  17.695  0.00  0.00    +0.000 C 
ATOM      8  C   UNL     1       1.457   4.277  19.463  0.00  0.00    +0.000 C 
ATOM      9  C   UNL     1       2.978   4.887  20.431  0.00  0.00    +0.000 C 
ATOM     10  N   UNL     1       4.356   4.507  19.688  0.00  0.00    +0.000 NA
ATOM     11  C   UNL     1       3.531   3.633  19.023  0.00  0.00    +0.000 C 
ATOM     12  C   UNL     1       2.610   5.200  18.246  0.00  0.00    +0.000 C 
ATOM     13  C   UNL     1       4.766   5.000  18.220  0.00  0.00    +0.000 C 
ATOM     14  C   UNL     1       6.000   4.579  17.408  0.00  0.00    +0.000 C 
ENDROOT
BRANCH  14  15
ATOM     15  C   UNL     1       6.970   5.737  17.627  0.00  0.00    +0.000 A 
ATOM     16  C   UNL     1       7.824   5.693  18.741  0.00  0.00    +0.000 A 
ATOM     17  C   UNL     1       8.435   6.858  19.209  0.00  0.00    +0.000 A 
ATOM     18  C   UNL     1       8.205   8.074  18.568  0.00  0.00    +0.000 A 
ATOM     19  C   UNL     1       7.406   8.121  17.428  0.00  0.00    +0.000 A 
ATOM     20  C   UNL     1       6.806   6.958  16.946  0.00  0.00    +0.000 A 
ENDBRANCH  14  15
TORSDOF 1
ENDMDL
MODEL 5
REMARK VINA RESULT:      -7.0      2.257      3.557
REMARK  Name = 
REMARK  2 active torsions:
REMARK  status: ('A' for Active; 'I' for Inactive)
REMARK    1  A    between atoms: C_1  and  C_2
REMARK    2  A    between atoms: C_14  and  C_15
REMARK                            x       y       z     vdW  Elec       q    Type
REMARK                         _______ _______ _______ _____ _____    ______ ____
ROOT
ATOM      1  C   UNL     1       2.352   9.034  18.143  0.00  0.00    +0.000 C 
ATOM      2  C   UNL     1       3.005   7.847  17.479  0.00  0.00    +0.000 C 
ATOM      3  O   UNL     1       3.623   7.980  16.422  0.00  0.00    +0.000 OA
ATOM      4  N   UNL     1       2.893   6.643  18.164  0.00  0.00    +0.000 N 
ATOM      5  N   UNL     1       1.972   6.532  19.246  0.00  0.00    +0.000 NA
ATOM      6  C   UNL     1       2.074   5.323  19.676  0.00  0.00    +0.000 C 
ATOM      7  C   UNL     1       1.252   4.355  20.958  0.00  0.00    +0.000 C 
ATOM      8  C   UNL     1       1.388   2.543  21.183  0.00  0.00    +0.000 C 
ATOM      9  C   UNL     1       2.724   1.876  20.003  0.00  0.00    +0.000 C 
ATOM     10  N   UNL     1       2.924   2.830  18.720  0.00  0.00    +0.000 NA
ATOM     11  C   UNL     1       1.703   3.308  19.127  0.00  0.00    +0.000 C 
ATOM     12  C   UNL     1       2.586   3.976  20.764  0.00  0.00    +0.000 C 
ATOM     13  C   UNL     1       3.378   4.364  18.787  0.00  0.00    +0.000 C 
ATOM     14  C   UNL     1       3.470   5.359  17.620  0.00  0.00    +0.000 C 
ENDROOT
BRANCH  14  15
ATOM     15  C   UNL     1       4.957   5.355  17.277  0.00  0.00    +0.000 A 
ATOM     16  C   UNL     1       5.357   4.836  16.035  0.00  0.00    +0.000 A 
ATOM     17  C   UNL     1       6.682   4.449  15.825  0.00  0.00    +0.000 A 
ATOM     18  C   UNL     1       7.619   4.581  16.847  0.00  0.00    +0.000 A 
ATOM     19  C   UNL     1       7.249   5.147  18.065  0.00  0.00    +0.000 A 
ATOM     20  C   UNL     1       5.931   5.551  18.275  0.00  0.00    +0.000 A 
ENDBRANCH  14  15
TORSDOF 1
ENDMDL
MODEL 6
REMARK VINA RESULT:      -6.9      2.673      3.841
REMARK  Name = 
REMARK  2 active torsions:
REMARK  status: ('A' for Active; 'I' for Inactive)
REMARK    1  A    between atoms: C_1  and  C_2
REMARK    2  A    between atoms: C_14  and  C_15
REMARK                            x       y       z     vdW  Elec       q    Type
REMARK                         _______ _______ _______ _____ _____    ______ ____
ROOT
ATOM      1  C   UNL     1       5.575   6.017  15.583  0.00  0.00    +0.000 C 
ATOM      2  C   UNL     1       5.011   6.546  16.879  0.00  0.00    +0.000 C 
ATOM      3  O   UNL     1       5.359   7.644  17.315  0.00  0.00    +0.000 OA
ATOM      4  N   UNL     1       4.063   5.735  17.492  0.00  0.00    +0.000 N 
ATOM      5  N   UNL     1       3.895   4.390  17.049  0.00  0.00    +0.000 NA
ATOM      6  C   UNL     1       2.973   3.886  17.793  0.00  0.00    +0.000 C 
ATOM      7  C   UNL     1       2.201   2.260  17.934  0.00  0.00    +0.000 C 
ATOM      8  C   UNL     1       1.092   1.717  19.284  0.00  0.00    +0.000 C 
ATOM      9  C   UNL     1       0.687   3.214  20.388  0.00  0.00    +0.000 C 
ATOM     10  N   UNL     1       1.832   4.345  20.311  0.00  0.00    +0.000 NA
ATOM     11  C   UNL     1       2.557   3.301  19.788  0.00  0.00    +0.000 C 
ATOM     12  C   UNL     1       1.323   3.307  18.244  0.00  0.00    +0.000 C 
ATOM     13  C   UNL     1       2.264   5.115  18.975  0.00  0.00    +0.000 C 
ATOM     14  C   UNL     1       3.423   6.109  18.807  0.00  0.00    +0.000 C 
ENDROOT
BRANCH  14  15
ATOM     15  C   UNL     1       2.729   7.466  18.881  0.00  0.00    +0.000 A 
ATOM     16  C   UNL     1       2.115   7.840  20.087  0.00  0.00    +0.000 A 
ATOM     17  C   UNL     1       1.155   8.854  20.107  0.00  0.00    +0.000 A 
ATOM     18  C   UNL     1       0.804   9.507  18.928  0.00  0.00    +0.000 A 
ATOM     19  C   UNL     1       1.447   9.186  17.734  0.00  0.00    +0.000 A 
ATOM     20  C   UNL     1       2.418   8.185  17.711  0.00  0.00    +0.000 A 
ENDBRANCH  14  15
TORSDOF 1
ENDMDL
MODEL 7
REMARK VINA RESULT:      -6.8      1.741      3.598
REMARK  Name = 
REMARK  2 active torsions:
REMARK  status: ('A' for Active; 'I' for Inactive)
REMARK    1  A    between atoms: C_1  and  C_2
REMARK    2  A    between atoms: C_14  and  C_15
REMARK                            x       y       z     vdW  Elec       q    Type
REMARK                         _______ _______ _______ _____ _____    ______ ____
ROOT
ATOM      1  C   UNL     1       7.907   5.502  19.851  0.00  0.00    +0.000 C 
ATOM      2  C   UNL     1       6.953   5.757  18.710  0.00  0.00    +0.000 C 
ATOM      3  O   UNL     1       7.279   6.479  17.767  0.00  0.00    +0.000 OA
ATOM      4  N   UNL     1       5.735   5.091  18.790  0.00  0.00    +0.000 N 
ATOM      5  N   UNL     1       5.351   4.471  20.015  0.00  0.00    +0.000 NA
ATOM      6  C   UNL     1       4.193   3.951  19.800  0.00  0.00    +0.000 C 
ATOM      7  C   UNL     1       2.999   3.047  20.808  0.00  0.00    +0.000 C 
ATOM      8  C   UNL     1       1.276   2.656  20.330  0.00  0.00    +0.000 C 
ATOM      9  C   UNL     1       1.018   3.141  18.508  0.00  0.00    +0.000 C 
ATOM     10  N   UNL     1       2.039   4.297  18.043  0.00  0.00    +0.000 NA
ATOM     11  C   UNL     1       2.173   4.456  19.401  0.00  0.00    +0.000 C 
ATOM     12  C   UNL     1       2.982   2.654  19.463  0.00  0.00    +0.000 C 
ATOM     13  C   UNL     1       3.634   4.163  18.053  0.00  0.00    +0.000 C 
ATOM     14  C   UNL     1       4.663   5.260  17.741  0.00  0.00    +0.000 C 
ENDROOT
BRANCH  14  15
ATOM     15  C   UNL     1       5.053   4.969  16.295  0.00  0.00    +0.000 A 
ATOM     16  C   UNL     1       5.503   3.679  15.969  0.00  0.00    +0.000 A 
ATOM     17  C   UNL     1       6.226   3.458  14.796  0.00  0.00    +0.000 A 
ATOM     18  C   UNL     1       6.503   4.518  13.935  0.00  0.00    +0.000 A 
ATOM     19  C   UNL     1       6.014   5.792  14.218  0.00  0.00    +0.000 A 
ATOM     20  C   UNL     1       5.276   6.015  15.380  0.00  0.00    +0.000 A 
ENDBRANCH  14  15
TORSDOF 1
ENDMDL
MODEL 8
REMARK VINA RESULT:      -6.8      2.291      3.319
REMARK  Name = 
REMARK  2 active torsions:
REMARK  status: ('A' for Active; 'I' for Inactive)
REMARK    1  A    between atoms: C_1  and  C_2
REMARK    2  A    between atoms: C_14  and  C_15
REMARK                            x       y       z     vdW  Elec       q    Type
REMARK                         _______ _______ _______ _____ _____    ______ ____
ROOT
ATOM      1  C   UNL     1       1.443   8.655  18.288  0.00  0.00    +0.000 C 
ATOM      2  C   UNL     1       2.692   7.960  17.805  0.00  0.00    +0.000 C 
ATOM      3  O   UNL     1       3.603   8.598  17.276  0.00  0.00    +0.000 OA
ATOM      4  N   UNL     1       2.743   6.591  18.043  0.00  0.00    +0.000 N 
ATOM      5  N   UNL     1       1.561   5.902  18.441  0.00  0.00    +0.000 NA
ATOM      6  C   UNL     1       1.900   4.667  18.577  0.00  0.00    +0.000 C 
ATOM      7  C   UNL     1       1.024   3.146  18.998  0.00  0.00    +0.000 C 
ATOM      8  C   UNL     1       1.693   1.449  18.846  0.00  0.00    +0.000 C 
ATOM      9  C   UNL     1       3.541   1.554  18.404  0.00  0.00    +0.000 C 
ATOM     10  N   UNL     1       3.904   2.936  17.659  0.00  0.00    +0.000 NA
ATOM     11  C   UNL     1       2.543   2.971  17.477  0.00  0.00    +0.000 C 
ATOM     12  C   UNL     1       2.354   3.145  19.437  0.00  0.00    +0.000 C 
ATOM     13  C   UNL     1       3.704   4.393  18.293  0.00  0.00    +0.000 C 
ATOM     14  C   UNL     1       3.913   5.748  17.599  0.00  0.00    +0.000 C 
ENDROOT
BRANCH  14  15
ATOM     15  C   UNL     1       5.298   6.172  18.077  0.00  0.00    +0.000 A 
ATOM     16  C   UNL     1       6.119   6.895  17.196  0.00  0.00    +0.000 A 
ATOM     17  C   UNL     1       7.496   6.970  17.413  0.00  0.00    +0.000 A 
ATOM     18  C   UNL     1       8.065   6.330  18.512  0.00  0.00    +0.000 A 
ATOM     19  C   UNL     1       7.256   5.659  19.425  0.00  0.00    +0.000 A 
ATOM     20  C   UNL     1       5.878   5.595  19.223  0.00  0.00    +0.000 A 
ENDBRANCH  14  15
TORSDOF 1
ENDMDL
MODEL 9
REMARK VINA RESULT:      -6.7      2.154      3.332
REMARK  Name = 
REMARK  2 active torsions:
REMARK  status: ('A' for Active; 'I' for Inactive)
REMARK    1  A    between atoms: C_1  and  C_2
REMARK    2  A    between atoms: C_14  and  C_15
REMARK                            x       y       z     vdW  Elec       q    Type
REMARK                         _______ _______ _______ _____ _____    ______ ____
ROOT
ATOM      1  C   UNL     1       2.028   8.645  18.489  0.00  0.00    +0.000 C 
ATOM      2  C   UNL     1       3.081   7.800  17.813  0.00  0.00    +0.000 C 
ATOM      3  O   UNL     1       3.932   8.317  17.088  0.00  0.00    +0.000 OA
ATOM      4  N   UNL     1       3.036   6.442  18.107  0.00  0.00    +0.000 N 
ATOM      5  N   UNL     1       1.889   5.901  18.758  0.00  0.00    +0.000 NA
ATOM      6  C   UNL     1       2.119   4.641  18.890  0.00  0.00    +0.000 C 
ATOM      7  C   UNL     1       1.190   3.241  19.548  0.00  0.00    +0.000 C 
ATOM      8  C   UNL     1       1.637   1.476  19.358  0.00  0.00    +0.000 C 
ATOM      9  C   UNL     1       3.364   1.361  18.566  0.00  0.00    +0.000 C 
ATOM     10  N   UNL     1       3.715   2.671  17.696  0.00  0.00    +0.000 NA
ATOM     11  C   UNL     1       2.355   2.852  17.776  0.00  0.00    +0.000 C 
ATOM     12  C   UNL     1       2.573   3.105  19.724  0.00  0.00    +0.000 C 
ATOM     13  C   UNL     1       3.795   4.160  18.281  0.00  0.00    +0.000 C 
ATOM     14  C   UNL     1       4.002   5.461  17.491  0.00  0.00    +0.000 C 
ENDROOT
BRANCH  14  15
ATOM     15  C   UNL     1       5.491   5.743  17.673  0.00  0.00    +0.000 A 
ATOM     16  C   UNL     1       6.114   5.315  18.856  0.00  0.00    +0.000 A 
ATOM     17  C   UNL     1       7.334   5.867  19.252  0.00  0.00    +0.000 A 
ATOM     18  C   UNL     1       7.945   6.845  18.470  0.00  0.00    +0.000 A 
ATOM     19  C   UNL     1       7.366   7.237  17.265  0.00  0.00    +0.000 A 
ATOM     20  C   UNL     1       6.156   6.677  16.856  0.00  0.00    +0.000 A 
ENDBRANCH  14  15
TORSDOF 1
ENDMDL
