MODEL 1
REMARK VINA RESULT:      -7.3      0.000      0.000
REMARK  Name = 
REMARK  10 active torsions:
REMARK  status: ('A' for Active; 'I' for Inactive)
REMARK    1  A    between atoms: C_1  and  C_2
REMARK    2  A    between atoms: N_4  and  C_5
REMARK    3  A    between atoms: N_4  and  C_6
REMARK    4  A    between atoms: C_6  and  C_7
REMARK    5  A    between atoms: C_8  and  C_9
REMARK    6  A    between atoms: C_9  and  N_10
REMARK    7  A    between atoms: C_13  and  O_14
REMARK    8  A    between atoms: O_14  and  S_15
REMARK    9  A    between atoms: S_15  and  C_18
REMARK   10  A    between atoms: C_21  and  C_22
REMARK                            x       y       z     vdW  Elec       q    Type
REMARK                         _______ _______ _______ _____ _____    ______ ____
ROOT
ATOM      1  N   UNL     1       7.220   5.998  17.457  0.00  0.00    +0.000 NA
ATOM      2  C   UNL     1       5.898   6.592  17.711  0.00  0.00    +0.000 C 
ATOM      3  C   UNL     1       5.313   5.696  18.782  0.00  0.00    +0.000 C 
ATOM      4  C   UNL     1       5.625   4.310  18.239  0.00  0.00    +0.000 C 
ATOM      5  C   UNL     1       6.968   4.531  17.502  0.00  0.00    +0.000 C 
ENDROOT
BRANCH   1   6
ATOM      6  C   UNL     1       8.159   6.461  18.496  0.00  0.00    +0.000 C 
BRANCH   6   8
ATOM      7  C   UNL     1       8.584   9.186  18.369  0.00  0.00    +0.000 C 
ATOM      8  C   UNL     1       8.375   7.900  18.435  0.00  0.00    +0.000 C 
BRANCH   7   9
ATOM      9  C   UNL     1       8.829  10.684  18.292  0.00  0.00    +0.000 C 
BRANCH   9  13
ATOM     10  C   UNL     1      12.014  12.012  19.936  0.00  0.00    +0.000 C 
ATOM     11  C   UNL     1      11.036  11.554  18.883  0.00  0.00    +0.000 C 
ATOM     12  O   UNL     1      11.370  11.562  17.692  0.00  0.00    +0.000 OA
ATOM     13  N   UNL     1       9.792  11.114  19.309  0.00  0.00    +0.000 N 
ATOM     14  C   UNL     1       9.351  11.104  20.698  0.00  0.00    +0.000 C 
ENDBRANCH   9  13
ENDBRANCH   7   9
ENDBRANCH   6   8
ENDBRANCH   1   6
BRANCH   4  15
ATOM     15  O   UNL     1       4.608   3.881  17.322  0.00  0.00    +0.000 OA
BRANCH  15  16
ATOM     16  S   UNL     1       3.193   3.349  17.943  0.00  0.00    +0.000 S 
ATOM     17  O   UNL     1       2.315   3.023  16.836  0.00  0.00    +0.000 OA
ATOM     18  O   UNL     1       3.480   2.378  18.983  0.00  0.00    +0.000 OA
BRANCH  16  19
ATOM     19  C   UNL     1       2.484   4.710  18.814  0.00  0.00    +0.000 A 
ATOM     20  C   UNL     1       2.219   4.564  20.177  0.00  0.00    +0.000 A 
ATOM     21  C   UNL     1       1.791   5.669  20.911  0.00  0.00    +0.000 A 
ATOM     22  C   UNL     1       1.632   6.913  20.286  0.00  0.00    +0.000 A 
ATOM     23  C   UNL     1       1.201   8.117  21.072  0.00  0.00    +0.000 C 
ATOM     24  C   UNL     1       1.897   7.037  18.913  0.00  0.00    +0.000 A 
ATOM     25  C   UNL     1       2.324   5.937  18.171  0.00  0.00    +0.000 A 
ENDBRANCH  16  19
ENDBRANCH  15  16
ENDBRANCH   4  15
TORSDOF 7
ENDMDL
MODEL 2
REMARK VINA RESULT:      -7.1      1.119      1.583
REMARK  Name = 
REMARK  10 active torsions:
REMARK  status: ('A' for Active; 'I' for Inactive)
REMARK    1  A    between atoms: C_1  and  C_2
REMARK    2  A    between atoms: N_4  and  C_5
REMARK    3  A    between atoms: N_4  and  C_6
REMARK    4  A    between atoms: C_6  and  C_7
REMARK    5  A    between atoms: C_8  and  C_9
REMARK    6  A    between atoms: C_9  and  N_10
REMARK    7  A    between atoms: C_13  and  O_14
REMARK    8  A    between atoms: O_14  and  S_15
REMARK    9  A    between atoms: S_15  and  C_18
REMARK   10  A    between atoms: C_21  and  C_22
REMARK                            x       y       z     vdW  Elec       q    Type
REMARK                         _______ _______ _______ _____ _____    ______ ____
ROOT
ATOM      1  N   UNL     1       7.054   6.968  18.341  0.00  0.00    +0.000 NA
ATOM      2  C   UNL     1       7.751   5.958  19.153  0.00  0.00    +0.000 C 
ATOM      3  C   UNL     1       7.828   4.760  18.229  0.00  0.00    +0.000 C 
ATOM      4  C   UNL     1       6.412   4.698  17.675  0.00  0.00    +0.000 C 
ATOM      5  C   UNL     1       6.003   6.190  17.626  0.00  0.00    +0.000 C 
ENDROOT
BRANCH   1   6
ATOM      6  C   UNL     1       8.026   7.605  17.434  0.00  0.00    +0.000 C 
BRANCH   6   8
ATOM      7  C   UNL     1       8.507  10.242  18.093  0.00  0.00    +0.000 C 
ATOM      8  C   UNL     1       8.271   8.997  17.787  0.00  0.00    +0.000 C 
BRANCH   7   9
ATOM      9  C   UNL     1       8.784  11.694  18.450  0.00  0.00    +0.000 C 
BRANCH   9  13
ATOM     10  C   UNL     1      12.333  11.885  19.857  0.00  0.00    +0.000 C 
ATOM     11  C   UNL     1      10.848  11.640  19.760  0.00  0.00    +0.000 C 
ATOM     12  O   UNL     1      10.234  11.202  20.740  0.00  0.00    +0.000 OA
ATOM     13  N   UNL     1      10.223  11.945  18.561  0.00  0.00    +0.000 N 
ATOM     14  C   UNL     1      10.909  12.446  17.376  0.00  0.00    +0.000 C 
ENDBRANCH   9  13
ENDBRANCH   7   9
ENDBRANCH   6   8
ENDBRANCH   1   6
BRANCH   4  15
ATOM     15  O   UNL     1       5.551   3.964  18.558  0.00  0.00    +0.000 OA
BRANCH  15  16
ATOM     16  S   UNL     1       4.004   3.722  18.089  0.00  0.00    +0.000 S 
ATOM     17  O   UNL     1       3.929   3.964  16.661  0.00  0.00    +0.000 OA
ATOM     18  O   UNL     1       3.536   2.474  18.664  0.00  0.00    +0.000 OA
BRANCH  16  19
ATOM     19  C   UNL     1       3.036   4.955  18.899  0.00  0.00    +0.000 A 
ATOM     20  C   UNL     1       2.542   4.683  20.176  0.00  0.00    +0.000 A 
ATOM     21  C   UNL     1       1.896   5.692  20.889  0.00  0.00    +0.000 A 
ATOM     22  C   UNL     1       1.747   6.967  20.327  0.00  0.00    +0.000 A 
ATOM     23  C   UNL     1       1.080   8.070  21.095  0.00  0.00    +0.000 C 
ATOM     24  C   UNL     1       2.244   7.218  19.038  0.00  0.00    +0.000 A 
ATOM     25  C   UNL     1       2.890   6.214  18.319  0.00  0.00    +0.000 A 
ENDBRANCH  16  19
ENDBRANCH  15  16
ENDBRANCH   4  15
TORSDOF 7
ENDMDL
MODEL 3
REMARK VINA RESULT:      -7.1      6.776     10.093
REMARK  Name = 
REMARK  10 active torsions:
REMARK  status: ('A' for Active; 'I' for Inactive)
REMARK    1  A    between atoms: C_1  and  C_2
REMARK    2  A    between atoms: N_4  and  C_5
REMARK    3  A    between atoms: N_4  and  C_6
REMARK    4  A    between atoms: C_6  and  C_7
REMARK    5  A    between atoms: C_8  and  C_9
REMARK    6  A    between atoms: C_9  and  N_10
REMARK    7  A    between atoms: C_13  and  O_14
REMARK    8  A    between atoms: O_14  and  S_15
REMARK    9  A    between atoms: S_15  and  C_18
REMARK   10  A    between atoms: C_21  and  C_22
REMARK                            x       y       z     vdW  Elec       q    Type
REMARK                         _______ _______ _______ _____ _____    ______ ____
ROOT
ATOM      1  N   UNL     1       0.225   9.706  19.140  0.00  0.00    +0.000 NA
ATOM      2  C   UNL     1      -0.748  10.527  18.402  0.00  0.00    +0.000 C 
ATOM      3  C   UNL     1      -0.390  11.942  18.808  0.00  0.00    +0.000 C 
ATOM      4  C   UNL     1      -0.235  11.807  20.316  0.00  0.00    +0.000 C 
ATOM      5  C   UNL     1       0.316  10.369  20.471  0.00  0.00    +0.000 C 
ENDROOT
BRANCH   1   6
ATOM      6  C   UNL     1       1.502   9.701  18.402  0.00  0.00    +0.000 C 
BRANCH   6   8
ATOM      7  C   UNL     1       2.531   7.155  18.114  0.00  0.00    +0.000 C 
ATOM      8  C   UNL     1       2.044   8.356  18.260  0.00  0.00    +0.000 C 
BRANCH   7   9
ATOM      9  C   UNL     1       3.098   5.756  17.943  0.00  0.00    +0.000 C 
BRANCH   9  13
ATOM     10  C   UNL     1       0.871   2.954  19.286  0.00  0.00    +0.000 C 
ATOM     11  C   UNL     1       1.513   3.936  18.338  0.00  0.00    +0.000 C 
ATOM     12  O   UNL     1       1.173   3.952  17.149  0.00  0.00    +0.000 OA
ATOM     13  N   UNL     1       2.455   4.809  18.858  0.00  0.00    +0.000 N 
ATOM     14  C   UNL     1       2.897   4.816  20.247  0.00  0.00    +0.000 C 
ENDBRANCH   9  13
ENDBRANCH   7   9
ENDBRANCH   6   8
ENDBRANCH   1   6
BRANCH   4  15
ATOM     15  O   UNL     1      -1.505  11.937  20.973  0.00  0.00    +0.000 OA
BRANCH  15  16
ATOM     16  S   UNL     1      -1.507  12.270  22.573  0.00  0.00    +0.000 S 
ATOM     17  O   UNL     1      -1.093  11.071  23.276  0.00  0.00    +0.000 OA
ATOM     18  O   UNL     1      -0.828  13.535  22.784  0.00  0.00    +0.000 OA
BRANCH  16  19
ATOM     19  C   UNL     1      -3.181  12.605  23.014  0.00  0.00    +0.000 A 
ATOM     20  C   UNL     1      -4.079  12.958  22.004  0.00  0.00    +0.000 A 
ATOM     21  C   UNL     1      -5.433  13.089  22.309  0.00  0.00    +0.000 A 
ATOM     22  C   UNL     1      -5.887  12.867  23.616  0.00  0.00    +0.000 A 
ATOM     23  C   UNL     1      -7.345  12.976  23.951  0.00  0.00    +0.000 C 
ATOM     24  C   UNL     1      -4.967  12.520  24.619  0.00  0.00    +0.000 A 
ATOM     25  C   UNL     1      -3.611  12.388  24.323  0.00  0.00    +0.000 A 
ENDBRANCH  16  19
ENDBRANCH  15  16
ENDBRANCH   4  15
TORSDOF 7
ENDMDL
MODEL 4
REMARK VINA RESULT:      -6.9      6.793     10.033
REMARK  Name = 
REMARK  10 active torsions:
REMARK  status: ('A' for Active; 'I' for Inactive)
REMARK    1  A    between atoms: C_1  and  C_2
REMARK    2  A    between atoms: N_4  and  C_5
REMARK    3  A    between atoms: N_4  and  C_6
REMARK    4  A    between atoms: C_6  and  C_7
REMARK    5  A    between atoms: C_8  and  C_9
REMARK    6  A    between atoms: C_9  and  N_10
REMARK    7  A    between atoms: C_13  and  O_14
REMARK    8  A    between atoms: O_14  and  S_15
REMARK    9  A    between atoms: S_15  and  C_18
REMARK   10  A    between atoms: C_21  and  C_22
REMARK                            x       y       z     vdW  Elec       q    Type
REMARK                         _______ _______ _______ _____ _____    ______ ____
ROOT
ATOM      1  N   UNL     1       0.343   9.937  18.643  0.00  0.00    +0.000 NA
ATOM      2  C   UNL     1      -0.102  11.320  18.410  0.00  0.00    +0.000 C 
ATOM      3  C   UNL     1       0.442  12.067  19.610  0.00  0.00    +0.000 C 
ATOM      4  C   UNL     1       0.059  11.143  20.757  0.00  0.00    +0.000 C 
ATOM      5  C   UNL     1       0.156   9.742  20.108  0.00  0.00    +0.000 C 
ENDROOT
BRANCH   1   6
ATOM      6  C   UNL     1       1.747   9.808  18.211  0.00  0.00    +0.000 C 
BRANCH   6   8
ATOM      7  C   UNL     1       2.573   7.176  18.108  0.00  0.00    +0.000 C 
ATOM      8  C   UNL     1       2.174   8.417  18.151  0.00  0.00    +0.000 C 
BRANCH   7   9
ATOM      9  C   UNL     1       3.039   5.730  18.057  0.00  0.00    +0.000 C 
BRANCH   9  13
ATOM     10  C   UNL     1       0.845   2.822  19.214  0.00  0.00    +0.000 C 
ATOM     11  C   UNL     1       1.696   3.706  18.338  0.00  0.00    +0.000 C 
ATOM     12  O   UNL     1       1.906   3.384  17.162  0.00  0.00    +0.000 OA
ATOM     13  N   UNL     1       2.196   4.874  18.894  0.00  0.00    +0.000 N 
ATOM     14  C   UNL     1       1.989   5.284  20.278  0.00  0.00    +0.000 C 
ENDBRANCH   9  13
ENDBRANCH   7   9
ENDBRANCH   6   8
ENDBRANCH   1   6
BRANCH   4  15
ATOM     15  O   UNL     1      -1.281  11.406  21.199  0.00  0.00    +0.000 OA
BRANCH  15  16
ATOM     16  S   UNL     1      -1.532  12.716  22.143  0.00  0.00    +0.000 S 
ATOM     17  O   UNL     1      -0.700  12.578  23.323  0.00  0.00    +0.000 OA
ATOM     18  O   UNL     1      -1.466  13.904  21.313  0.00  0.00    +0.000 OA
BRANCH  16  19
ATOM     19  C   UNL     1      -3.218  12.648  22.659  0.00  0.00    +0.000 A 
ATOM     20  C   UNL     1      -3.493  12.469  24.016  0.00  0.00    +0.000 A 
ATOM     21  C   UNL     1      -4.812  12.553  24.462  0.00  0.00    +0.000 A 
ATOM     22  C   UNL     1      -5.847  12.817  23.557  0.00  0.00    +0.000 A 
ATOM     23  C   UNL     1      -7.266  12.940  24.029  0.00  0.00    +0.000 C 
ATOM     24  C   UNL     1      -5.550  12.986  22.195  0.00  0.00    +0.000 A 
ATOM     25  C   UNL     1      -4.235  12.903  21.740  0.00  0.00    +0.000 A 
ENDBRANCH  16  19
ENDBRANCH  15  16
ENDBRANCH   4  15
TORSDOF 7
ENDMDL
MODEL 5
REMARK VINA RESULT:      -6.8      4.680      7.365
REMARK  Name = 
REMARK  10 active torsions:
REMARK  status: ('A' for Active; 'I' for Inactive)
REMARK    1  A    between atoms: C_1  and  C_2
REMARK    2  A    between atoms: N_4  and  C_5
REMARK    3  A    between atoms: N_4  and  C_6
REMARK    4  A    between atoms: C_6  and  C_7
REMARK    5  A    between atoms: C_8  and  C_9
REMARK    6  A    between atoms: C_9  and  N_10
REMARK    7  A    between atoms: C_13  and  O_14
REMARK    8  A    between atoms: O_14  and  S_15
REMARK    9  A    between atoms: S_15  and  C_18
REMARK   10  A    between atoms: C_21  and  C_22
REMARK                            x       y       z     vdW  Elec       q    Type
REMARK                         _______ _______ _______ _____ _____    ______ ____
ROOT
ATOM      1  N   UNL     1       2.081   3.252  19.026  0.00  0.00    +0.000 NA
ATOM      2  C   UNL     1       2.904   2.117  19.475  0.00  0.00    +0.000 C 
ATOM      3  C   UNL     1       3.959   2.773  20.341  0.00  0.00    +0.000 C 
ATOM      4  C   UNL     1       4.386   3.953  19.479  0.00  0.00    +0.000 C 
ATOM      5  C   UNL     1       3.075   4.326  18.745  0.00  0.00    +0.000 C 
ENDROOT
BRANCH   1   6
ATOM      6  C   UNL     1       1.128   3.604  20.095  0.00  0.00    +0.000 C 
BRANCH   6   8
ATOM      7  C   UNL     1       1.261   6.282  20.749  0.00  0.00    +0.000 C 
ATOM      8  C   UNL     1       1.202   5.015  20.449  0.00  0.00    +0.000 C 
BRANCH   7   9
ATOM      9  C   UNL     1       1.330   7.760  21.097  0.00  0.00    +0.000 C 
BRANCH   9  13
ATOM     10  C   UNL     1       0.974  10.679  18.655  0.00  0.00    +0.000 C 
ATOM     11  C   UNL     1       0.841   9.833  19.896  0.00  0.00    +0.000 C 
ATOM     12  O   UNL     1       0.196  10.259  20.862  0.00  0.00    +0.000 OA
ATOM     13  N   UNL     1       1.438   8.583  19.889  0.00  0.00    +0.000 N 
ATOM     14  C   UNL     1       2.221   8.047  18.782  0.00  0.00    +0.000 C 
ENDBRANCH   9  13
ENDBRANCH   7   9
ENDBRANCH   6   8
ENDBRANCH   1   6
BRANCH   4  15
ATOM     15  O   UNL     1       5.398   3.558  18.540  0.00  0.00    +0.000 OA
BRANCH  15  16
ATOM     16  S   UNL     1       6.385   4.718  17.948  0.00  0.00    +0.000 S 
ATOM     17  O   UNL     1       5.725   5.997  18.129  0.00  0.00    +0.000 OA
ATOM     18  O   UNL     1       7.726   4.487  18.452  0.00  0.00    +0.000 OA
BRANCH  16  19
ATOM     19  C   UNL     1       6.524   4.422  16.214  0.00  0.00    +0.000 A 
ATOM     20  C   UNL     1       5.555   3.631  15.593  0.00  0.00    +0.000 A 
ATOM     21  C   UNL     1       5.566   3.501  14.205  0.00  0.00    +0.000 A 
ATOM     22  C   UNL     1       6.540   4.159  13.443  0.00  0.00    +0.000 A 
ATOM     23  C   UNL     1       6.545   4.051  11.946  0.00  0.00    +0.000 C 
ATOM     24  C   UNL     1       7.510   4.944  14.087  0.00  0.00    +0.000 A 
ATOM     25  C   UNL     1       7.506   5.079  15.474  0.00  0.00    +0.000 A 
ENDBRANCH  16  19
ENDBRANCH  15  16
ENDBRANCH   4  15
TORSDOF 7
ENDMDL
MODEL 6
REMARK VINA RESULT:      -6.8      6.848     10.156
REMARK  Name = 
REMARK  10 active torsions:
REMARK  status: ('A' for Active; 'I' for Inactive)
REMARK    1  A    between atoms: C_1  and  C_2
REMARK    2  A    between atoms: N_4  and  C_5
REMARK    3  A    between atoms: N_4  and  C_6
REMARK    4  A    between atoms: C_6  and  C_7
REMARK    5  A    between atoms: C_8  and  C_9
REMARK    6  A    between atoms: C_9  and  N_10
REMARK    7  A    between atoms: C_13  and  O_14
REMARK    8  A    between atoms: O_14  and  S_15
REMARK    9  A    between atoms: S_15  and  C_18
REMARK   10  A    between atoms: C_21  and  C_22
REMARK                            x       y       z     vdW  Elec       q    Type
REMARK                         _______ _______ _______ _____ _____    ______ ____
ROOT
ATOM      1  N   UNL     1       0.066   9.817  18.877  0.00  0.00    +0.000 NA
ATOM      2  C   UNL     1      -0.738  10.906  18.301  0.00  0.00    +0.000 C 
ATOM      3  C   UNL     1      -0.181  12.144  18.973  0.00  0.00    +0.000 C 
ATOM      4  C   UNL     1      -0.106  11.706  20.429  0.00  0.00    +0.000 C 
ATOM      5  C   UNL     1       0.208  10.195  20.311  0.00  0.00    +0.000 C 
ENDROOT
BRANCH   1   6
ATOM      6  C   UNL     1       1.354   9.745  18.162  0.00  0.00    +0.000 C 
BRANCH   6   8
ATOM      7  C   UNL     1       2.446   7.210  18.219  0.00  0.00    +0.000 C 
ATOM      8  C   UNL     1       1.921   8.403  18.191  0.00  0.00    +0.000 C 
BRANCH   7   9
ATOM      9  C   UNL     1       3.060   5.820  18.250  0.00  0.00    +0.000 C 
BRANCH   9  13
ATOM     10  C   UNL     1       0.841   2.880  19.272  0.00  0.00    +0.000 C 
ATOM     11  C   UNL     1       1.655   3.827  18.426  0.00  0.00    +0.000 C 
ATOM     12  O   UNL     1       1.750   3.633  17.208  0.00  0.00    +0.000 OA
ATOM     13  N   UNL     1       2.252   4.905  19.060  0.00  0.00    +0.000 N 
ATOM     14  C   UNL     1       2.182   5.162  20.493  0.00  0.00    +0.000 C 
ENDBRANCH   9  13
ENDBRANCH   7   9
ENDBRANCH   6   8
ENDBRANCH   1   6
BRANCH   4  15
ATOM     15  O   UNL     1      -1.364  11.912  21.088  0.00  0.00    +0.000 OA
BRANCH  15  16
ATOM     16  S   UNL     1      -1.356  12.084  22.713  0.00  0.00    +0.000 S 
ATOM     17  O   UNL     1      -1.456  10.761  23.300  0.00  0.00    +0.000 OA
ATOM     18  O   UNL     1      -0.280  12.987  23.078  0.00  0.00    +0.000 OA
BRANCH  16  19
ATOM     19  C   UNL     1      -2.821  12.974  23.132  0.00  0.00    +0.000 A 
ATOM     20  C   UNL     1      -2.706  14.097  23.953  0.00  0.00    +0.000 A 
ATOM     21  C   UNL     1      -3.828  14.894  24.180  0.00  0.00    +0.000 A 
ATOM     22  C   UNL     1      -5.055  14.571  23.587  0.00  0.00    +0.000 A 
ATOM     23  C   UNL     1      -6.262  15.437  23.800  0.00  0.00    +0.000 C 
ATOM     24  C   UNL     1      -5.151  13.433  22.770  0.00  0.00    +0.000 A 
ATOM     25  C   UNL     1      -4.035  12.630  22.539  0.00  0.00    +0.000 A 
ENDBRANCH  16  19
ENDBRANCH  15  16
ENDBRANCH   4  15
TORSDOF 7
ENDMDL
MODEL 7
REMARK VINA RESULT:      -6.8      4.704      7.749
REMARK  Name = 
REMARK  10 active torsions:
REMARK  status: ('A' for Active; 'I' for Inactive)
REMARK    1  A    between atoms: C_1  and  C_2
REMARK    2  A    between atoms: N_4  and  C_5
REMARK    3  A    between atoms: N_4  and  C_6
REMARK    4  A    between atoms: C_6  and  C_7
REMARK    5  A    between atoms: C_8  and  C_9
REMARK    6  A    between atoms: C_9  and  N_10
REMARK    7  A    between atoms: C_13  and  O_14
REMARK    8  A    between atoms: O_14  and  S_15
REMARK    9  A    between atoms: S_15  and  C_18
REMARK   10  A    between atoms: C_21  and  C_22
REMARK                            x       y       z     vdW  Elec       q    Type
REMARK                         _______ _______ _______ _____ _____    ______ ____
ROOT
ATOM      1  N   UNL     1       2.044   4.920  19.236  0.00  0.00    +0.000 NA
ATOM      2  C   UNL     1       2.281   3.467  19.256  0.00  0.00    +0.000 C 
ATOM      3  C   UNL     1       3.500   3.325  20.143  0.00  0.00    +0.000 C 
ATOM      4  C   UNL     1       4.415   4.413  19.600  0.00  0.00    +0.000 C 
ATOM      5  C   UNL     1       3.412   5.504  19.154  0.00  0.00    +0.000 C 
ENDROOT
BRANCH   1   6
ATOM      6  C   UNL     1       1.319   5.301  20.462  0.00  0.00    +0.000 C 
BRANCH   6   8
ATOM      7  C   UNL     1       1.475   8.009  20.977  0.00  0.00    +0.000 C 
ATOM      8  C   UNL     1       1.409   6.731  20.726  0.00  0.00    +0.000 C 
BRANCH   7   9
ATOM      9  C   UNL     1       1.550   9.499  21.269  0.00  0.00    +0.000 C 
BRANCH   9  13
ATOM     10  C   UNL     1      -1.571  10.728  23.101  0.00  0.00    +0.000 C 
ATOM     11  C   UNL     1      -0.208  10.137  22.844  0.00  0.00    +0.000 C 
ATOM     12  O   UNL     1       0.473   9.730  23.793  0.00  0.00    +0.000 OA
ATOM     13  N   UNL     1       0.220  10.054  21.528  0.00  0.00    +0.000 N 
ATOM     14  C   UNL     1      -0.540  10.537  20.381  0.00  0.00    +0.000 C 
ENDBRANCH   9  13
ENDBRANCH   7   9
ENDBRANCH   6   8
ENDBRANCH   1   6
BRANCH   4  15
ATOM     15  O   UNL     1       5.172   3.931  18.480  0.00  0.00    +0.000 OA
BRANCH  15  16
ATOM     16  S   UNL     1       6.371   4.880  17.903  0.00  0.00    +0.000 S 
ATOM     17  O   UNL     1       6.035   6.257  18.211  0.00  0.00    +0.000 OA
ATOM     18  O   UNL     1       7.645   4.311  18.303  0.00  0.00    +0.000 OA
BRANCH  16  19
ATOM     19  C   UNL     1       6.355   4.698  16.148  0.00  0.00    +0.000 A 
ATOM     20  C   UNL     1       7.421   5.221  15.414  0.00  0.00    +0.000 A 
ATOM     21  C   UNL     1       7.498   4.966  14.045  0.00  0.00    +0.000 A 
ATOM     22  C   UNL     1       6.516   4.191  13.416  0.00  0.00    +0.000 A 
ATOM     23  C   UNL     1       6.603   3.885  11.950  0.00  0.00    +0.000 C 
ATOM     24  C   UNL     1       5.447   3.681  14.170  0.00  0.00    +0.000 A 
ATOM     25  C   UNL     1       5.362   3.932  15.539  0.00  0.00    +0.000 A 
ENDBRANCH  16  19
ENDBRANCH  15  16
ENDBRANCH   4  15
TORSDOF 7
ENDMDL
MODEL 8
REMARK VINA RESULT:      -6.8      4.612      6.805
REMARK  Name = 
REMARK  10 active torsions:
REMARK  status: ('A' for Active; 'I' for Inactive)
REMARK    1  A    between atoms: C_1  and  C_2
REMARK    2  A    between atoms: N_4  and  C_5
REMARK    3  A    between atoms: N_4  and  C_6
REMARK    4  A    between atoms: C_6  and  C_7
REMARK    5  A    between atoms: C_8  and  C_9
REMARK    6  A    between atoms: C_9  and  N_10
REMARK    7  A    between atoms: C_13  and  O_14
REMARK    8  A    between atoms: O_14  and  S_15
REMARK    9  A    between atoms: S_15  and  C_18
REMARK   10  A    between atoms: C_21  and  C_22
REMARK                            x       y       z     vdW  Elec       q    Type
REMARK                         _______ _______ _______ _____ _____    ______ ____
ROOT
ATOM      1  N   UNL     1       3.104   5.405  17.976  0.00  0.00    +0.000 NA
ATOM      2  C   UNL     1       3.119   4.031  18.500  0.00  0.00    +0.000 C 
ATOM      3  C   UNL     1       3.948   4.148  19.762  0.00  0.00    +0.000 C 
ATOM      4  C   UNL     1       5.131   4.979  19.287  0.00  0.00    +0.000 C 
ATOM      5  C   UNL     1       4.490   5.896  18.218  0.00  0.00    +0.000 C 
ENDROOT
BRANCH   1   6
ATOM      6  C   UNL     1       2.077   6.180  18.698  0.00  0.00    +0.000 C 
BRANCH   6   8
ATOM      7  C   UNL     1       2.175   8.866  18.065  0.00  0.00    +0.000 C 
ATOM      8  C   UNL     1       2.135   7.599  18.372  0.00  0.00    +0.000 C 
BRANCH   7   9
ATOM      9  C   UNL     1       2.221  10.342  17.706  0.00  0.00    +0.000 C 
BRANCH   9  13
ATOM     10  C   UNL     1       1.135  13.307  19.860  0.00  0.00    +0.000 C 
ATOM     11  C   UNL     1       1.883  12.478  18.846  0.00  0.00    +0.000 C 
ATOM     12  O   UNL     1       2.802  12.990  18.195  0.00  0.00    +0.000 OA
ATOM     13  N   UNL     1       1.514  11.150  18.702  0.00  0.00    +0.000 N 
ATOM     14  C   UNL     1       0.427  10.512  19.434  0.00  0.00    +0.000 C 
ENDBRANCH   9  13
ENDBRANCH   7   9
ENDBRANCH   6   8
ENDBRANCH   1   6
BRANCH   4  15
ATOM     15  O   UNL     1       6.139   4.142  18.700  0.00  0.00    +0.000 OA
BRANCH  15  16
ATOM     16  S   UNL     1       7.252   4.850  17.735  0.00  0.00    +0.000 S 
ATOM     17  O   UNL     1       7.203   6.279  17.975  0.00  0.00    +0.000 OA
ATOM     18  O   UNL     1       8.497   4.112  17.846  0.00  0.00    +0.000 OA
BRANCH  16  19
ATOM     19  C   UNL     1       6.732   4.562  16.074  0.00  0.00    +0.000 A 
ATOM     20  C   UNL     1       7.464   5.142  15.036  0.00  0.00    +0.000 A 
ATOM     21  C   UNL     1       7.157   4.814  13.716  0.00  0.00    +0.000 A 
ATOM     22  C   UNL     1       6.124   3.909  13.437  0.00  0.00    +0.000 A 
ATOM     23  C   UNL     1       5.803   3.525  12.022  0.00  0.00    +0.000 C 
ATOM     24  C   UNL     1       5.395   3.342  14.494  0.00  0.00    +0.000 A 
ATOM     25  C   UNL     1       5.695   3.666  15.816  0.00  0.00    +0.000 A 
ENDBRANCH  16  19
ENDBRANCH  15  16
ENDBRANCH   4  15
TORSDOF 7
ENDMDL
MODEL 9
REMARK VINA RESULT:      -6.7      3.571      7.001
REMARK  Name = 
REMARK  10 active torsions:
REMARK  status: ('A' for Active; 'I' for Inactive)
REMARK    1  A    between atoms: C_1  and  C_2
REMARK    2  A    between atoms: N_4  and  C_5
REMARK    3  A    between atoms: N_4  and  C_6
REMARK    4  A    between atoms: C_6  and  C_7
REMARK    5  A    between atoms: C_8  and  C_9
REMARK    6  A    between atoms: C_9  and  N_10
REMARK    7  A    between atoms: C_13  and  O_14
REMARK    8  A    between atoms: O_14  and  S_15
REMARK    9  A    between atoms: S_15  and  C_18
REMARK   10  A    between atoms: C_21  and  C_22
REMARK                            x       y       z     vdW  Elec       q    Type
REMARK                         _______ _______ _______ _____ _____    ______ ____
ROOT
ATOM      1  N   UNL     1       1.734   3.954  18.792  0.00  0.00    +0.000 NA
ATOM      2  C   UNL     1       2.348   2.628  18.624  0.00  0.00    +0.000 C 
ATOM      3  C   UNL     1       3.832   2.919  18.700  0.00  0.00    +0.000 C 
ATOM      4  C   UNL     1       3.963   4.131  17.789  0.00  0.00    +0.000 C 
ATOM      5  C   UNL     1       2.614   4.860  18.002  0.00  0.00    +0.000 C 
ENDROOT
BRANCH   1   6
ATOM      6  C   UNL     1       1.696   4.285  20.229  0.00  0.00    +0.000 C 
BRANCH   6   8
ATOM      7  C   UNL     1       1.519   7.004  20.673  0.00  0.00    +0.000 C 
ATOM      8  C   UNL     1       1.610   5.721  20.457  0.00  0.00    +0.000 C 
BRANCH   7   9
ATOM      9  C   UNL     1       1.412   8.498  20.926  0.00  0.00    +0.000 C 
BRANCH   9  13
ATOM     10  C   UNL     1      -0.546  10.870  18.657  0.00  0.00    +0.000 C 
ATOM     11  C   UNL     1      -0.076  10.137  19.888  0.00  0.00    +0.000 C 
ATOM     12  O   UNL     1      -0.610  10.369  20.980  0.00  0.00    +0.000 OA
ATOM     13  N   UNL     1       0.936   9.203  19.733  0.00  0.00    +0.000 N 
ATOM     14  C   UNL     1       1.604   8.911  18.471  0.00  0.00    +0.000 C 
ENDBRANCH   9  13
ENDBRANCH   7   9
ENDBRANCH   6   8
ENDBRANCH   1   6
BRANCH   4  15
ATOM     15  O   UNL     1       4.110   3.726  16.420  0.00  0.00    +0.000 OA
BRANCH  15  16
ATOM     16  S   UNL     1       5.428   4.248  15.606  0.00  0.00    +0.000 S 
ATOM     17  O   UNL     1       6.310   3.113  15.415  0.00  0.00    +0.000 OA
ATOM     18  O   UNL     1       4.989   5.055  14.483  0.00  0.00    +0.000 OA
BRANCH  16  19
ATOM     19  C   UNL     1       6.248   5.398  16.664  0.00  0.00    +0.000 A 
ATOM     20  C   UNL     1       7.195   4.914  17.569  0.00  0.00    +0.000 A 
ATOM     21  C   UNL     1       7.954   5.816  18.312  0.00  0.00    +0.000 A 
ATOM     22  C   UNL     1       7.768   7.195  18.150  0.00  0.00    +0.000 A 
ATOM     23  C   UNL     1       8.599   8.177  18.922  0.00  0.00    +0.000 C 
ATOM     24  C   UNL     1       6.806   7.662  17.240  0.00  0.00    +0.000 A 
ATOM     25  C   UNL     1       6.042   6.766  16.493  0.00  0.00    +0.000 A 
ENDBRANCH  16  19
ENDBRANCH  15  16
ENDBRANCH   4  15
TORSDOF 7
ENDMDL
