MODEL 1
REMARK VINA RESULT:      -6.2      0.000      0.000
REMARK  Name = 
REMARK  9 active torsions:
REMARK  status: ('A' for Active; 'I' for Inactive)
REMARK    1  A    between atoms: C_1  and  C_2
REMARK    2  A    between atoms: C_2  and  C_3
REMARK    3  A    between atoms: C_3  and  C_4
REMARK    4  A    between atoms: C_3  and  N_6
REMARK    5  A    between atoms: C_4  and  C_5
REMARK    6  A    between atoms: C_10  and  C_12
REMARK    7  A    between atoms: C_12  and  C_13
REMARK    8  A    between atoms: C_16  and  O_17
REMARK    9  A    between atoms: O_17  and  C_18
REMARK                            x       y       z     vdW  Elec       q    Type
REMARK                         _______ _______ _______ _____ _____    ______ ____
ROOT
ATOM      1  N   UNL     1       2.286   4.409  18.632  0.00  0.00    +0.000 NA
ATOM      2  C   UNL     1       1.505   4.557  19.896  0.00  0.00    +0.000 C 
ATOM      3  C   UNL     1       1.883   5.775  20.768  0.00  0.00    +0.000 C 
ATOM      4  N   UNL     1       1.908   7.018  19.990  0.00  0.00    +0.000 N 
ATOM      5  C   UNL     1       1.440   8.181  20.577  0.00  0.00    +0.000 C 
ATOM      6  O   UNL     1       0.960   8.188  21.713  0.00  0.00    +0.000 OA
ATOM      7  C   UNL     1       2.643   6.926  18.728  0.00  0.00    +0.000 C 
ATOM      8  C   UNL     1       2.173   5.703  17.915  0.00  0.00    +0.000 C 
ENDROOT
BRANCH   1   9
ATOM      9  C   UNL     1       3.684   3.945  18.861  0.00  0.00    +0.000 C 
BRANCH   9  11
ATOM     10  C   UNL     1       3.616   1.367  18.615  0.00  0.00    +0.000 C 
ATOM     11  C   UNL     1       3.675   2.557  19.567  0.00  0.00    +0.000 C 
ENDBRANCH   9  11
BRANCH   9  12
ATOM     12  C   UNL     1       4.569   3.904  17.580  0.00  0.00    +0.000 C 
ATOM     13  C   UNL     1       5.842   4.744  17.609  0.00  0.00    +0.000 C 
ENDBRANCH   9  12
ENDBRANCH   1   9
BRANCH   5  14
ATOM     14  C   UNL     1       1.522   9.485  19.794  0.00  0.00    +0.000 C 
BRANCH  14  15
ATOM     15  C   UNL     1       0.204   9.972  19.230  0.00  0.00    +0.000 A 
ATOM     16  C   UNL     1      -0.558  10.901  19.949  0.00  0.00    +0.000 A 
ATOM     17  C   UNL     1      -1.706  11.467  19.383  0.00  0.00    +0.000 A 
ATOM     18  C   UNL     1      -2.103  11.131  18.085  0.00  0.00    +0.000 A 
ATOM     19  C   UNL     1      -1.388  10.159  17.393  0.00  0.00    +0.000 A 
ATOM     20  C   UNL     1      -0.229   9.608  17.948  0.00  0.00    +0.000 A 
BRANCH  18  21
ATOM     21  O   UNL     1      -3.201  11.791  17.629  0.00  0.00    +0.000 OA
BRANCH  21  22
ATOM     22  C   UNL     1      -4.326  11.037  17.191  0.00  0.00    +0.000 C 
ATOM     23  F   UNL     1      -4.234  10.585  15.923  0.00  0.00    +0.000 F 
ATOM     24  F   UNL     1      -4.508   9.986  18.018  0.00  0.00    +0.000 F 
ATOM     25  F   UNL     1      -5.423  11.825  17.264  0.00  0.00    +0.000 F 
ENDBRANCH  21  22
ENDBRANCH  18  21
ENDBRANCH  14  15
ENDBRANCH   5  14
TORSDOF 7
ENDMDL
MODEL 2
REMARK VINA RESULT:      -6.1      0.500      1.227
REMARK  Name = 
REMARK  9 active torsions:
REMARK  status: ('A' for Active; 'I' for Inactive)
REMARK    1  A    between atoms: C_1  and  C_2
REMARK    2  A    between atoms: C_2  and  C_3
REMARK    3  A    between atoms: C_3  and  C_4
REMARK    4  A    between atoms: C_3  and  N_6
REMARK    5  A    between atoms: C_4  and  C_5
REMARK    6  A    between atoms: C_10  and  C_12
REMARK    7  A    between atoms: C_12  and  C_13
REMARK    8  A    between atoms: C_16  and  O_17
REMARK    9  A    between atoms: O_17  and  C_18
REMARK                            x       y       z     vdW  Elec       q    Type
REMARK                         _______ _______ _______ _____ _____    ______ ____
ROOT
ATOM      1  N   UNL     1       2.465   4.355  18.754  0.00  0.00    +0.000 NA
ATOM      2  C   UNL     1       1.534   4.551  19.904  0.00  0.00    +0.000 C 
ATOM      3  C   UNL     1       1.812   5.796  20.776  0.00  0.00    +0.000 C 
ATOM      4  N   UNL     1       1.949   7.011  19.966  0.00  0.00    +0.000 N 
ATOM      5  C   UNL     1       1.424   8.197  20.450  0.00  0.00    +0.000 C 
ATOM      6  O   UNL     1       0.805   8.246  21.516  0.00  0.00    +0.000 OA
ATOM      7  C   UNL     1       2.836   6.871  18.810  0.00  0.00    +0.000 C 
ATOM      8  C   UNL     1       2.458   5.623  17.986  0.00  0.00    +0.000 C 
ENDROOT
BRANCH   1   9
ATOM      9  C   UNL     1       3.818   3.889  19.173  0.00  0.00    +0.000 C 
BRANCH   9  11
ATOM     10  C   UNL     1       3.506   1.440  18.389  0.00  0.00    +0.000 C 
ATOM     11  C   UNL     1       3.766   2.382  19.560  0.00  0.00    +0.000 C 
ENDBRANCH   9  11
BRANCH   9  12
ATOM     12  C   UNL     1       4.944   4.149  18.127  0.00  0.00    +0.000 C 
ATOM     13  C   UNL     1       6.158   4.929  18.619  0.00  0.00    +0.000 C 
ENDBRANCH   9  12
ENDBRANCH   1   9
BRANCH   5  14
ATOM     14  C   UNL     1       1.619   9.473  19.641  0.00  0.00    +0.000 C 
BRANCH  14  15
ATOM     15  C   UNL     1       0.337  10.159  19.219  0.00  0.00    +0.000 A 
ATOM     16  C   UNL     1      -0.288   9.788  18.021  0.00  0.00    +0.000 A 
ATOM     17  C   UNL     1      -1.542  10.310  17.683  0.00  0.00    +0.000 A 
ATOM     18  C   UNL     1      -2.202  11.193  18.541  0.00  0.00    +0.000 A 
ATOM     19  C   UNL     1      -1.558  11.617  19.699  0.00  0.00    +0.000 A 
ATOM     20  C   UNL     1      -0.314  11.081  20.049  0.00  0.00    +0.000 A 
BRANCH  18  21
ATOM     21  O   UNL     1      -3.438  11.583  18.127  0.00  0.00    +0.000 OA
BRANCH  21  22
ATOM     22  C   UNL     1      -4.352  10.597  17.662  0.00  0.00    +0.000 C 
ATOM     23  F   UNL     1      -4.017   9.330  17.983  0.00  0.00    +0.000 F 
ATOM     24  F   UNL     1      -5.582  10.861  18.152  0.00  0.00    +0.000 F 
ATOM     25  F   UNL     1      -4.413  10.674  16.312  0.00  0.00    +0.000 F 
ENDBRANCH  21  22
ENDBRANCH  18  21
ENDBRANCH  14  15
ENDBRANCH   5  14
TORSDOF 7
ENDMDL
MODEL 3
REMARK VINA RESULT:      -6.1      7.412      9.081
REMARK  Name = 
REMARK  9 active torsions:
REMARK  status: ('A' for Active; 'I' for Inactive)
REMARK    1  A    between atoms: C_1  and  C_2
REMARK    2  A    between atoms: C_2  and  C_3
REMARK    3  A    between atoms: C_3  and  C_4
REMARK    4  A    between atoms: C_3  and  N_6
REMARK    5  A    between atoms: C_4  and  C_5
REMARK    6  A    between atoms: C_10  and  C_12
REMARK    7  A    between atoms: C_12  and  C_13
REMARK    8  A    between atoms: C_16  and  O_17
REMARK    9  A    between atoms: O_17  and  C_18
REMARK                            x       y       z     vdW  Elec       q    Type
REMARK                         _______ _______ _______ _____ _____    ______ ____
ROOT
ATOM      1  N   UNL     1       4.094   4.017  18.337  0.00  0.00    +0.000 NA
ATOM      2  C   UNL     1       4.758   4.108  17.003  0.00  0.00    +0.000 C 
ATOM      3  C   UNL     1       5.367   5.485  16.660  0.00  0.00    +0.000 C 
ATOM      4  N   UNL     1       6.227   5.988  17.736  0.00  0.00    +0.000 N 
ATOM      5  C   UNL     1       7.388   6.662  17.402  0.00  0.00    +0.000 C 
ATOM      6  O   UNL     1       7.740   6.808  16.230  0.00  0.00    +0.000 OA
ATOM      7  C   UNL     1       5.633   5.904  19.072  0.00  0.00    +0.000 C 
ATOM      8  C   UNL     1       5.087   4.486  19.334  0.00  0.00    +0.000 C 
ENDROOT
BRANCH   1   9
ATOM      9  C   UNL     1       2.783   4.726  18.384  0.00  0.00    +0.000 C 
BRANCH   9  11
ATOM     10  C   UNL     1       1.879   2.311  18.137  0.00  0.00    +0.000 C 
ATOM     11  C   UNL     1       1.654   3.793  17.855  0.00  0.00    +0.000 C 
ENDBRANCH   9  11
BRANCH   9  12
ATOM     12  C   UNL     1       2.410   5.301  19.783  0.00  0.00    +0.000 C 
ATOM     13  C   UNL     1       1.519   4.426  20.659  0.00  0.00    +0.000 C 
ENDBRANCH   9  12
ENDBRANCH   1   9
BRANCH   5  14
ATOM     14  C   UNL     1       8.251   7.239  18.517  0.00  0.00    +0.000 C 
BRANCH  14  15
ATOM     15  C   UNL     1       8.401   8.746  18.489  0.00  0.00    +0.000 A 
ATOM     16  C   UNL     1       9.255   9.376  19.403  0.00  0.00    +0.000 A 
ATOM     17  C   UNL     1       9.514  10.748  19.303  0.00  0.00    +0.000 A 
ATOM     18  C   UNL     1       8.941  11.510  18.281  0.00  0.00    +0.000 A 
ATOM     19  C   UNL     1       8.040  10.904  17.412  0.00  0.00    +0.000 A 
ATOM     20  C   UNL     1       7.796   9.529  17.497  0.00  0.00    +0.000 A 
BRANCH  18  21
ATOM     21  O   UNL     1       9.316  12.817  18.258  0.00  0.00    +0.000 OA
BRANCH  21  22
ATOM     22  C   UNL     1      10.602  13.157  17.752  0.00  0.00    +0.000 C 
ATOM     23  F   UNL     1      11.098  12.280  16.856  0.00  0.00    +0.000 F 
ATOM     24  F   UNL     1      10.549  14.381  17.183  0.00  0.00    +0.000 F 
ATOM     25  F   UNL     1      11.467  13.214  18.790  0.00  0.00    +0.000 F 
ENDBRANCH  21  22
ENDBRANCH  18  21
ENDBRANCH  14  15
ENDBRANCH   5  14
TORSDOF 7
ENDMDL
MODEL 4
REMARK VINA RESULT:      -6.1      4.937      9.049
REMARK  Name = 
REMARK  9 active torsions:
REMARK  status: ('A' for Active; 'I' for Inactive)
REMARK    1  A    between atoms: C_1  and  C_2
REMARK    2  A    between atoms: C_2  and  C_3
REMARK    3  A    between atoms: C_3  and  C_4
REMARK    4  A    between atoms: C_3  and  N_6
REMARK    5  A    between atoms: C_4  and  C_5
REMARK    6  A    between atoms: C_10  and  C_12
REMARK    7  A    between atoms: C_12  and  C_13
REMARK    8  A    between atoms: C_16  and  O_17
REMARK    9  A    between atoms: O_17  and  C_18
REMARK                            x       y       z     vdW  Elec       q    Type
REMARK                         _______ _______ _______ _____ _____    ______ ____
ROOT
ATOM      1  N   UNL     1       1.498  14.431  19.866  0.00  0.00    +0.000 NA
ATOM      2  C   UNL     1       0.292  13.605  20.169  0.00  0.00    +0.000 C 
ATOM      3  C   UNL     1      -0.068  12.545  19.104  0.00  0.00    +0.000 C 
ATOM      4  N   UNL     1       1.088  11.718  18.742  0.00  0.00    +0.000 N 
ATOM      5  C   UNL     1       0.894  10.368  18.506  0.00  0.00    +0.000 C 
ATOM      6  O   UNL     1      -0.212   9.838  18.639  0.00  0.00    +0.000 OA
ATOM      7  C   UNL     1       2.307  12.476  18.455  0.00  0.00    +0.000 C 
ATOM      8  C   UNL     1       2.601  13.479  19.588  0.00  0.00    +0.000 C 
ENDROOT
BRANCH   1   9
ATOM      9  C   UNL     1       1.260  15.438  18.793  0.00  0.00    +0.000 C 
BRANCH   9  11
ATOM     10  C   UNL     1      -0.497  17.146  17.952  0.00  0.00    +0.000 C 
ATOM     11  C   UNL     1      -0.053  16.224  19.083  0.00  0.00    +0.000 C 
ENDBRANCH   9  11
BRANCH   9  12
ATOM     12  C   UNL     1       2.447  16.420  18.554  0.00  0.00    +0.000 C 
ATOM     13  C   UNL     1       2.950  17.183  19.774  0.00  0.00    +0.000 C 
ENDBRANCH   9  12
ENDBRANCH   1   9
BRANCH   5  14
ATOM     14  C   UNL     1       2.080   9.519  18.069  0.00  0.00    +0.000 C 
BRANCH  14  15
ATOM     15  C   UNL     1       2.100   8.115  18.636  0.00  0.00    +0.000 A 
ATOM     16  C   UNL     1       2.450   7.039  17.812  0.00  0.00    +0.000 A 
ATOM     17  C   UNL     1       2.609   5.756  18.349  0.00  0.00    +0.000 A 
ATOM     18  C   UNL     1       2.440   5.529  19.718  0.00  0.00    +0.000 A 
ATOM     19  C   UNL     1       2.026   6.580  20.529  0.00  0.00    +0.000 A 
ATOM     20  C   UNL     1       1.887   7.867  19.999  0.00  0.00    +0.000 A 
BRANCH  18  21
ATOM     21  O   UNL     1       2.678   4.253  20.124  0.00  0.00    +0.000 OA
BRANCH  21  22
ATOM     22  C   UNL     1       1.594   3.470  20.610  0.00  0.00    +0.000 C 
ATOM     23  F   UNL     1       1.519   3.395  21.955  0.00  0.00    +0.000 F 
ATOM     24  F   UNL     1       0.433   3.972  20.136  0.00  0.00    +0.000 F 
ATOM     25  F   UNL     1       1.731   2.210  20.138  0.00  0.00    +0.000 F 
ENDBRANCH  21  22
ENDBRANCH  18  21
ENDBRANCH  14  15
ENDBRANCH   5  14
TORSDOF 7
ENDMDL
MODEL 5
REMARK VINA RESULT:      -6.0      0.539      1.037
REMARK  Name = 
REMARK  9 active torsions:
REMARK  status: ('A' for Active; 'I' for Inactive)
REMARK    1  A    between atoms: C_1  and  C_2
REMARK    2  A    between atoms: C_2  and  C_3
REMARK    3  A    between atoms: C_3  and  C_4
REMARK    4  A    between atoms: C_3  and  N_6
REMARK    5  A    between atoms: C_4  and  C_5
REMARK    6  A    between atoms: C_10  and  C_12
REMARK    7  A    between atoms: C_12  and  C_13
REMARK    8  A    between atoms: C_16  and  O_17
REMARK    9  A    between atoms: O_17  and  C_18
REMARK                            x       y       z     vdW  Elec       q    Type
REMARK                         _______ _______ _______ _____ _____    ______ ____
ROOT
ATOM      1  N   UNL     1       2.225   4.186  18.525  0.00  0.00    +0.000 NA
ATOM      2  C   UNL     1       1.522   4.376  19.829  0.00  0.00    +0.000 C 
ATOM      3  C   UNL     1       1.976   5.602  20.653  0.00  0.00    +0.000 C 
ATOM      4  N   UNL     1       1.984   6.829  19.850  0.00  0.00    +0.000 N 
ATOM      5  C   UNL     1       1.576   8.013  20.438  0.00  0.00    +0.000 C 
ATOM      6  O   UNL     1       1.163   8.053  21.599  0.00  0.00    +0.000 OA
ATOM      7  C   UNL     1       2.643   6.695  18.549  0.00  0.00    +0.000 C 
ATOM      8  C   UNL     1       2.100   5.468  17.790  0.00  0.00    +0.000 C 
ENDROOT
BRANCH   1   9
ATOM      9  C   UNL     1       3.623   3.694  18.684  0.00  0.00    +0.000 C 
BRANCH   9  11
ATOM     10  C   UNL     1       4.578   1.991  20.386  0.00  0.00    +0.000 C 
ATOM     11  C   UNL     1       3.615   2.236  19.229  0.00  0.00    +0.000 C 
ENDBRANCH   9  11
BRANCH   9  12
ATOM     12  C   UNL     1       4.493   3.794  17.395  0.00  0.00    +0.000 C 
ATOM     13  C   UNL     1       5.742   4.664  17.487  0.00  0.00    +0.000 C 
ENDBRANCH   9  12
ENDBRANCH   1   9
BRANCH   5  14
ATOM     14  C   UNL     1       1.643   9.300  19.625  0.00  0.00    +0.000 C 
BRANCH  14  15
ATOM     15  C   UNL     1       0.304   9.813  19.137  0.00  0.00    +0.000 A 
ATOM     16  C   UNL     1      -0.433  10.698  19.934  0.00  0.00    +0.000 A 
ATOM     17  C   UNL     1      -1.602  11.291  19.443  0.00  0.00    +0.000 A 
ATOM     18  C   UNL     1      -2.045  11.026  18.144  0.00  0.00    +0.000 A 
ATOM     19  C   UNL     1      -1.355  10.096  17.373  0.00  0.00    +0.000 A 
ATOM     20  C   UNL     1      -0.175   9.519  17.853  0.00  0.00    +0.000 A 
BRANCH  18  21
ATOM     21  O   UNL     1      -3.160  11.707  17.765  0.00  0.00    +0.000 OA
BRANCH  21  22
ATOM     22  C   UNL     1      -4.427  11.069  17.876  0.00  0.00    +0.000 C 
ATOM     23  F   UNL     1      -5.164  11.473  18.932  0.00  0.00    +0.000 F 
ATOM     24  F   UNL     1      -5.134  11.279  16.745  0.00  0.00    +0.000 F 
ATOM     25  F   UNL     1      -4.226   9.738  18.005  0.00  0.00    +0.000 F 
ENDBRANCH  21  22
ENDBRANCH  18  21
ENDBRANCH  14  15
ENDBRANCH   5  14
TORSDOF 7
ENDMDL
MODEL 6
REMARK VINA RESULT:      -6.0      1.770      2.883
REMARK  Name = 
REMARK  9 active torsions:
REMARK  status: ('A' for Active; 'I' for Inactive)
REMARK    1  A    between atoms: C_1  and  C_2
REMARK    2  A    between atoms: C_2  and  C_3
REMARK    3  A    between atoms: C_3  and  C_4
REMARK    4  A    between atoms: C_3  and  N_6
REMARK    5  A    between atoms: C_4  and  C_5
REMARK    6  A    between atoms: C_10  and  C_12
REMARK    7  A    between atoms: C_12  and  C_13
REMARK    8  A    between atoms: C_16  and  O_17
REMARK    9  A    between atoms: O_17  and  C_18
REMARK                            x       y       z     vdW  Elec       q    Type
REMARK                         _______ _______ _______ _____ _____    ______ ____
ROOT
ATOM      1  N   UNL     1       4.435   5.346  16.743  0.00  0.00    +0.000 NA
ATOM      2  C   UNL     1       3.223   4.554  17.109  0.00  0.00    +0.000 C 
ATOM      3  C   UNL     1       2.920   4.469  18.621  0.00  0.00    +0.000 C 
ATOM      4  N   UNL     1       2.924   5.790  19.256  0.00  0.00    +0.000 N 
ATOM      5  C   UNL     1       1.991   6.059  20.243  0.00  0.00    +0.000 C 
ATOM      6  O   UNL     1       1.131   5.235  20.564  0.00  0.00    +0.000 OA
ATOM      7  C   UNL     1       4.081   6.621  18.916  0.00  0.00    +0.000 C 
ATOM      8  C   UNL     1       4.279   6.673  17.388  0.00  0.00    +0.000 C 
ENDROOT
BRANCH   1   9
ATOM      9  C   UNL     1       5.709   4.643  17.065  0.00  0.00    +0.000 C 
BRANCH   9  11
ATOM     10  C   UNL     1       6.208   4.077  14.587  0.00  0.00    +0.000 C 
ATOM     11  C   UNL     1       5.995   3.544  16.000  0.00  0.00    +0.000 C 
ENDBRANCH   9  11
BRANCH   9  12
ATOM     12  C   UNL     1       6.942   5.583  17.229  0.00  0.00    +0.000 C 
ATOM     13  C   UNL     1       7.664   5.524  18.570  0.00  0.00    +0.000 C 
ENDBRANCH   9  12
ENDBRANCH   1   9
BRANCH   5  14
ATOM     14  C   UNL     1       2.032   7.409  20.947  0.00  0.00    +0.000 C 
BRANCH  14  15
ATOM     15  C   UNL     1       1.265   8.513  20.250  0.00  0.00    +0.000 A 
ATOM     16  C   UNL     1       1.539   8.809  18.909  0.00  0.00    +0.000 A 
ATOM     17  C   UNL     1       0.747   9.726  18.209  0.00  0.00    +0.000 A 
ATOM     18  C   UNL     1      -0.340  10.349  18.827  0.00  0.00    +0.000 A 
ATOM     19  C   UNL     1      -0.576  10.110  20.177  0.00  0.00    +0.000 A 
ATOM     20  C   UNL     1       0.201   9.178  20.873  0.00  0.00    +0.000 A 
BRANCH  18  21
ATOM     21  O   UNL     1      -1.064  11.176  18.025  0.00  0.00    +0.000 OA
BRANCH  21  22
ATOM     22  C   UNL     1      -2.294  10.707  17.483  0.00  0.00    +0.000 C 
ATOM     23  F   UNL     1      -2.511   9.386  17.654  0.00  0.00    +0.000 F 
ATOM     24  F   UNL     1      -3.316  11.393  18.036  0.00  0.00    +0.000 F 
ATOM     25  F   UNL     1      -2.295  10.952  16.152  0.00  0.00    +0.000 F 
ENDBRANCH  21  22
ENDBRANCH  18  21
ENDBRANCH  14  15
ENDBRANCH   5  14
TORSDOF 7
ENDMDL
MODEL 7
REMARK VINA RESULT:      -6.0      4.750      8.792
REMARK  Name = 
REMARK  9 active torsions:
REMARK  status: ('A' for Active; 'I' for Inactive)
REMARK    1  A    between atoms: C_1  and  C_2
REMARK    2  A    between atoms: C_2  and  C_3
REMARK    3  A    between atoms: C_3  and  C_4
REMARK    4  A    between atoms: C_3  and  N_6
REMARK    5  A    between atoms: C_4  and  C_5
REMARK    6  A    between atoms: C_10  and  C_12
REMARK    7  A    between atoms: C_12  and  C_13
REMARK    8  A    between atoms: C_16  and  O_17
REMARK    9  A    between atoms: O_17  and  C_18
REMARK                            x       y       z     vdW  Elec       q    Type
REMARK                         _______ _______ _______ _____ _____    ______ ____
ROOT
ATOM      1  N   UNL     1      -0.320  11.926  20.898  0.00  0.00    +0.000 NA
ATOM      2  C   UNL     1       0.102  10.887  21.884  0.00  0.00    +0.000 C 
ATOM      3  C   UNL     1       0.110   9.436  21.353  0.00  0.00    +0.000 C 
ATOM      4  N   UNL     1       0.840   9.319  20.087  0.00  0.00    +0.000 N 
ATOM      5  C   UNL     1       1.619   8.197  19.867  0.00  0.00    +0.000 C 
ATOM      6  O   UNL     1       1.752   7.321  20.725  0.00  0.00    +0.000 OA
ATOM      7  C   UNL     1       0.481  10.328  19.088  0.00  0.00    +0.000 C 
ATOM      8  C   UNL     1       0.536  11.741  19.701  0.00  0.00    +0.000 C 
ENDROOT
BRANCH   1   9
ATOM      9  C   UNL     1      -1.785  11.907  20.623  0.00  0.00    +0.000 C 
BRANCH   9  11
ATOM     10  C   UNL     1      -2.715  12.033  23.037  0.00  0.00    +0.000 C 
ATOM     11  C   UNL     1      -2.539  12.742  21.699  0.00  0.00    +0.000 C 
ENDBRANCH   9  11
BRANCH   9  12
ATOM     12  C   UNL     1      -2.179  12.374  19.189  0.00  0.00    +0.000 C 
ATOM     13  C   UNL     1      -3.070  11.428  18.391  0.00  0.00    +0.000 C 
ENDBRANCH   9  12
ENDBRANCH   1   9
BRANCH   5  14
ATOM     14  C   UNL     1       2.329   8.044  18.528  0.00  0.00    +0.000 C 
BRANCH  14  15
ATOM     15  C   UNL     1       2.658   6.617  18.143  0.00  0.00    +0.000 A 
ATOM     16  C   UNL     1       3.995   6.202  18.095  0.00  0.00    +0.000 A 
ATOM     17  C   UNL     1       4.313   4.856  17.879  0.00  0.00    +0.000 A 
ATOM     18  C   UNL     1       3.305   3.900  17.726  0.00  0.00    +0.000 A 
ATOM     19  C   UNL     1       1.978   4.317  17.706  0.00  0.00    +0.000 A 
ATOM     20  C   UNL     1       1.657   5.657  17.942  0.00  0.00    +0.000 A 
BRANCH  18  21
ATOM     21  O   UNL     1       3.742   2.620  17.580  0.00  0.00    +0.000 OA
BRANCH  21  22
ATOM     22  C   UNL     1       3.563   1.703  18.654  0.00  0.00    +0.000 C 
ATOM     23  F   UNL     1       2.278   1.520  19.023  0.00  0.00    +0.000 F 
ATOM     24  F   UNL     1       4.095   0.509  18.315  0.00  0.00    +0.000 F 
ATOM     25  F   UNL     1       4.234   2.172  19.731  0.00  0.00    +0.000 F 
ENDBRANCH  21  22
ENDBRANCH  18  21
ENDBRANCH  14  15
ENDBRANCH   5  14
TORSDOF 7
ENDMDL
MODEL 8
REMARK VINA RESULT:      -5.9      4.103      8.638
REMARK  Name = 
REMARK  9 active torsions:
REMARK  status: ('A' for Active; 'I' for Inactive)
REMARK    1  A    between atoms: C_1  and  C_2
REMARK    2  A    between atoms: C_2  and  C_3
REMARK    3  A    between atoms: C_3  and  C_4
REMARK    4  A    between atoms: C_3  and  N_6
REMARK    5  A    between atoms: C_4  and  C_5
REMARK    6  A    between atoms: C_10  and  C_12
REMARK    7  A    between atoms: C_12  and  C_13
REMARK    8  A    between atoms: C_16  and  O_17
REMARK    9  A    between atoms: O_17  and  C_18
REMARK                            x       y       z     vdW  Elec       q    Type
REMARK                         _______ _______ _______ _____ _____    ______ ____
ROOT
ATOM      1  N   UNL     1      -2.691  12.203  18.167  0.00  0.00    +0.000 NA
ATOM      2  C   UNL     1      -1.615  12.765  19.036  0.00  0.00    +0.000 C 
ATOM      3  C   UNL     1      -0.730  11.720  19.752  0.00  0.00    +0.000 C 
ATOM      4  N   UNL     1      -0.215  10.710  18.824  0.00  0.00    +0.000 N 
ATOM      5  C   UNL     1       1.078  10.244  18.995  0.00  0.00    +0.000 C 
ATOM      6  O   UNL     1       1.817  10.692  19.874  0.00  0.00    +0.000 OA
ATOM      7  C   UNL     1      -1.225  10.138  17.931  0.00  0.00    +0.000 C 
ATOM      8  C   UNL     1      -2.030  11.255  17.238  0.00  0.00    +0.000 C 
ENDROOT
BRANCH   1   9
ATOM      9  C   UNL     1      -3.824  11.623  18.945  0.00  0.00    +0.000 C 
BRANCH   9  11
ATOM     10  C   UNL     1      -5.604  12.250  20.719  0.00  0.00    +0.000 C 
ATOM     11  C   UNL     1      -4.302  12.637  20.025  0.00  0.00    +0.000 C 
ENDBRANCH   9  11
BRANCH   9  12
ATOM     12  C   UNL     1      -5.023  11.139  18.076  0.00  0.00    +0.000 C 
ATOM     13  C   UNL     1      -5.597  12.152  17.090  0.00  0.00    +0.000 C 
ENDBRANCH   9  12
ENDBRANCH   1   9
BRANCH   5  14
ATOM     14  C   UNL     1       1.594   9.150  18.070  0.00  0.00    +0.000 C 
BRANCH  14  15
ATOM     15  C   UNL     1       2.006   7.871  18.768  0.00  0.00    +0.000 A 
ATOM     16  C   UNL     1       1.595   7.636  20.086  0.00  0.00    +0.000 A 
ATOM     17  C   UNL     1       1.847   6.403  20.699  0.00  0.00    +0.000 A 
ATOM     18  C   UNL     1       2.494   5.378  20.002  0.00  0.00    +0.000 A 
ATOM     19  C   UNL     1       2.964   5.629  18.717  0.00  0.00    +0.000 A 
ATOM     20  C   UNL     1       2.696   6.853  18.095  0.00  0.00    +0.000 A 
BRANCH  18  21
ATOM     21  O   UNL     1       2.628   4.211  20.687  0.00  0.00    +0.000 OA
BRANCH  21  22
ATOM     22  C   UNL     1       1.557   3.274  20.668  0.00  0.00    +0.000 C 
ATOM     23  F   UNL     1       0.431   3.725  20.078  0.00  0.00    +0.000 F 
ATOM     24  F   UNL     1       1.959   2.149  20.038  0.00  0.00    +0.000 F 
ATOM     25  F   UNL     1       1.248   2.952  21.945  0.00  0.00    +0.000 F 
ENDBRANCH  21  22
ENDBRANCH  18  21
ENDBRANCH  14  15
ENDBRANCH   5  14
TORSDOF 7
ENDMDL
MODEL 9
REMARK VINA RESULT:      -5.9      7.560      9.685
REMARK  Name = 
REMARK  9 active torsions:
REMARK  status: ('A' for Active; 'I' for Inactive)
REMARK    1  A    between atoms: C_1  and  C_2
REMARK    2  A    between atoms: C_2  and  C_3
REMARK    3  A    between atoms: C_3  and  C_4
REMARK    4  A    between atoms: C_3  and  N_6
REMARK    5  A    between atoms: C_4  and  C_5
REMARK    6  A    between atoms: C_10  and  C_12
REMARK    7  A    between atoms: C_12  and  C_13
REMARK    8  A    between atoms: C_16  and  O_17
REMARK    9  A    between atoms: O_17  and  C_18
REMARK                            x       y       z     vdW  Elec       q    Type
REMARK                         _______ _______ _______ _____ _____    ______ ____
ROOT
ATOM      1  N   UNL     1       3.168   5.293  19.435  0.00  0.00    +0.000 NA
ATOM      2  C   UNL     1       4.544   5.082  19.975  0.00  0.00    +0.000 C 
ATOM      3  C   UNL     1       5.546   4.431  18.995  0.00  0.00    +0.000 C 
ATOM      4  N   UNL     1       5.564   5.113  17.697  0.00  0.00    +0.000 N 
ATOM      5  C   UNL     1       6.773   5.269  17.043  0.00  0.00    +0.000 C 
ATOM      6  O   UNL     1       7.836   4.894  17.544  0.00  0.00    +0.000 OA
ATOM      7  C   UNL     1       4.238   5.365  17.129  0.00  0.00    +0.000 C 
ATOM      8  C   UNL     1       3.324   6.046  18.168  0.00  0.00    +0.000 C 
ENDROOT
BRANCH   1   9
ATOM      9  C   UNL     1       2.389   4.027  19.315  0.00  0.00    +0.000 C 
BRANCH   9  11
ATOM     10  C   UNL     1       1.336   3.053  21.472  0.00  0.00    +0.000 C 
ATOM     11  C   UNL     1       1.197   4.038  20.316  0.00  0.00    +0.000 C 
ENDBRANCH   9  11
BRANCH   9  12
ATOM     12  C   UNL     1       1.893   3.709  17.872  0.00  0.00    +0.000 C 
ATOM     13  C   UNL     1       2.379   2.399  17.262  0.00  0.00    +0.000 C 
ENDBRANCH   9  12
ENDBRANCH   1   9
BRANCH   5  14
ATOM     14  C   UNL     1       6.786   5.921  15.666  0.00  0.00    +0.000 C 
BRANCH  14  15
ATOM     15  C   UNL     1       6.661   4.956  14.505  0.00  0.00    +0.000 A 
ATOM     16  C   UNL     1       5.667   3.971  14.525  0.00  0.00    +0.000 A 
ATOM     17  C   UNL     1       5.445   3.162  13.405  0.00  0.00    +0.000 A 
ATOM     18  C   UNL     1       6.198   3.335  12.240  0.00  0.00    +0.000 A 
ATOM     19  C   UNL     1       7.232   4.266  12.238  0.00  0.00    +0.000 A 
ATOM     20  C   UNL     1       7.441   5.089  13.349  0.00  0.00    +0.000 A 
BRANCH  18  21
ATOM     21  O   UNL     1       5.849   2.528  11.203  0.00  0.00    +0.000 OA
BRANCH  21  22
ATOM     22  C   UNL     1       6.656   1.392  10.912  0.00  0.00    +0.000 C 
ATOM     23  F   UNL     1       6.064   0.207  11.168  0.00  0.00    +0.000 F 
ATOM     24  F   UNL     1       7.022   1.425   9.612  0.00  0.00    +0.000 F 
ATOM     25  F   UNL     1       7.777   1.460  11.666  0.00  0.00    +0.000 F 
ENDBRANCH  21  22
ENDBRANCH  18  21
ENDBRANCH  14  15
ENDBRANCH   5  14
TORSDOF 7
ENDMDL
