MODEL 1
REMARK VINA RESULT:      -7.4      0.000      0.000
REMARK  Name = 
REMARK  2 active torsions:
REMARK  status: ('A' for Active; 'I' for Inactive)
REMARK    1  A    between atoms: N_3  and  C_4
REMARK    2  A    between atoms: C_10  and  C_11
REMARK                            x       y       z     vdW  Elec       q    Type
REMARK                         _______ _______ _______ _____ _____    ______ ____
ROOT
ATOM      1  C   UNL     1       3.695   4.366  18.113  0.00  0.00    +0.000 A 
ATOM      2  C   UNL     1       3.246   3.690  19.267  0.00  0.00    +0.000 A 
ATOM      3  C   UNL     1       2.522   4.341  20.273  0.00  0.00    +0.000 A 
ATOM      4 CL   UNL     1       1.971   3.492  21.654  0.00  0.00    +0.000 Cl
ATOM      5  C   UNL     1       2.283   5.693  20.089  0.00  0.00    +0.000 A 
ATOM      6  O   UNL     1       1.612   6.549  20.910  0.00  0.00    +0.000 OA
ATOM      7  C   UNL     1       1.660   7.753  20.255  0.00  0.00    +0.000 A 
ATOM      8  N   UNL     1       2.313   7.721  19.106  0.00  0.00    +0.000 NA
ATOM      9  C   UNL     1       2.709   6.411  18.987  0.00  0.00    +0.000 A 
ATOM     10  C   UNL     1       3.428   5.746  17.982  0.00  0.00    +0.000 A 
ENDROOT
BRANCH   7  11
ATOM     11  C   UNL     1       0.966   8.858  20.898  0.00  0.00    +0.000 A 
ATOM     12  C   UNL     1       0.160   9.732  20.160  0.00  0.00    +0.000 A 
ATOM     13  C   UNL     1      -0.523  10.765  20.805  0.00  0.00    +0.000 A 
ATOM     14  C   UNL     1      -0.364  10.893  22.174  0.00  0.00    +0.000 A 
ATOM     15 CL   UNL     1      -1.164  12.135  23.043  0.00  0.00    +0.000 Cl
ATOM     16  N   UNL     1       0.406  10.084  22.926  0.00  0.00    +0.000 NA
ATOM     17  C   UNL     1       1.050   9.087  22.271  0.00  0.00    +0.000 A 
ENDBRANCH   7  11
BRANCH   1  20
ATOM     18  S   UNL     1       6.928   4.910  16.533  0.00  0.00    +0.000 S 
ATOM     19  C   UNL     1       5.513   4.262  16.874  0.00  0.00    +0.000 C 
ATOM     20  N   UNL     1       4.464   3.772  17.085  0.00  0.00    +0.000 NA
ENDBRANCH   1  20
TORSDOF 2
ENDMDL
MODEL 2
REMARK VINA RESULT:      -7.2      2.404      3.168
REMARK  Name = 
REMARK  2 active torsions:
REMARK  status: ('A' for Active; 'I' for Inactive)
REMARK    1  A    between atoms: N_3  and  C_4
REMARK    2  A    between atoms: C_10  and  C_11
REMARK                            x       y       z     vdW  Elec       q    Type
REMARK                         _______ _______ _______ _____ _____    ______ ____
ROOT
ATOM      1  C   UNL     1       5.712   4.724  15.562  0.00  0.00    +0.000 A 
ATOM      2  C   UNL     1       5.052   3.675  16.237  0.00  0.00    +0.000 A 
ATOM      3  C   UNL     1       4.074   3.919  17.207  0.00  0.00    +0.000 A 
ATOM      4 CL   UNL     1       3.274   2.627  17.998  0.00  0.00    +0.000 Cl
ATOM      5  C   UNL     1       3.794   5.246  17.487  0.00  0.00    +0.000 A 
ATOM      6  O   UNL     1       2.896   5.748  18.381  0.00  0.00    +0.000 OA
ATOM      7  C   UNL     1       3.014   7.108  18.252  0.00  0.00    +0.000 A 
ATOM      8  N   UNL     1       3.917   7.494  17.366  0.00  0.00    +0.000 NA
ATOM      9  C   UNL     1       4.416   6.315  16.868  0.00  0.00    +0.000 A 
ATOM     10  C   UNL     1       5.391   6.058  15.892  0.00  0.00    +0.000 A 
ENDROOT
BRANCH   7  11
ATOM     11  C   UNL     1       2.118   7.909  19.073  0.00  0.00    +0.000 A 
ATOM     12  C   UNL     1       1.831   7.545  20.393  0.00  0.00    +0.000 A 
ATOM     13  C   UNL     1       0.996   8.348  21.172  0.00  0.00    +0.000 A 
ATOM     14  C   UNL     1       0.466   9.488  20.594  0.00  0.00    +0.000 A 
ATOM     15 CL   UNL     1      -0.571  10.527  21.478  0.00  0.00    +0.000 Cl
ATOM     16  N   UNL     1       0.705   9.875  19.326  0.00  0.00    +0.000 NA
ATOM     17  C   UNL     1       1.526   9.078  18.599  0.00  0.00    +0.000 A 
ENDBRANCH   7  11
BRANCH   1  20
ATOM     18  S   UNL     1       6.043   3.279  12.239  0.00  0.00    +0.000 S 
ATOM     19  C   UNL     1       6.420   4.014  13.600  0.00  0.00    +0.000 C 
ATOM     20  N   UNL     1       6.736   4.541  14.604  0.00  0.00    +0.000 NA
ENDBRANCH   1  20
TORSDOF 2
ENDMDL
MODEL 3
REMARK VINA RESULT:      -7.2      0.697      1.095
REMARK  Name = 
REMARK  2 active torsions:
REMARK  status: ('A' for Active; 'I' for Inactive)
REMARK    1  A    between atoms: N_3  and  C_4
REMARK    2  A    between atoms: C_10  and  C_11
REMARK                            x       y       z     vdW  Elec       q    Type
REMARK                         _______ _______ _______ _____ _____    ______ ____
ROOT
ATOM      1  C   UNL     1       3.757   4.703  18.085  0.00  0.00    +0.000 A 
ATOM      2  C   UNL     1       3.337   3.965  19.212  0.00  0.00    +0.000 A 
ATOM      3  C   UNL     1       2.575   4.543  20.234  0.00  0.00    +0.000 A 
ATOM      4 CL   UNL     1       2.062   3.620  21.582  0.00  0.00    +0.000 Cl
ATOM      5  C   UNL     1       2.265   5.885  20.093  0.00  0.00    +0.000 A 
ATOM      6  O   UNL     1       1.545   6.677  20.937  0.00  0.00    +0.000 OA
ATOM      7  C   UNL     1       1.532   7.903  20.322  0.00  0.00    +0.000 A 
ATOM      8  N   UNL     1       2.192   7.944  19.177  0.00  0.00    +0.000 NA
ATOM      9  C   UNL     1       2.659   6.662  19.018  0.00  0.00    +0.000 A 
ATOM     10  C   UNL     1       3.417   6.069  17.997  0.00  0.00    +0.000 A 
ENDROOT
BRANCH   7  11
ATOM     11  C   UNL     1       0.777   8.948  20.996  0.00  0.00    +0.000 A 
ATOM     12  C   UNL     1       0.465   8.850  22.356  0.00  0.00    +0.000 A 
ATOM     13  C   UNL     1      -0.231   9.882  22.990  0.00  0.00    +0.000 A 
ATOM     14  C   UNL     1      -0.601  10.978  22.230  0.00  0.00    +0.000 A 
ATOM     15 CL   UNL     1      -1.459  12.287  22.927  0.00  0.00    +0.000 Cl
ATOM     16  N   UNL     1      -0.331  11.115  20.917  0.00  0.00    +0.000 NA
ATOM     17  C   UNL     1       0.352  10.099  20.334  0.00  0.00    +0.000 A 
ENDBRANCH   7  11
BRANCH   1  20
ATOM     18  S   UNL     1       7.279   4.700  17.172  0.00  0.00    +0.000 S 
ATOM     19  C   UNL     1       5.716   4.403  17.122  0.00  0.00    +0.000 C 
ATOM     20  N   UNL     1       4.562   4.185  17.043  0.00  0.00    +0.000 NA
ENDBRANCH   1  20
TORSDOF 2
ENDMDL
MODEL 4
REMARK VINA RESULT:      -7.2      2.312      2.925
REMARK  Name = 
REMARK  2 active torsions:
REMARK  status: ('A' for Active; 'I' for Inactive)
REMARK    1  A    between atoms: N_3  and  C_4
REMARK    2  A    between atoms: C_10  and  C_11
REMARK                            x       y       z     vdW  Elec       q    Type
REMARK                         _______ _______ _______ _____ _____    ______ ____
ROOT
ATOM      1  C   UNL     1       5.661   4.652  15.674  0.00  0.00    +0.000 A 
ATOM      2  C   UNL     1       4.928   3.644  16.335  0.00  0.00    +0.000 A 
ATOM      3  C   UNL     1       3.931   3.944  17.269  0.00  0.00    +0.000 A 
ATOM      4 CL   UNL     1       3.043   2.701  18.042  0.00  0.00    +0.000 Cl
ATOM      5  C   UNL     1       3.708   5.286  17.529  0.00  0.00    +0.000 A 
ATOM      6  O   UNL     1       2.806   5.840  18.388  0.00  0.00    +0.000 OA
ATOM      7  C   UNL     1       2.996   7.191  18.252  0.00  0.00    +0.000 A 
ATOM      8  N   UNL     1       3.946   7.524  17.395  0.00  0.00    +0.000 NA
ATOM      9  C   UNL     1       4.403   6.317  16.923  0.00  0.00    +0.000 A 
ATOM     10  C   UNL     1       5.396   6.003  15.983  0.00  0.00    +0.000 A 
ENDROOT
BRANCH   7  11
ATOM     11  C   UNL     1       2.114   8.042  19.036  0.00  0.00    +0.000 A 
ATOM     12  C   UNL     1       1.493   9.158  18.466  0.00  0.00    +0.000 A 
ATOM     13  C   UNL     1       0.623   9.940  19.229  0.00  0.00    +0.000 A 
ATOM     14  C   UNL     1       0.414   9.579  20.549  0.00  0.00    +0.000 A 
ATOM     15 CL   UNL     1      -0.635  10.485  21.557  0.00  0.00    +0.000 Cl
ATOM     16  N   UNL     1       0.995   8.520  21.146  0.00  0.00    +0.000 NA
ATOM     17  C   UNL     1       1.827   7.778  20.375  0.00  0.00    +0.000 A 
ENDBRANCH   7  11
BRANCH   1  20
ATOM     18  S   UNL     1       6.004   3.342  12.296  0.00  0.00    +0.000 S 
ATOM     19  C   UNL     1       6.387   3.968  13.710  0.00  0.00    +0.000 C 
ATOM     20  N   UNL     1       6.707   4.410  14.753  0.00  0.00    +0.000 NA
ENDBRANCH   1  20
TORSDOF 2
ENDMDL
MODEL 5
REMARK VINA RESULT:      -6.8      3.854      7.759
REMARK  Name = 
REMARK  2 active torsions:
REMARK  status: ('A' for Active; 'I' for Inactive)
REMARK    1  A    between atoms: N_3  and  C_4
REMARK    2  A    between atoms: C_10  and  C_11
REMARK                            x       y       z     vdW  Elec       q    Type
REMARK                         _______ _______ _______ _____ _____    ______ ____
ROOT
ATOM      1  C   UNL     1       0.350   9.134  21.575  0.00  0.00    +0.000 A 
ATOM      2  C   UNL     1       0.476  10.123  20.576  0.00  0.00    +0.000 A 
ATOM      3  C   UNL     1       1.207   9.902  19.403  0.00  0.00    +0.000 A 
ATOM      4 CL   UNL     1       1.328  11.112  18.198  0.00  0.00    +0.000 Cl
ATOM      5  C   UNL     1       1.819   8.666  19.277  0.00  0.00    +0.000 A 
ATOM      6  O   UNL     1       2.581   8.204  18.246  0.00  0.00    +0.000 OA
ATOM      7  C   UNL     1       2.924   6.931  18.622  0.00  0.00    +0.000 A 
ATOM      8  N   UNL     1       2.453   6.567  19.803  0.00  0.00    +0.000 NA
ATOM      9  C   UNL     1       1.741   7.664  20.227  0.00  0.00    +0.000 A 
ATOM     10  C   UNL     1       1.000   7.895  21.396  0.00  0.00    +0.000 A 
ENDROOT
BRANCH   7  11
ATOM     11  C   UNL     1       3.715   6.173  17.665  0.00  0.00    +0.000 A 
ATOM     12  C   UNL     1       4.649   6.806  16.838  0.00  0.00    +0.000 A 
ATOM     13  C   UNL     1       5.421   6.053  15.952  0.00  0.00    +0.000 A 
ATOM     14  C   UNL     1       5.221   4.683  15.918  0.00  0.00    +0.000 A 
ATOM     15 CL   UNL     1       6.124   3.684  14.858  0.00  0.00    +0.000 Cl
ATOM     16  N   UNL     1       4.330   4.029  16.687  0.00  0.00    +0.000 NA
ATOM     17  C   UNL     1       3.601   4.788  17.542  0.00  0.00    +0.000 A 
ENDBRANCH   7  11
BRANCH   1  20
ATOM     18  S   UNL     1      -1.689  11.706  23.146  0.00  0.00    +0.000 S 
ATOM     19  C   UNL     1      -0.918  10.331  22.922  0.00  0.00    +0.000 C 
ATOM     20  N   UNL     1      -0.339   9.314  22.797  0.00  0.00    +0.000 NA
ENDBRANCH   1  20
TORSDOF 2
ENDMDL
MODEL 6
REMARK VINA RESULT:      -6.8      5.033      6.082
REMARK  Name = 
REMARK  2 active torsions:
REMARK  status: ('A' for Active; 'I' for Inactive)
REMARK    1  A    between atoms: N_3  and  C_4
REMARK    2  A    between atoms: C_10  and  C_11
REMARK                            x       y       z     vdW  Elec       q    Type
REMARK                         _______ _______ _______ _____ _____    ______ ____
ROOT
ATOM      1  C   UNL     1       6.701   4.767  14.931  0.00  0.00    +0.000 A 
ATOM      2  C   UNL     1       7.377   5.456  15.961  0.00  0.00    +0.000 A 
ATOM      3  C   UNL     1       6.916   5.451  17.282  0.00  0.00    +0.000 A 
ATOM      4 CL   UNL     1       7.767   6.279  18.516  0.00  0.00    +0.000 Cl
ATOM      5  C   UNL     1       5.748   4.749  17.529  0.00  0.00    +0.000 A 
ATOM      6  O   UNL     1       5.095   4.592  18.715  0.00  0.00    +0.000 OA
ATOM      7  C   UNL     1       4.013   3.808  18.404  0.00  0.00    +0.000 A 
ATOM      8  N   UNL     1       3.931   3.477  17.126  0.00  0.00    +0.000 NA
ATOM      9  C   UNL     1       5.036   4.067  16.561  0.00  0.00    +0.000 A 
ATOM     10  C   UNL     1       5.511   4.073  15.240  0.00  0.00    +0.000 A 
ENDROOT
BRANCH   7  11
ATOM     11  C   UNL     1       3.151   3.438  19.515  0.00  0.00    +0.000 A 
ATOM     12  C   UNL     1       1.781   3.723  19.493  0.00  0.00    +0.000 A 
ATOM     13  C   UNL     1       0.968   3.327  20.556  0.00  0.00    +0.000 A 
ATOM     14  C   UNL     1       1.562   2.665  21.617  0.00  0.00    +0.000 A 
ATOM     15 CL   UNL     1       0.637   2.147  22.964  0.00  0.00    +0.000 Cl
ATOM     16  N   UNL     1       2.875   2.375  21.689  0.00  0.00    +0.000 NA
ATOM     17  C   UNL     1       3.636   2.767  20.637  0.00  0.00    +0.000 A 
ENDBRANCH   7  11
BRANCH   1  20
ATOM     18  S   UNL     1       5.871   2.933  11.900  0.00  0.00    +0.000 S 
ATOM     19  C   UNL     1       6.554   3.991  12.875  0.00  0.00    +0.000 C 
ATOM     20  N   UNL     1       7.095   4.769  13.573  0.00  0.00    +0.000 NA
ENDBRANCH   1  20
TORSDOF 2
ENDMDL
MODEL 7
REMARK VINA RESULT:      -6.7      3.900      7.768
REMARK  Name = 
REMARK  2 active torsions:
REMARK  status: ('A' for Active; 'I' for Inactive)
REMARK    1  A    between atoms: N_3  and  C_4
REMARK    2  A    between atoms: C_10  and  C_11
REMARK                            x       y       z     vdW  Elec       q    Type
REMARK                         _______ _______ _______ _____ _____    ______ ____
ROOT
ATOM      1  C   UNL     1       0.305   9.184  21.589  0.00  0.00    +0.000 A 
ATOM      2  C   UNL     1       0.338  10.096  20.513  0.00  0.00    +0.000 A 
ATOM      3  C   UNL     1       1.047   9.830  19.337  0.00  0.00    +0.000 A 
ATOM      4 CL   UNL     1       1.054  10.946  18.038  0.00  0.00    +0.000 Cl
ATOM      5  C   UNL     1       1.734   8.629  19.286  0.00  0.00    +0.000 A 
ATOM      6  O   UNL     1       2.495   8.136  18.268  0.00  0.00    +0.000 OA
ATOM      7  C   UNL     1       2.931   6.920  18.729  0.00  0.00    +0.000 A 
ATOM      8  N   UNL     1       2.519   6.622  19.950  0.00  0.00    +0.000 NA
ATOM      9  C   UNL     1       1.750   7.702  20.312  0.00  0.00    +0.000 A 
ATOM     10  C   UNL     1       1.029   7.978  21.484  0.00  0.00    +0.000 A 
ENDROOT
BRANCH   7  11
ATOM     11  C   UNL     1       3.742   6.140  17.807  0.00  0.00    +0.000 A 
ATOM     12  C   UNL     1       3.481   4.783  17.586  0.00  0.00    +0.000 A 
ATOM     13  C   UNL     1       4.251   4.064  16.671  0.00  0.00    +0.000 A 
ATOM     14  C   UNL     1       5.270   4.731  16.013  0.00  0.00    +0.000 A 
ATOM     15 CL   UNL     1       6.265   3.923  14.876  0.00  0.00    +0.000 Cl
ATOM     16  N   UNL     1       5.566   6.032  16.197  0.00  0.00    +0.000 NA
ATOM     17  C   UNL     1       4.794   6.704  17.087  0.00  0.00    +0.000 A 
ENDBRANCH   7  11
BRANCH   1  20
ATOM     18  S   UNL     1      -1.622  11.860  23.127  0.00  0.00    +0.000 S 
ATOM     19  C   UNL     1      -0.901  10.454  22.925  0.00  0.00    +0.000 C 
ATOM     20  N   UNL     1      -0.359   9.416  22.816  0.00  0.00    +0.000 NA
ENDBRANCH   1  20
TORSDOF 2
ENDMDL
MODEL 8
REMARK VINA RESULT:      -6.6      6.649      7.376
REMARK  Name = 
REMARK  2 active torsions:
REMARK  status: ('A' for Active; 'I' for Inactive)
REMARK    1  A    between atoms: N_3  and  C_4
REMARK    2  A    between atoms: C_10  and  C_11
REMARK                            x       y       z     vdW  Elec       q    Type
REMARK                         _______ _______ _______ _____ _____    ______ ____
ROOT
ATOM      1  C   UNL     1       6.321   5.139  17.111  0.00  0.00    +0.000 A 
ATOM      2  C   UNL     1       7.048   4.735  18.251  0.00  0.00    +0.000 A 
ATOM      3  C   UNL     1       7.853   5.625  18.970  0.00  0.00    +0.000 A 
ATOM      4 CL   UNL     1       8.709   5.114  20.362  0.00  0.00    +0.000 Cl
ATOM      5  C   UNL     1       7.918   6.925  18.495  0.00  0.00    +0.000 A 
ATOM      6  O   UNL     1       8.623   7.974  19.005  0.00  0.00    +0.000 OA
ATOM      7  C   UNL     1       8.328   9.019  18.167  0.00  0.00    +0.000 A 
ATOM      8  N   UNL     1       7.513   8.707  17.175  0.00  0.00    +0.000 NA
ATOM      9  C   UNL     1       7.240   7.376  17.378  0.00  0.00    +0.000 A 
ATOM     10  C   UNL     1       6.430   6.475  16.669  0.00  0.00    +0.000 A 
ENDROOT
BRANCH   7  11
ATOM     11  C   UNL     1       8.923  10.302  18.511  0.00  0.00    +0.000 A 
ATOM     12  C   UNL     1       9.777  10.429  19.611  0.00  0.00    +0.000 A 
ATOM     13  C   UNL     1      10.363  11.663  19.902  0.00  0.00    +0.000 A 
ATOM     14  C   UNL     1      10.060  12.735  19.080  0.00  0.00    +0.000 A 
ATOM     15 CL   UNL     1      10.734  14.285  19.366  0.00  0.00    +0.000 Cl
ATOM     16  N   UNL     1       9.238  12.665  18.015  0.00  0.00    +0.000 NA
ATOM     17  C   UNL     1       8.692  11.451  17.757  0.00  0.00    +0.000 A 
ENDBRANCH   7  11
BRANCH   1  20
ATOM     18  S   UNL     1       6.268   3.940  13.675  0.00  0.00    +0.000 S 
ATOM     19  C   UNL     1       5.864   4.136  15.203  0.00  0.00    +0.000 C 
ATOM     20  N   UNL     1       5.525   4.277  16.321  0.00  0.00    +0.000 NA
ENDBRANCH   1  20
TORSDOF 2
ENDMDL
MODEL 9
REMARK VINA RESULT:      -6.5      3.112      7.129
REMARK  Name = 
REMARK  2 active torsions:
REMARK  status: ('A' for Active; 'I' for Inactive)
REMARK    1  A    between atoms: N_3  and  C_4
REMARK    2  A    between atoms: C_10  and  C_11
REMARK                            x       y       z     vdW  Elec       q    Type
REMARK                         _______ _______ _______ _____ _____    ______ ____
ROOT
ATOM      1  C   UNL     1       0.330  11.594  19.858  0.00  0.00    +0.000 A 
ATOM      2  C   UNL     1      -0.017  11.231  21.177  0.00  0.00    +0.000 A 
ATOM      3  C   UNL     1       0.283   9.969  21.702  0.00  0.00    +0.000 A 
ATOM      4 CL   UNL     1      -0.132   9.561  23.312  0.00  0.00    +0.000 Cl
ATOM      5  C   UNL     1       0.926   9.082  20.854  0.00  0.00    +0.000 A 
ATOM      6  O   UNL     1       1.324   7.805  21.114  0.00  0.00    +0.000 OA
ATOM      7  C   UNL     1       1.910   7.388  19.947  0.00  0.00    +0.000 A 
ATOM      8  N   UNL     1       1.899   8.290  18.980  0.00  0.00    +0.000 NA
ATOM      9  C   UNL     1       1.279   9.376  19.549  0.00  0.00    +0.000 A 
ATOM     10  C   UNL     1       0.978  10.648  19.037  0.00  0.00    +0.000 A 
ENDROOT
BRANCH   7  11
ATOM     11  C   UNL     1       2.477   6.048  19.959  0.00  0.00    +0.000 A 
ATOM     12  C   UNL     1       1.828   4.996  20.613  0.00  0.00    +0.000 A 
ATOM     13  C   UNL     1       2.374   3.711  20.582  0.00  0.00    +0.000 A 
ATOM     14  C   UNL     1       3.565   3.528  19.902  0.00  0.00    +0.000 A 
ATOM     15 CL   UNL     1       4.305   1.985  19.816  0.00  0.00    +0.000 Cl
ATOM     16  N   UNL     1       4.232   4.510  19.264  0.00  0.00    +0.000 NA
ATOM     17  C   UNL     1       3.671   5.743  19.308  0.00  0.00    +0.000 A 
ENDBRANCH   7  11
BRANCH   1  20
ATOM     18  S   UNL     1       2.130  14.530  18.683  0.00  0.00    +0.000 S 
ATOM     19  C   UNL     1       0.928  13.538  19.011  0.00  0.00    +0.000 C 
ATOM     20  N   UNL     1       0.016  12.838  19.261  0.00  0.00    +0.000 NA
ENDBRANCH   1  20
TORSDOF 2
ENDMDL
