MODEL 1
REMARK VINA RESULT:      -8.0      0.000      0.000
REMARK  Name = 
REMARK  8 active torsions:
REMARK  status: ('A' for Active; 'I' for Inactive)
REMARK    1  A    between atoms: C_1  and  O_2
REMARK    2  A    between atoms: O_2  and  C_3
REMARK    3  A    between atoms: C_8  and  C_9
REMARK    4  A    between atoms: N_11  and  C_12
REMARK    5  A    between atoms: C_12  and  C_13
REMARK    6  A    between atoms: C_20  and  C_21
REMARK    7  A    between atoms: C_22  and  C_23
REMARK    8  A    between atoms: C_23  and  O_25
REMARK                            x       y       z     vdW  Elec       q    Type
REMARK                         _______ _______ _______ _____ _____    ______ ____
ROOT
ATOM      1  C   UNL     1       3.891   4.796  17.810  0.00  0.00    +0.000 A 
ATOM      2  N   UNL     1       4.907   4.196  17.153  0.00  0.00    +0.000 NA
ATOM      3  N   UNL     1       5.658   5.200  16.669  0.00  0.00    +0.000 N 
ATOM      4  C   UNL     1       5.172   6.438  16.981  0.00  0.00    +0.000 A 
ATOM      5  C   UNL     1       4.030   6.221  17.718  0.00  0.00    +0.000 A 
ENDROOT
BRANCH   1  11
ATOM      6  C   UNL     1       3.074   3.166  19.600  0.00  0.00    +0.000 A 
ATOM      7  C   UNL     1       1.998   2.479  20.186  0.00  0.00    +0.000 A 
ATOM      8  C   UNL     1       0.726   2.515  19.612  0.00  0.00    +0.000 A 
ATOM      9  C   UNL     1       0.513   3.242  18.449  0.00  0.00    +0.000 A 
ATOM     10  C   UNL     1       1.563   3.968  17.886  0.00  0.00    +0.000 A 
ATOM     11  C   UNL     1       2.852   3.968  18.460  0.00  0.00    +0.000 A 
BRANCH   6  13
ATOM     12  C   UNL     1       4.846   1.802  20.434  0.00  0.00    +0.000 C 
ATOM     13  O   UNL     1       4.349   3.092  20.099  0.00  0.00    +0.000 OA
ENDBRANCH   6  13
ENDBRANCH   1  11
BRANCH   5  14
ATOM     14  C   UNL     1       3.190   7.245  18.253  0.00  0.00    +0.000 C 
ATOM     15  C   UNL     1       2.531   8.154  17.515  0.00  0.00    +0.000 C 
BRANCH  15  16
ATOM     16  C   UNL     1       1.814   9.254  18.186  0.00  0.00    +0.000 C 
ATOM     17  O   UNL     1       1.278   9.178  19.277  0.00  0.00    +0.000 OA
BRANCH  16  18
ATOM     18  O   UNL     1       1.832  10.386  17.454  0.00  0.00    +0.000 OA
ATOM     19  H   UNL     1       1.246  11.100  17.766  0.00  0.00    +0.000 HD
ENDBRANCH  16  18
ENDBRANCH  15  16
ENDBRANCH   5  14
BRANCH   3  20
ATOM     20  C   UNL     1       6.949   4.911  16.051  0.00  0.00    +0.000 C 
BRANCH  20  21
ATOM     21  C   UNL     1       6.878   4.688  14.560  0.00  0.00    +0.000 A 
ATOM     22  C   UNL     1       7.740   5.385  13.696  0.00  0.00    +0.000 A 
ATOM     23  C   UNL     1       7.748   5.112  12.326  0.00  0.00    +0.000 A 
ATOM     24  C   UNL     1       6.900   4.142  11.801  0.00  0.00    +0.000 A 
ATOM     25  C   UNL     1       6.034   3.448  12.644  0.00  0.00    +0.000 A 
ATOM     26  C   UNL     1       6.024   3.718  14.015  0.00  0.00    +0.000 A 
ENDBRANCH  20  21
ENDBRANCH   3  20
TORSDOF 7
ENDMDL
MODEL 2
REMARK VINA RESULT:      -7.8      1.182      1.775
REMARK  Name = 
REMARK  8 active torsions:
REMARK  status: ('A' for Active; 'I' for Inactive)
REMARK    1  A    between atoms: C_1  and  O_2
REMARK    2  A    between atoms: O_2  and  C_3
REMARK    3  A    between atoms: C_8  and  C_9
REMARK    4  A    between atoms: N_11  and  C_12
REMARK    5  A    between atoms: C_12  and  C_13
REMARK    6  A    between atoms: C_20  and  C_21
REMARK    7  A    between atoms: C_22  and  C_23
REMARK    8  A    between atoms: C_23  and  O_25
REMARK                            x       y       z     vdW  Elec       q    Type
REMARK                         _______ _______ _______ _____ _____    ______ ____
ROOT
ATOM      1  C   UNL     1       3.607   4.998  17.807  0.00  0.00    +0.000 A 
ATOM      2  N   UNL     1       4.721   4.388  17.350  0.00  0.00    +0.000 NA
ATOM      3  N   UNL     1       5.415   5.349  16.714  0.00  0.00    +0.000 N 
ATOM      4  C   UNL     1       4.797   6.566  16.734  0.00  0.00    +0.000 A 
ATOM      5  C   UNL     1       3.624   6.384  17.430  0.00  0.00    +0.000 A 
ENDROOT
BRANCH   1  11
ATOM      6  C   UNL     1       2.094   4.570  19.821  0.00  0.00    +0.000 A 
ATOM      7  C   UNL     1       1.079   3.796  20.407  0.00  0.00    +0.000 A 
ATOM      8  C   UNL     1       0.615   2.634  19.788  0.00  0.00    +0.000 A 
ATOM      9  C   UNL     1       1.156   2.235  18.574  0.00  0.00    +0.000 A 
ATOM     10  C   UNL     1       2.130   3.022  17.959  0.00  0.00    +0.000 A 
ATOM     11  C   UNL     1       2.598   4.214  18.552  0.00  0.00    +0.000 A 
BRANCH   6  13
ATOM     12  C   UNL     1       1.712   6.694  20.841  0.00  0.00    +0.000 C 
ATOM     13  O   UNL     1       2.620   5.676  20.438  0.00  0.00    +0.000 OA
ENDBRANCH   6  13
ENDBRANCH   1  11
BRANCH   5  14
ATOM     14  C   UNL     1       2.655   7.400  17.691  0.00  0.00    +0.000 C 
ATOM     15  C   UNL     1       2.872   8.717  17.536  0.00  0.00    +0.000 C 
BRANCH  15  16
ATOM     16  C   UNL     1       1.846   9.680  17.980  0.00  0.00    +0.000 C 
ATOM     17  O   UNL     1       0.909   9.417  18.711  0.00  0.00    +0.000 OA
BRANCH  16  18
ATOM     18  O   UNL     1       2.074  10.917  17.494  0.00  0.00    +0.000 OA
ATOM     19  H   UNL     1       2.913  11.033  17.013  0.00  0.00    +0.000 HD
ENDBRANCH  16  18
ENDBRANCH  15  16
ENDBRANCH   5  14
BRANCH   3  20
ATOM     20  C   UNL     1       6.772   5.078  16.247  0.00  0.00    +0.000 C 
BRANCH  20  21
ATOM     21  C   UNL     1       6.856   4.716  14.784  0.00  0.00    +0.000 A 
ATOM     22  C   UNL     1       5.989   3.754  14.238  0.00  0.00    +0.000 A 
ATOM     23  C   UNL     1       5.995   3.486  12.867  0.00  0.00    +0.000 A 
ATOM     24  C   UNL     1       6.863   4.174  12.024  0.00  0.00    +0.000 A 
ATOM     25  C   UNL     1       7.734   5.126  12.551  0.00  0.00    +0.000 A 
ATOM     26  C   UNL     1       7.730   5.396  13.923  0.00  0.00    +0.000 A 
ENDBRANCH  20  21
ENDBRANCH   3  20
TORSDOF 7
ENDMDL
MODEL 3
REMARK VINA RESULT:      -7.7      3.319      6.731
REMARK  Name = 
REMARK  8 active torsions:
REMARK  status: ('A' for Active; 'I' for Inactive)
REMARK    1  A    between atoms: C_1  and  O_2
REMARK    2  A    between atoms: O_2  and  C_3
REMARK    3  A    between atoms: C_8  and  C_9
REMARK    4  A    between atoms: N_11  and  C_12
REMARK    5  A    between atoms: C_12  and  C_13
REMARK    6  A    between atoms: C_20  and  C_21
REMARK    7  A    between atoms: C_22  and  C_23
REMARK    8  A    between atoms: C_23  and  O_25
REMARK                            x       y       z     vdW  Elec       q    Type
REMARK                         _______ _______ _______ _____ _____    ______ ____
ROOT
ATOM      1  C   UNL     1       2.745   6.004  18.809  0.00  0.00    +0.000 A 
ATOM      2  N   UNL     1       1.908   7.055  18.676  0.00  0.00    +0.000 NA
ATOM      3  N   UNL     1       2.612   7.986  18.010  0.00  0.00    +0.000 N 
ATOM      4  C   UNL     1       3.882   7.588  17.702  0.00  0.00    +0.000 A 
ATOM      5  C   UNL     1       4.009   6.311  18.202  0.00  0.00    +0.000 A 
ENDROOT
BRANCH   1  11
ATOM      6  C   UNL     1       1.816   3.625  18.881  0.00  0.00    +0.000 A 
ATOM      7  C   UNL     1       1.479   2.499  19.651  0.00  0.00    +0.000 A 
ATOM      8  C   UNL     1       1.530   2.541  21.045  0.00  0.00    +0.000 A 
ATOM      9  C   UNL     1       1.922   3.707  21.687  0.00  0.00    +0.000 A 
ATOM     10  C   UNL     1       2.306   4.816  20.932  0.00  0.00    +0.000 A 
ATOM     11  C   UNL     1       2.288   4.791  19.521  0.00  0.00    +0.000 A 
BRANCH   6  13
ATOM     12  C   UNL     1       2.741   3.003  16.771  0.00  0.00    +0.000 C 
ATOM     13  O   UNL     1       1.707   3.637  17.514  0.00  0.00    +0.000 OA
ENDBRANCH   6  13
ENDBRANCH   1  11
BRANCH   5  14
ATOM     14  C   UNL     1       5.184   5.506  18.109  0.00  0.00    +0.000 C 
ATOM     15  C   UNL     1       6.284   5.839  17.413  0.00  0.00    +0.000 C 
BRANCH  15  16
ATOM     16  C   UNL     1       7.378   4.859  17.268  0.00  0.00    +0.000 C 
ATOM     17  O   UNL     1       7.834   4.472  16.208  0.00  0.00    +0.000 OA
BRANCH  16  18
ATOM     18  O   UNL     1       7.841   4.442  18.463  0.00  0.00    +0.000 OA
ATOM     19  H   UNL     1       8.533   4.999  18.865  0.00  0.00    +0.000 HD
ENDBRANCH  16  18
ENDBRANCH  15  16
ENDBRANCH   5  14
BRANCH   3  20
ATOM     20  C   UNL     1       1.949   9.197  17.534  0.00  0.00    +0.000 C 
BRANCH  20  21
ATOM     21  C   UNL     1       0.889   9.724  18.471  0.00  0.00    +0.000 A 
ATOM     22  C   UNL     1       1.228  10.119  19.777  0.00  0.00    +0.000 A 
ATOM     23  C   UNL     1       0.273  10.699  20.615  0.00  0.00    +0.000 A 
ATOM     24  C   UNL     1      -1.029  10.893  20.163  0.00  0.00    +0.000 A 
ATOM     25  C   UNL     1      -1.382  10.499  18.874  0.00  0.00    +0.000 A 
ATOM     26  C   UNL     1      -0.429   9.920  18.032  0.00  0.00    +0.000 A 
ENDBRANCH  20  21
ENDBRANCH   3  20
TORSDOF 7
ENDMDL
MODEL 4
REMARK VINA RESULT:      -7.6      1.369      1.691
REMARK  Name = 
REMARK  8 active torsions:
REMARK  status: ('A' for Active; 'I' for Inactive)
REMARK    1  A    between atoms: C_1  and  O_2
REMARK    2  A    between atoms: O_2  and  C_3
REMARK    3  A    between atoms: C_8  and  C_9
REMARK    4  A    between atoms: N_11  and  C_12
REMARK    5  A    between atoms: C_12  and  C_13
REMARK    6  A    between atoms: C_20  and  C_21
REMARK    7  A    between atoms: C_22  and  C_23
REMARK    8  A    between atoms: C_23  and  O_25
REMARK                            x       y       z     vdW  Elec       q    Type
REMARK                         _______ _______ _______ _____ _____    ______ ____
ROOT
ATOM      1  C   UNL     1       3.887   5.610  17.941  0.00  0.00    +0.000 A 
ATOM      2  N   UNL     1       4.824   4.807  17.394  0.00  0.00    +0.000 NA
ATOM      3  N   UNL     1       5.597   5.619  16.651  0.00  0.00    +0.000 N 
ATOM      4  C   UNL     1       5.200   6.925  16.687  0.00  0.00    +0.000 A 
ATOM      5  C   UNL     1       4.097   6.963  17.510  0.00  0.00    +0.000 A 
ENDROOT
BRANCH   1  11
ATOM      6  C   UNL     1       2.030   3.935  18.463  0.00  0.00    +0.000 A 
ATOM      7  C   UNL     1       1.127   3.409  19.402  0.00  0.00    +0.000 A 
ATOM      8  C   UNL     1       0.970   4.001  20.656  0.00  0.00    +0.000 A 
ATOM      9  C   UNL     1       1.717   5.123  20.989  0.00  0.00    +0.000 A 
ATOM     10  C   UNL     1       2.652   5.624  20.083  0.00  0.00    +0.000 A 
ATOM     11  C   UNL     1       2.848   5.028  18.818  0.00  0.00    +0.000 A 
BRANCH   6  13
ATOM     12  C   UNL     1       2.714   2.116  17.076  0.00  0.00    +0.000 C 
ATOM     13  O   UNL     1       2.155   3.419  17.198  0.00  0.00    +0.000 OA
ENDBRANCH   6  13
ENDBRANCH   1  11
BRANCH   5  14
ATOM     14  C   UNL     1       3.350   8.137  17.830  0.00  0.00    +0.000 C 
ATOM     15  C   UNL     1       2.032   8.285  17.615  0.00  0.00    +0.000 C 
BRANCH  15  16
ATOM     16  C   UNL     1       1.400   9.597  17.848  0.00  0.00    +0.000 C 
ATOM     17  O   UNL     1       1.987  10.605  18.196  0.00  0.00    +0.000 OA
BRANCH  16  18
ATOM     18  O   UNL     1       0.073   9.565  17.610  0.00  0.00    +0.000 OA
ATOM     19  H   UNL     1      -0.391   8.765  17.916  0.00  0.00    +0.000 HD
ENDBRANCH  16  18
ENDBRANCH  15  16
ENDBRANCH   5  14
BRANCH   3  20
ATOM     20  C   UNL     1       6.827   5.107  16.056  0.00  0.00    +0.000 C 
BRANCH  20  21
ATOM     21  C   UNL     1       6.696   4.739  14.598  0.00  0.00    +0.000 A 
ATOM     22  C   UNL     1       7.636   5.200  13.660  0.00  0.00    +0.000 A 
ATOM     23  C   UNL     1       7.577   4.784  12.328  0.00  0.00    +0.000 A 
ATOM     24  C   UNL     1       6.583   3.903  11.915  0.00  0.00    +0.000 A 
ATOM     25  C   UNL     1       5.639   3.443  12.830  0.00  0.00    +0.000 A 
ATOM     26  C   UNL     1       5.695   3.857  14.164  0.00  0.00    +0.000 A 
ENDBRANCH  20  21
ENDBRANCH   3  20
TORSDOF 7
ENDMDL
MODEL 5
REMARK VINA RESULT:      -7.6      1.250      1.859
REMARK  Name = 
REMARK  8 active torsions:
REMARK  status: ('A' for Active; 'I' for Inactive)
REMARK    1  A    between atoms: C_1  and  O_2
REMARK    2  A    between atoms: O_2  and  C_3
REMARK    3  A    between atoms: C_8  and  C_9
REMARK    4  A    between atoms: N_11  and  C_12
REMARK    5  A    between atoms: C_12  and  C_13
REMARK    6  A    between atoms: C_20  and  C_21
REMARK    7  A    between atoms: C_22  and  C_23
REMARK    8  A    between atoms: C_23  and  O_25
REMARK                            x       y       z     vdW  Elec       q    Type
REMARK                         _______ _______ _______ _____ _____    ______ ____
ROOT
ATOM      1  C   UNL     1       3.794   5.214  18.343  0.00  0.00    +0.000 A 
ATOM      2  N   UNL     1       4.872   4.611  17.797  0.00  0.00    +0.000 NA
ATOM      3  N   UNL     1       5.475   5.561  17.062  0.00  0.00    +0.000 N 
ATOM      4  C   UNL     1       4.833   6.765  17.101  0.00  0.00    +0.000 A 
ATOM      5  C   UNL     1       3.740   6.585  17.918  0.00  0.00    +0.000 A 
ENDROOT
BRANCH   1  11
ATOM      6  C   UNL     1       2.045   3.400  18.756  0.00  0.00    +0.000 A 
ATOM      7  C   UNL     1       1.276   2.672  19.680  0.00  0.00    +0.000 A 
ATOM      8  C   UNL     1       1.271   3.011  21.034  0.00  0.00    +0.000 A 
ATOM      9  C   UNL     1       2.037   4.078  21.482  0.00  0.00    +0.000 A 
ATOM     10  C   UNL     1       2.842   4.777  20.582  0.00  0.00    +0.000 A 
ATOM     11  C   UNL     1       2.885   4.438  19.212  0.00  0.00    +0.000 A 
BRANCH   6  13
ATOM     12  C   UNL     1       2.759   2.015  16.948  0.00  0.00    +0.000 C 
ATOM     13  O   UNL     1       2.016   3.136  17.411  0.00  0.00    +0.000 OA
ENDBRANCH   6  13
ENDBRANCH   1  11
BRANCH   5  14
ATOM     14  C   UNL     1       2.779   7.590  18.240  0.00  0.00    +0.000 C 
ATOM     15  C   UNL     1       2.538   8.682  17.494  0.00  0.00    +0.000 C 
BRANCH  15  16
ATOM     16  C   UNL     1       1.629   9.725  18.004  0.00  0.00    +0.000 C 
ATOM     17  O   UNL     1       0.675   9.527  18.734  0.00  0.00    +0.000 OA
BRANCH  16  18
ATOM     18  O   UNL     1       1.988  10.954  17.582  0.00  0.00    +0.000 OA
ATOM     19  H   UNL     1       1.404  11.358  16.915  0.00  0.00    +0.000 HD
ENDBRANCH  16  18
ENDBRANCH  15  16
ENDBRANCH   5  14
BRANCH   3  20
ATOM     20  C   UNL     1       6.784   5.300  16.470  0.00  0.00    +0.000 C 
BRANCH  20  21
ATOM     21  C   UNL     1       6.726   4.803  15.046  0.00  0.00    +0.000 A 
ATOM     22  C   UNL     1       5.689   3.950  14.633  0.00  0.00    +0.000 A 
ATOM     23  C   UNL     1       5.573   3.565  13.295  0.00  0.00    +0.000 A 
ATOM     24  C   UNL     1       6.487   4.028  12.353  0.00  0.00    +0.000 A 
ATOM     25  C   UNL     1       7.526   4.868  12.748  0.00  0.00    +0.000 A 
ATOM     26  C   UNL     1       7.644   5.255  14.086  0.00  0.00    +0.000 A 
ENDBRANCH  20  21
ENDBRANCH   3  20
TORSDOF 7
ENDMDL
MODEL 6
REMARK VINA RESULT:      -7.5      1.428      1.957
REMARK  Name = 
REMARK  8 active torsions:
REMARK  status: ('A' for Active; 'I' for Inactive)
REMARK    1  A    between atoms: C_1  and  O_2
REMARK    2  A    between atoms: O_2  and  C_3
REMARK    3  A    between atoms: C_8  and  C_9
REMARK    4  A    between atoms: N_11  and  C_12
REMARK    5  A    between atoms: C_12  and  C_13
REMARK    6  A    between atoms: C_20  and  C_21
REMARK    7  A    between atoms: C_22  and  C_23
REMARK    8  A    between atoms: C_23  and  O_25
REMARK                            x       y       z     vdW  Elec       q    Type
REMARK                         _______ _______ _______ _____ _____    ______ ____
ROOT
ATOM      1  C   UNL     1       4.540   4.611  16.763  0.00  0.00    +0.000 A 
ATOM      2  N   UNL     1       5.253   3.942  15.831  0.00  0.00    +0.000 NA
ATOM      3  N   UNL     1       5.749   4.890  15.016  0.00  0.00    +0.000 N 
ATOM      4  C   UNL     1       5.387   6.157  15.377  0.00  0.00    +0.000 A 
ATOM      5  C   UNL     1       4.604   6.021  16.501  0.00  0.00    +0.000 A 
ENDROOT
BRANCH   1  11
ATOM      6  C   UNL     1       4.408   3.510  19.064  0.00  0.00    +0.000 A 
ATOM      7  C   UNL     1       3.624   2.860  20.032  0.00  0.00    +0.000 A 
ATOM      8  C   UNL     1       2.309   2.485  19.757  0.00  0.00    +0.000 A 
ATOM      9  C   UNL     1       1.759   2.757  18.512  0.00  0.00    +0.000 A 
ATOM     10  C   UNL     1       2.512   3.445  17.559  0.00  0.00    +0.000 A 
ATOM     11  C   UNL     1       3.835   3.858  17.822  0.00  0.00    +0.000 A 
BRANCH   6  13
ATOM     12  C   UNL     1       6.036   5.194  19.520  0.00  0.00    +0.000 C 
ATOM     13  O   UNL     1       5.725   3.827  19.280  0.00  0.00    +0.000 OA
ENDBRANCH   6  13
ENDBRANCH   1  11
BRANCH   5  14
ATOM     14  C   UNL     1       4.000   7.099  17.217  0.00  0.00    +0.000 C 
ATOM     15  C   UNL     1       2.802   7.035  17.823  0.00  0.00    +0.000 C 
BRANCH  15  16
ATOM     16  C   UNL     1       2.215   8.257  18.403  0.00  0.00    +0.000 C 
ATOM     17  O   UNL     1       1.801   8.361  19.544  0.00  0.00    +0.000 OA
BRANCH  16  18
ATOM     18  O   UNL     1       2.203   9.277  17.522  0.00  0.00    +0.000 OA
ATOM     19  H   UNL     1       1.892  10.132  17.871  0.00  0.00    +0.000 HD
ENDBRANCH  16  18
ENDBRANCH  15  16
ENDBRANCH   5  14
BRANCH   3  20
ATOM     20  C   UNL     1       6.725   4.531  13.991  0.00  0.00    +0.000 C 
BRANCH  20  21
ATOM     21  C   UNL     1       6.148   3.729  12.850  0.00  0.00    +0.000 A 
ATOM     22  C   UNL     1       6.913   2.730  12.225  0.00  0.00    +0.000 A 
ATOM     23  C   UNL     1       6.354   1.918  11.236  0.00  0.00    +0.000 A 
ATOM     24  C   UNL     1       5.026   2.091  10.858  0.00  0.00    +0.000 A 
ATOM     25  C   UNL     1       4.256   3.083  11.463  0.00  0.00    +0.000 A 
ATOM     26  C   UNL     1       4.812   3.896  12.454  0.00  0.00    +0.000 A 
ENDBRANCH  20  21
ENDBRANCH   3  20
TORSDOF 7
ENDMDL
MODEL 7
REMARK VINA RESULT:      -7.5      2.923      7.272
REMARK  Name = 
REMARK  8 active torsions:
REMARK  status: ('A' for Active; 'I' for Inactive)
REMARK    1  A    between atoms: C_1  and  O_2
REMARK    2  A    between atoms: O_2  and  C_3
REMARK    3  A    between atoms: C_8  and  C_9
REMARK    4  A    between atoms: N_11  and  C_12
REMARK    5  A    between atoms: C_12  and  C_13
REMARK    6  A    between atoms: C_20  and  C_21
REMARK    7  A    between atoms: C_22  and  C_23
REMARK    8  A    between atoms: C_23  and  O_25
REMARK                            x       y       z     vdW  Elec       q    Type
REMARK                         _______ _______ _______ _____ _____    ______ ____
ROOT
ATOM      1  C   UNL     1       3.495   6.788  18.061  0.00  0.00    +0.000 A 
ATOM      2  N   UNL     1       3.216   7.995  17.525  0.00  0.00    +0.000 NA
ATOM      3  N   UNL     1       2.312   8.550  18.351  0.00  0.00    +0.000 N 
ATOM      4  C   UNL     1       1.984   7.751  19.409  0.00  0.00    +0.000 A 
ATOM      5  C   UNL     1       2.727   6.601  19.259  0.00  0.00    +0.000 A 
ENDROOT
BRANCH   1  11
ATOM      6  C   UNL     1       5.811   6.214  17.148  0.00  0.00    +0.000 A 
ATOM      7  C   UNL     1       6.660   5.259  16.565  0.00  0.00    +0.000 A 
ATOM      8  C   UNL     1       6.167   4.023  16.143  0.00  0.00    +0.000 A 
ATOM      9  C   UNL     1       4.821   3.725  16.302  0.00  0.00    +0.000 A 
ATOM     10  C   UNL     1       3.978   4.646  16.924  0.00  0.00    +0.000 A 
ATOM     11  C   UNL     1       4.457   5.892  17.383  0.00  0.00    +0.000 A 
BRANCH   6  13
ATOM     12  C   UNL     1       7.656   7.666  17.574  0.00  0.00    +0.000 C 
ATOM     13  O   UNL     1       6.250   7.462  17.508  0.00  0.00    +0.000 OA
ENDBRANCH   6  13
ENDBRANCH   1  11
BRANCH   5  14
ATOM     14  C   UNL     1       2.695   5.481  20.144  0.00  0.00    +0.000 C 
ATOM     15  C   UNL     1       1.695   4.586  20.206  0.00  0.00    +0.000 C 
BRANCH  15  16
ATOM     16  C   UNL     1       1.704   3.557  21.263  0.00  0.00    +0.000 C 
ATOM     17  O   UNL     1       2.534   3.472  22.151  0.00  0.00    +0.000 OA
BRANCH  16  18
ATOM     18  O   UNL     1       0.660   2.711  21.151  0.00  0.00    +0.000 OA
ATOM     19  H   UNL     1       0.683   1.933  21.736  0.00  0.00    +0.000 HD
ENDBRANCH  16  18
ENDBRANCH  15  16
ENDBRANCH   5  14
BRANCH   3  20
ATOM     20  C   UNL     1       1.919   9.944  18.170  0.00  0.00    +0.000 C 
BRANCH  20  21
ATOM     21  C   UNL     1       0.451  10.204  18.408  0.00  0.00    +0.000 A 
ATOM     22  C   UNL     1       0.038  11.034  19.464  0.00  0.00    +0.000 A 
ATOM     23  C   UNL     1      -1.311  11.357  19.630  0.00  0.00    +0.000 A 
ATOM     24  C   UNL     1      -2.263  10.859  18.746  0.00  0.00    +0.000 A 
ATOM     25  C   UNL     1      -1.870  10.028  17.698  0.00  0.00    +0.000 A 
ATOM     26  C   UNL     1      -0.521   9.703  17.529  0.00  0.00    +0.000 A 
ENDBRANCH  20  21
ENDBRANCH   3  20
TORSDOF 7
ENDMDL
MODEL 8
REMARK VINA RESULT:      -7.5      0.321      1.189
REMARK  Name = 
REMARK  8 active torsions:
REMARK  status: ('A' for Active; 'I' for Inactive)
REMARK    1  A    between atoms: C_1  and  O_2
REMARK    2  A    between atoms: O_2  and  C_3
REMARK    3  A    between atoms: C_8  and  C_9
REMARK    4  A    between atoms: N_11  and  C_12
REMARK    5  A    between atoms: C_12  and  C_13
REMARK    6  A    between atoms: C_20  and  C_21
REMARK    7  A    between atoms: C_22  and  C_23
REMARK    8  A    between atoms: C_23  and  O_25
REMARK                            x       y       z     vdW  Elec       q    Type
REMARK                         _______ _______ _______ _____ _____    ______ ____
ROOT
ATOM      1  C   UNL     1       4.071   4.885  17.721  0.00  0.00    +0.000 A 
ATOM      2  N   UNL     1       5.085   4.350  17.008  0.00  0.00    +0.000 NA
ATOM      3  N   UNL     1       5.806   5.399  16.574  0.00  0.00    +0.000 N 
ATOM      4  C   UNL     1       5.302   6.604  16.974  0.00  0.00    +0.000 A 
ATOM      5  C   UNL     1       4.179   6.317  17.717  0.00  0.00    +0.000 A 
ENDROOT
BRANCH   1  11
ATOM      6  C   UNL     1       3.341   3.077  19.371  0.00  0.00    +0.000 A 
ATOM      7  C   UNL     1       2.293   2.334  19.941  0.00  0.00    +0.000 A 
ATOM      8  C   UNL     1       0.992   2.436  19.448  0.00  0.00    +0.000 A 
ATOM      9  C   UNL     1       0.720   3.283  18.383  0.00  0.00    +0.000 A 
ATOM     10  C   UNL     1       1.743   4.062  17.841  0.00  0.00    +0.000 A 
ATOM     11  C   UNL     1       3.063   3.996  18.338  0.00  0.00    +0.000 A 
BRANCH   6  13
ATOM     12  C   UNL     1       4.954   1.831  20.613  0.00  0.00    +0.000 C 
ATOM     13  O   UNL     1       4.641   2.945  19.786  0.00  0.00    +0.000 OA
ENDBRANCH   6  13
ENDBRANCH   1  11
BRANCH   5  14
ATOM     14  C   UNL     1       3.330   7.286  18.332  0.00  0.00    +0.000 C 
ATOM     15  C   UNL     1       2.398   8.004  17.683  0.00  0.00    +0.000 C 
BRANCH  15  16
ATOM     16  C   UNL     1       1.685   9.083  18.394  0.00  0.00    +0.000 C 
ATOM     17  O   UNL     1       1.355  10.147  17.902  0.00  0.00    +0.000 OA
BRANCH  16  18
ATOM     18  O   UNL     1       1.414   8.749  19.672  0.00  0.00    +0.000 OA
ATOM     19  H   UNL     1       1.825   9.314  20.351  0.00  0.00    +0.000 HD
ENDBRANCH  16  18
ENDBRANCH  15  16
ENDBRANCH   5  14
BRANCH   3  20
ATOM     20  C   UNL     1       7.089   5.177  15.915  0.00  0.00    +0.000 C 
BRANCH  20  21
ATOM     21  C   UNL     1       6.970   4.717  14.482  0.00  0.00    +0.000 A 
ATOM     22  C   UNL     1       5.990   3.780  14.114  0.00  0.00    +0.000 A 
ATOM     23  C   UNL     1       5.810   3.424  12.775  0.00  0.00    +0.000 A 
ATOM     24  C   UNL     1       6.604   3.999  11.787  0.00  0.00    +0.000 A 
ATOM     25  C   UNL     1       7.585   4.924  12.136  0.00  0.00    +0.000 A 
ATOM     26  C   UNL     1       7.767   5.282  13.475  0.00  0.00    +0.000 A 
ENDBRANCH  20  21
ENDBRANCH   3  20
TORSDOF 7
ENDMDL
MODEL 9
REMARK VINA RESULT:      -7.5      3.324      6.814
REMARK  Name = 
REMARK  8 active torsions:
REMARK  status: ('A' for Active; 'I' for Inactive)
REMARK    1  A    between atoms: C_1  and  O_2
REMARK    2  A    between atoms: O_2  and  C_3
REMARK    3  A    between atoms: C_8  and  C_9
REMARK    4  A    between atoms: N_11  and  C_12
REMARK    5  A    between atoms: C_12  and  C_13
REMARK    6  A    between atoms: C_20  and  C_21
REMARK    7  A    between atoms: C_22  and  C_23
REMARK    8  A    between atoms: C_23  and  O_25
REMARK                            x       y       z     vdW  Elec       q    Type
REMARK                         _______ _______ _______ _____ _____    ______ ____
ROOT
ATOM      1  C   UNL     1       2.690   5.969  18.769  0.00  0.00    +0.000 A 
ATOM      2  N   UNL     1       1.897   7.062  18.805  0.00  0.00    +0.000 NA
ATOM      3  N   UNL     1       2.529   7.982  18.055  0.00  0.00    +0.000 N 
ATOM      4  C   UNL     1       3.708   7.537  17.530  0.00  0.00    +0.000 A 
ATOM      5  C   UNL     1       3.851   6.239  17.968  0.00  0.00    +0.000 A 
ENDROOT
BRANCH   1  11
ATOM      6  C   UNL     1       1.852   3.560  18.910  0.00  0.00    +0.000 A 
ATOM      7  C   UNL     1       1.575   2.438  19.708  0.00  0.00    +0.000 A 
ATOM      8  C   UNL     1       1.657   2.510  21.100  0.00  0.00    +0.000 A 
ATOM      9  C   UNL     1       2.021   3.703  21.710  0.00  0.00    +0.000 A 
ATOM     10  C   UNL     1       2.345   4.810  20.925  0.00  0.00    +0.000 A 
ATOM     11  C   UNL     1       2.295   4.755  19.515  0.00  0.00    +0.000 A 
BRANCH   6  13
ATOM     12  C   UNL     1       2.662   2.787  16.802  0.00  0.00    +0.000 C 
ATOM     13  O   UNL     1       1.712   3.540  17.546  0.00  0.00    +0.000 OA
ENDBRANCH   6  13
ENDBRANCH   1  11
BRANCH   5  14
ATOM     14  C   UNL     1       4.952   5.384  17.660  0.00  0.00    +0.000 C 
ATOM     15  C   UNL     1       6.244   5.739  17.760  0.00  0.00    +0.000 C 
BRANCH  15  16
ATOM     16  C   UNL     1       7.290   4.821  17.272  0.00  0.00    +0.000 C 
ATOM     17  O   UNL     1       7.549   4.614  16.100  0.00  0.00    +0.000 OA
BRANCH  16  18
ATOM     18  O   UNL     1       7.958   4.235  18.285  0.00  0.00    +0.000 OA
ATOM     19  H   UNL     1       8.859   3.928  18.075  0.00  0.00    +0.000 HD
ENDBRANCH  16  18
ENDBRANCH  15  16
ENDBRANCH   5  14
BRANCH   3  20
ATOM     20  C   UNL     1       1.859   9.238  17.728  0.00  0.00    +0.000 C 
BRANCH  20  21
ATOM     21  C   UNL     1       0.997   9.781  18.842  0.00  0.00    +0.000 A 
ATOM     22  C   UNL     1      -0.241  10.382  18.554  0.00  0.00    +0.000 A 
ATOM     23  C   UNL     1      -1.087  10.798  19.585  0.00  0.00    +0.000 A 
ATOM     24  C   UNL     1      -0.711  10.620  20.913  0.00  0.00    +0.000 A 
ATOM     25  C   UNL     1       0.516  10.032  21.214  0.00  0.00    +0.000 A 
ATOM     26  C   UNL     1       1.364   9.614  20.185  0.00  0.00    +0.000 A 
ENDBRANCH  20  21
ENDBRANCH   3  20
TORSDOF 7
ENDMDL
