MODEL 1
REMARK VINA RESULT:      -7.1      0.000      0.000
REMARK  Name = 
REMARK  4 active torsions:
REMARK  status: ('A' for Active; 'I' for Inactive)
REMARK    1  A    between atoms: C_1  and  O_2
REMARK    2  A    between atoms: O_2  and  C_3
REMARK    3  A    between atoms: C_14  and  O_15
REMARK    4  A    between atoms: C_21  and  O_22
REMARK                            x       y       z     vdW  Elec       q    Type
REMARK                         _______ _______ _______ _____ _____    ______ ____
ROOT
ATOM      1  C   UNL     1      11.130  13.846  19.165  0.00  0.00    +0.000 A 
ATOM      2  C   UNL     1      12.051  12.925  18.643  0.00  0.00    +0.000 A 
ATOM      3  C   UNL     1      11.670  11.588  18.601  0.00  0.00    +0.000 A 
ATOM      4  C   UNL     1      10.424  11.241  19.130  0.00  0.00    +0.000 A 
ATOM      5  C   UNL     1       9.542  12.246  19.578  0.00  0.00    +0.000 A 
ATOM      6  C   UNL     1       9.742  13.528  19.088  0.00  0.00    +0.000 A 
ATOM      7  C   UNL     1       8.621  14.331  18.299  0.00  0.00    +0.000 A 
ATOM      8  C   UNL     1       8.555  15.705  18.247  0.00  0.00    +0.000 A 
ATOM      9  C   UNL     1       7.335  16.436  18.314  0.00  0.00    +0.000 A 
ATOM     10  C   UNL     1       6.121  15.765  18.162  0.00  0.00    +0.000 A 
ATOM     11  C   UNL     1       6.208  14.477  17.649  0.00  0.00    +0.000 A 
ATOM     12  C   UNL     1       7.468  13.792  17.673  0.00  0.00    +0.000 A 
ATOM     13  C   UNL     1       4.763  16.374  18.503  0.00  0.00    +0.000 C 
ATOM     14  C   UNL     1       4.021  15.409  19.466  0.00  0.00    +0.000 C 
ATOM     15  C   UNL     1       3.764  15.805  20.905  0.00  0.00    +0.000 A 
ATOM     16  C   UNL     1       3.142  16.989  21.336  0.00  0.00    +0.000 A 
ATOM     17  C   UNL     1       3.003  17.256  22.701  0.00  0.00    +0.000 A 
ATOM     18  C   UNL     1       3.550  16.358  23.657  0.00  0.00    +0.000 A 
ATOM     19  C   UNL     1       4.162  15.222  23.229  0.00  0.00    +0.000 A 
ATOM     20  C   UNL     1       4.177  14.888  21.875  0.00  0.00    +0.000 A 
ATOM     21  O   UNL     1       4.850  14.460  24.158  0.00  0.00    +0.000 OA
ATOM     22  C   UNL     1       6.197  14.262  23.914  0.00  0.00    +0.000 A 
ATOM     23  C   UNL     1       6.939  14.965  22.958  0.00  0.00    +0.000 A 
ATOM     24  C   UNL     1       8.173  14.489  22.564  0.00  0.00    +0.000 A 
ATOM     25  C   UNL     1       8.646  13.294  23.111  0.00  0.00    +0.000 A 
ATOM     26  C   UNL     1       8.048  12.761  24.256  0.00  0.00    +0.000 A 
ATOM     27  C   UNL     1       6.803  13.242  24.646  0.00  0.00    +0.000 A 
ATOM     28  C   UNL     1       9.607  12.506  22.256  0.00  0.00    +0.000 C 
ATOM     29  C   UNL     1       8.867  12.015  20.948  0.00  0.00    +0.000 C 
ENDROOT
BRANCH   1  31
ATOM     30  C   UNL     1      11.216  15.755  20.809  0.00  0.00    +0.000 C 
ATOM     31  O   UNL     1      11.567  14.379  20.438  0.00  0.00    +0.000 OA
ENDBRANCH   1  31
BRANCH  12  32
ATOM     32  O   UNL     1       7.518  12.774  16.706  0.00  0.00    +0.000 OA
ATOM     33  H   UNL     1       7.054  13.084  15.901  0.00  0.00    +0.000 HD
ENDBRANCH  12  32
BRANCH  18  34
ATOM     34  O   UNL     1       3.492  16.637  24.978  0.00  0.00    +0.000 OA
ATOM     35  H   UNL     1       3.942  17.466  25.190  0.00  0.00    +0.000 HD
ENDBRANCH  18  34
TORSDOF 3
ENDMDL
MODEL 2
REMARK VINA RESULT:      -6.9      8.087     11.290
REMARK  Name = 
REMARK  4 active torsions:
REMARK  status: ('A' for Active; 'I' for Inactive)
REMARK    1  A    between atoms: C_1  and  O_2
REMARK    2  A    between atoms: O_2  and  C_3
REMARK    3  A    between atoms: C_14  and  O_15
REMARK    4  A    between atoms: C_21  and  O_22
REMARK                            x       y       z     vdW  Elec       q    Type
REMARK                         _______ _______ _______ _____ _____    ______ ____
ROOT
ATOM      1  C   UNL     1       1.411  13.331  21.119  0.00  0.00    +0.000 A 
ATOM      2  C   UNL     1       2.574  14.073  20.861  0.00  0.00    +0.000 A 
ATOM      3  C   UNL     1       2.481  15.120  19.951  0.00  0.00    +0.000 A 
ATOM      4  C   UNL     1       1.257  15.331  19.312  0.00  0.00    +0.000 A 
ATOM      5  C   UNL     1       0.127  14.572  19.682  0.00  0.00    +0.000 A 
ATOM      6  C   UNL     1       0.150  13.970  20.932  0.00  0.00    +0.000 A 
ATOM      7  C   UNL     1      -0.952  14.251  22.041  0.00  0.00    +0.000 A 
ATOM      8  C   UNL     1      -1.280  13.361  23.038  0.00  0.00    +0.000 A 
ATOM      9  C   UNL     1      -2.614  13.138  23.483  0.00  0.00    +0.000 A 
ATOM     10  C   UNL     1      -3.624  14.023  23.105  0.00  0.00    +0.000 A 
ATOM     11  C   UNL     1      -3.194  15.231  22.572  0.00  0.00    +0.000 A 
ATOM     12  C   UNL     1      -1.847  15.351  22.094  0.00  0.00    +0.000 A 
ATOM     13  C   UNL     1      -5.115  13.735  23.268  0.00  0.00    +0.000 C 
ATOM     14  C   UNL     1      -5.807  13.942  21.894  0.00  0.00    +0.000 C 
ATOM     15  C   UNL     1      -6.387  12.763  21.139  0.00  0.00    +0.000 A 
ATOM     16  C   UNL     1      -7.298  11.825  21.650  0.00  0.00    +0.000 A 
ATOM     17  C   UNL     1      -7.724  10.754  20.859  0.00  0.00    +0.000 A 
ATOM     18  C   UNL     1      -7.185  10.578  19.556  0.00  0.00    +0.000 A 
ATOM     19  C   UNL     1      -6.294  11.484  19.076  0.00  0.00    +0.000 A 
ATOM     20  C   UNL     1      -5.976  12.627  19.810  0.00  0.00    +0.000 A 
ATOM     21  O   UNL     1      -5.641  11.196  17.890  0.00  0.00    +0.000 OA
ATOM     22  C   UNL     1      -4.261  11.139  17.945  0.00  0.00    +0.000 A 
ATOM     23  C   UNL     1      -3.518  11.108  19.131  0.00  0.00    +0.000 A 
ATOM     24  C   UNL     1      -2.164  11.373  19.097  0.00  0.00    +0.000 A 
ATOM     25  C   UNL     1      -1.566  11.698  17.877  0.00  0.00    +0.000 A 
ATOM     26  C   UNL     1      -2.237  11.447  16.678  0.00  0.00    +0.000 A 
ATOM     27  C   UNL     1      -3.602  11.182  16.717  0.00  0.00    +0.000 A 
ATOM     28  C   UNL     1      -0.332  12.562  17.951  0.00  0.00    +0.000 C 
ATOM     29  C   UNL     1      -0.718  13.982  18.532  0.00  0.00    +0.000 C 
ENDROOT
BRANCH   1  31
ATOM     30  C   UNL     1       0.708  10.912  21.193  0.00  0.00    +0.000 C 
ATOM     31  O   UNL     1       1.503  11.988  20.589  0.00  0.00    +0.000 OA
ENDBRANCH   1  31
BRANCH  12  32
ATOM     32  O   UNL     1      -1.425  16.691  22.074  0.00  0.00    +0.000 OA
ATOM     33  H   UNL     1      -0.735  16.793  21.387  0.00  0.00    +0.000 HD
ENDBRANCH  12  32
BRANCH  18  34
ATOM     34  O   UNL     1      -7.529   9.507  18.806  0.00  0.00    +0.000 OA
ATOM     35  H   UNL     1      -8.098   9.754  18.065  0.00  0.00    +0.000 HD
ENDBRANCH  18  34
TORSDOF 3
ENDMDL
MODEL 3
REMARK VINA RESULT:      -6.7      8.926     13.328
REMARK  Name = 
REMARK  4 active torsions:
REMARK  status: ('A' for Active; 'I' for Inactive)
REMARK    1  A    between atoms: C_1  and  O_2
REMARK    2  A    between atoms: O_2  and  C_3
REMARK    3  A    between atoms: C_14  and  O_15
REMARK    4  A    between atoms: C_21  and  O_22
REMARK                            x       y       z     vdW  Elec       q    Type
REMARK                         _______ _______ _______ _____ _____    ______ ____
ROOT
ATOM      1  C   UNL     1      -7.121  14.167  22.871  0.00  0.00    +0.000 A 
ATOM      2  C   UNL     1      -7.917  15.225  23.336  0.00  0.00    +0.000 A 
ATOM      3  C   UNL     1      -7.644  16.498  22.848  0.00  0.00    +0.000 A 
ATOM      4  C   UNL     1      -6.567  16.651  21.971  0.00  0.00    +0.000 A 
ATOM      5  C   UNL     1      -5.863  15.518  21.512  0.00  0.00    +0.000 A 
ATOM      6  C   UNL     1      -6.514  14.295  21.587  0.00  0.00    +0.000 A 
ATOM      7  C   UNL     1      -6.769  13.379  20.314  0.00  0.00    +0.000 A 
ATOM      8  C   UNL     1      -6.920  12.012  20.372  0.00  0.00    +0.000 A 
ATOM      9  C   UNL     1      -6.367  11.120  19.409  0.00  0.00    +0.000 A 
ATOM     10  C   UNL     1      -5.872  11.625  18.206  0.00  0.00    +0.000 A 
ATOM     11  C   UNL     1      -6.237  12.932  17.909  0.00  0.00    +0.000 A 
ATOM     12  C   UNL     1      -6.732  13.781  18.954  0.00  0.00    +0.000 A 
ATOM     13  C   UNL     1      -5.003  10.823  17.240  0.00  0.00    +0.000 C 
ATOM     14  C   UNL     1      -3.715  11.639  16.947  0.00  0.00    +0.000 C 
ATOM     15  C   UNL     1      -2.368  11.155  17.442  0.00  0.00    +0.000 A 
ATOM     16  C   UNL     1      -1.818   9.882  17.221  0.00  0.00    +0.000 A 
ATOM     17  C   UNL     1      -0.578   9.545  17.772  0.00  0.00    +0.000 A 
ATOM     18  C   UNL     1       0.099  10.471  18.611  0.00  0.00    +0.000 A 
ATOM     19  C   UNL     1      -0.449  11.695  18.829  0.00  0.00    +0.000 A 
ATOM     20  C   UNL     1      -1.615  12.081  18.168  0.00  0.00    +0.000 A 
ATOM     21  O   UNL     1       0.125  12.507  19.793  0.00  0.00    +0.000 OA
ATOM     22  C   UNL     1      -0.694  12.896  20.837  0.00  0.00    +0.000 A 
ATOM     23  C   UNL     1      -1.950  12.339  21.107  0.00  0.00    +0.000 A 
ATOM     24  C   UNL     1      -2.821  12.994  21.953  0.00  0.00    +0.000 A 
ATOM     25  C   UNL     1      -2.441  14.219  22.503  0.00  0.00    +0.000 A 
ATOM     26  C   UNL     1      -1.103  14.621  22.467  0.00  0.00    +0.000 A 
ATOM     27  C   UNL     1      -0.230  13.959  21.610  0.00  0.00    +0.000 A 
ATOM     28  C   UNL     1      -3.561  15.164  22.861  0.00  0.00    +0.000 C 
ATOM     29  C   UNL     1      -4.321  15.601  21.545  0.00  0.00    +0.000 C 
ENDROOT
BRANCH   1  31
ATOM     30  C   UNL     1      -6.419  12.263  24.367  0.00  0.00    +0.000 C 
ATOM     31  O   UNL     1      -6.256  13.648  23.908  0.00  0.00    +0.000 OA
ENDBRANCH   1  31
BRANCH  12  32
ATOM     32  O   UNL     1      -7.506  14.833  18.438  0.00  0.00    +0.000 OA
ATOM     33  H   UNL     1      -7.692  15.469  19.159  0.00  0.00    +0.000 HD
ENDBRANCH  12  32
BRANCH  18  34
ATOM     34  O   UNL     1       1.261  10.134  19.213  0.00  0.00    +0.000 OA
ATOM     35  H   UNL     1       2.006  10.643  18.866  0.00  0.00    +0.000 HD
ENDBRANCH  18  34
TORSDOF 3
ENDMDL
MODEL 4
REMARK VINA RESULT:      -6.7      2.487      7.157
REMARK  Name = 
REMARK  4 active torsions:
REMARK  status: ('A' for Active; 'I' for Inactive)
REMARK    1  A    between atoms: C_1  and  O_2
REMARK    2  A    between atoms: O_2  and  C_3
REMARK    3  A    between atoms: C_14  and  O_15
REMARK    4  A    between atoms: C_21  and  O_22
REMARK                            x       y       z     vdW  Elec       q    Type
REMARK                         _______ _______ _______ _____ _____    ______ ____
ROOT
ATOM      1  C   UNL     1       6.003  14.076  24.581  0.00  0.00    +0.000 A 
ATOM      2  C   UNL     1       5.693  13.562  25.849  0.00  0.00    +0.000 A 
ATOM      3  C   UNL     1       6.723  12.974  26.575  0.00  0.00    +0.000 A 
ATOM      4  C   UNL     1       7.982  12.882  25.976  0.00  0.00    +0.000 A 
ATOM      5  C   UNL     1       8.213  13.482  24.721  0.00  0.00    +0.000 A 
ATOM      6  C   UNL     1       7.344  14.492  24.333  0.00  0.00    +0.000 A 
ATOM      7  C   UNL     1       7.838  15.959  23.976  0.00  0.00    +0.000 A 
ATOM      8  C   UNL     1       7.163  16.811  23.131  0.00  0.00    +0.000 A 
ATOM      9  C   UNL     1       7.811  17.660  22.189  0.00  0.00    +0.000 A 
ATOM     10  C   UNL     1       9.190  17.859  22.276  0.00  0.00    +0.000 A 
ATOM     11  C   UNL     1       9.780  17.455  23.467  0.00  0.00    +0.000 A 
ATOM     12  C   UNL     1       9.078  16.551  24.331  0.00  0.00    +0.000 A 
ATOM     13  C   UNL     1      10.029  18.496  21.171  0.00  0.00    +0.000 C 
ATOM     14  C   UNL     1      11.206  17.539  20.837  0.00  0.00    +0.000 C 
ATOM     15  C   UNL     1      11.267  16.832  19.499  0.00  0.00    +0.000 A 
ATOM     16  C   UNL     1      11.182  17.445  18.238  0.00  0.00    +0.000 A 
ATOM     17  C   UNL     1      11.209  16.671  17.075  0.00  0.00    +0.000 A 
ATOM     18  C   UNL     1      11.258  15.253  17.169  0.00  0.00    +0.000 A 
ATOM     19  C   UNL     1      11.326  14.670  18.394  0.00  0.00    +0.000 A 
ATOM     20  C   UNL     1      11.440  15.447  19.547  0.00  0.00    +0.000 A 
ATOM     21  O   UNL     1      11.182  13.295  18.473  0.00  0.00    +0.000 OA
ATOM     22  C   UNL     1      10.138  12.830  19.251  0.00  0.00    +0.000 A 
ATOM     23  C   UNL     1       9.101  13.630  19.743  0.00  0.00    +0.000 A 
ATOM     24  C   UNL     1       8.294  13.157  20.757  0.00  0.00    +0.000 A 
ATOM     25  C   UNL     1       8.548  11.893  21.294  0.00  0.00    +0.000 A 
ATOM     26  C   UNL     1       9.380  10.998  20.617  0.00  0.00    +0.000 A 
ATOM     27  C   UNL     1      10.193  11.480  19.597  0.00  0.00    +0.000 A 
ATOM     28  C   UNL     1       8.120  11.679  22.724  0.00  0.00    +0.000 C 
ATOM     29  C   UNL     1       8.958  12.629  23.671  0.00  0.00    +0.000 C 
ENDROOT
BRANCH   1  31
ATOM     30  C   UNL     1       4.941  13.962  22.297  0.00  0.00    +0.000 C 
ATOM     31  O   UNL     1       5.398  13.295  23.523  0.00  0.00    +0.000 OA
ENDBRANCH   1  31
BRANCH  12  32
ATOM     32  O   UNL     1       9.538  16.643  25.654  0.00  0.00    +0.000 OA
ATOM     33  H   UNL     1       9.397  15.781  26.097  0.00  0.00    +0.000 HD
ENDBRANCH  12  32
BRANCH  18  34
ATOM     34  O   UNL     1      11.208  14.486  16.057  0.00  0.00    +0.000 OA
ATOM     35  H   UNL     1      10.614  14.857  15.391  0.00  0.00    +0.000 HD
ENDBRANCH  18  34
TORSDOF 3
ENDMDL
MODEL 5
REMARK VINA RESULT:      -6.4      5.417     10.076
REMARK  Name = 
REMARK  4 active torsions:
REMARK  status: ('A' for Active; 'I' for Inactive)
REMARK    1  A    between atoms: C_1  and  O_2
REMARK    2  A    between atoms: O_2  and  C_3
REMARK    3  A    between atoms: C_14  and  O_15
REMARK    4  A    between atoms: C_21  and  O_22
REMARK                            x       y       z     vdW  Elec       q    Type
REMARK                         _______ _______ _______ _____ _____    ______ ____
ROOT
ATOM      1  C   UNL     1      -2.845  13.075  23.131  0.00  0.00    +0.000 A 
ATOM      2  C   UNL     1      -4.216  12.905  23.375  0.00  0.00    +0.000 A 
ATOM      3  C   UNL     1      -5.105  13.435  22.447  0.00  0.00    +0.000 A 
ATOM      4  C   UNL     1      -4.582  14.146  21.364  0.00  0.00    +0.000 A 
ATOM      5  C   UNL     1      -3.187  14.212  21.170  0.00  0.00    +0.000 A 
ATOM      6  C   UNL     1      -2.416  13.232  21.780  0.00  0.00    +0.000 A 
ATOM      7  C   UNL     1      -1.451  12.268  20.965  0.00  0.00    +0.000 A 
ATOM      8  C   UNL     1      -0.333  11.671  21.503  0.00  0.00    +0.000 A 
ATOM      9  C   UNL     1       0.895  11.524  20.797  0.00  0.00    +0.000 A 
ATOM     10  C   UNL     1       0.928  11.743  19.420  0.00  0.00    +0.000 A 
ATOM     11  C   UNL     1      -0.309  11.789  18.790  0.00  0.00    +0.000 A 
ATOM     12  C   UNL     1      -1.492  11.999  19.573  0.00  0.00    +0.000 A 
ATOM     13  C   UNL     1       2.215  11.904  18.614  0.00  0.00    +0.000 C 
ATOM     14  C   UNL     1       2.124  13.226  17.805  0.00  0.00    +0.000 C 
ATOM     15  C   UNL     1       3.025  14.397  18.138  0.00  0.00    +0.000 A 
ATOM     16  C   UNL     1       4.426  14.356  18.242  0.00  0.00    +0.000 A 
ATOM     17  C   UNL     1       5.140  15.502  18.600  0.00  0.00    +0.000 A 
ATOM     18  C   UNL     1       4.443  16.698  18.924  0.00  0.00    +0.000 A 
ATOM     19  C   UNL     1       3.087  16.723  18.834  0.00  0.00    +0.000 A 
ATOM     20  C   UNL     1       2.386  15.622  18.342  0.00  0.00    +0.000 A 
ATOM     21  O   UNL     1       2.419  17.829  19.332  0.00  0.00    +0.000 OA
ATOM     22  C   UNL     1       1.497  17.590  20.334  0.00  0.00    +0.000 A 
ATOM     23  C   UNL     1       1.381  16.381  21.030  0.00  0.00    +0.000 A 
ATOM     24  C   UNL     1       0.247  16.126  21.774  0.00  0.00    +0.000 A 
ATOM     25  C   UNL     1      -0.779  17.074  21.795  0.00  0.00    +0.000 A 
ATOM     26  C   UNL     1      -0.541  18.376  21.348  0.00  0.00    +0.000 A 
ATOM     27  C   UNL     1       0.602  18.627  20.597  0.00  0.00    +0.000 A 
ATOM     28  C   UNL     1      -2.169  16.544  22.046  0.00  0.00    +0.000 C 
ATOM     29  C   UNL     1      -2.596  15.602  20.849  0.00  0.00    +0.000 C 
ENDROOT
BRANCH   1  31
ATOM     30  C   UNL     1      -3.051  14.556  25.160  0.00  0.00    +0.000 C 
ATOM     31  O   UNL     1      -2.240  13.988  24.076  0.00  0.00    +0.000 OA
ENDBRANCH   1  31
BRANCH  12  32
ATOM     32  O   UNL     1      -2.637  11.524  18.912  0.00  0.00    +0.000 OA
ATOM     33  H   UNL     1      -2.507  10.576  18.702  0.00  0.00    +0.000 HD
ENDBRANCH  12  32
BRANCH  18  34
ATOM     34  O   UNL     1       5.112  17.794  19.346  0.00  0.00    +0.000 OA
ATOM     35  H   UNL     1       6.067  17.643  19.375  0.00  0.00    +0.000 HD
ENDBRANCH  18  34
TORSDOF 3
ENDMDL
MODEL 6
REMARK VINA RESULT:      -6.3      8.250     12.740
REMARK  Name = 
REMARK  4 active torsions:
REMARK  status: ('A' for Active; 'I' for Inactive)
REMARK    1  A    between atoms: C_1  and  O_2
REMARK    2  A    between atoms: O_2  and  C_3
REMARK    3  A    between atoms: C_14  and  O_15
REMARK    4  A    between atoms: C_21  and  O_22
REMARK                            x       y       z     vdW  Elec       q    Type
REMARK                         _______ _______ _______ _____ _____    ______ ____
ROOT
ATOM      1  C   UNL     1      -5.860  14.734  23.578  0.00  0.00    +0.000 A 
ATOM      2  C   UNL     1      -6.458  15.876  24.134  0.00  0.00    +0.000 A 
ATOM      3  C   UNL     1      -6.168  17.103  23.548  0.00  0.00    +0.000 A 
ATOM      4  C   UNL     1      -5.263  17.129  22.484  0.00  0.00    +0.000 A 
ATOM      5  C   UNL     1      -4.760  15.922  21.955  0.00  0.00    +0.000 A 
ATOM      6  C   UNL     1      -5.493  14.769  22.201  0.00  0.00    +0.000 A 
ATOM      7  C   UNL     1      -6.060  13.848  21.037  0.00  0.00    +0.000 A 
ATOM      8  C   UNL     1      -6.319  12.504  21.182  0.00  0.00    +0.000 A 
ATOM      9  C   UNL     1      -6.036  11.537  20.176  0.00  0.00    +0.000 A 
ATOM     10  C   UNL     1      -5.730  11.959  18.881  0.00  0.00    +0.000 A 
ATOM     11  C   UNL     1      -6.025  13.286  18.598  0.00  0.00    +0.000 A 
ATOM     12  C   UNL     1      -6.240  14.207  19.677  0.00  0.00    +0.000 A 
ATOM     13  C   UNL     1      -5.130  11.052  17.809  0.00  0.00    +0.000 C 
ATOM     14  C   UNL     1      -3.852  11.733  17.251  0.00  0.00    +0.000 C 
ATOM     15  C   UNL     1      -2.485  11.135  17.513  0.00  0.00    +0.000 A 
ATOM     16  C   UNL     1      -2.101   9.810  17.253  0.00  0.00    +0.000 A 
ATOM     17  C   UNL     1      -0.815   9.370  17.582  0.00  0.00    +0.000 A 
ATOM     18  C   UNL     1       0.086  10.249  18.243  0.00  0.00    +0.000 A 
ATOM     19  C   UNL     1      -0.301  11.526  18.502  0.00  0.00    +0.000 A 
ATOM     20  C   UNL     1      -1.530  12.004  18.049  0.00  0.00    +0.000 A 
ATOM     21  O   UNL     1       0.512  12.304  19.309  0.00  0.00    +0.000 OA
ATOM     22  C   UNL     1      -0.061  12.798  20.466  0.00  0.00    +0.000 A 
ATOM     23  C   UNL     1      -1.290  12.372  20.984  0.00  0.00    +0.000 A 
ATOM     24  C   UNL     1      -1.927  13.130  21.945  0.00  0.00    +0.000 A 
ATOM     25  C   UNL     1      -1.343  14.328  22.362  0.00  0.00    +0.000 A 
ATOM     26  C   UNL     1      -0.005  14.598  22.065  0.00  0.00    +0.000 A 
ATOM     27  C   UNL     1       0.632  13.832  21.094  0.00  0.00    +0.000 A 
ATOM     28  C   UNL     1      -2.289  15.385  22.877  0.00  0.00    +0.000 C 
ATOM     29  C   UNL     1      -3.238  15.857  21.702  0.00  0.00    +0.000 C 
ENDROOT
BRANCH   1  31
ATOM     30  C   UNL     1      -4.659  12.710  24.482  0.00  0.00    +0.000 C 
ATOM     31  O   UNL     1      -4.867  14.163  24.463  0.00  0.00    +0.000 OA
ENDBRANCH   1  31
BRANCH  12  32
ATOM     32  O   UNL     1      -6.999  15.314  19.265  0.00  0.00    +0.000 OA
ATOM     33  H   UNL     1      -7.636  15.021  18.581  0.00  0.00    +0.000 HD
ENDBRANCH  12  32
BRANCH  18  34
ATOM     34  O   UNL     1       1.305   9.819  18.637  0.00  0.00    +0.000 OA
ATOM     35  H   UNL     1       1.241   9.123  19.304  0.00  0.00    +0.000 HD
ENDBRANCH  18  34
TORSDOF 3
ENDMDL
MODEL 7
REMARK VINA RESULT:      -6.3      6.349     11.046
REMARK  Name = 
REMARK  4 active torsions:
REMARK  status: ('A' for Active; 'I' for Inactive)
REMARK    1  A    between atoms: C_1  and  O_2
REMARK    2  A    between atoms: O_2  and  C_3
REMARK    3  A    between atoms: C_14  and  O_15
REMARK    4  A    between atoms: C_21  and  O_22
REMARK                            x       y       z     vdW  Elec       q    Type
REMARK                         _______ _______ _______ _____ _____    ______ ____
ROOT
ATOM      1  C   UNL     1      -5.149  13.304  22.290  0.00  0.00    +0.000 A 
ATOM      2  C   UNL     1      -5.927  12.803  23.346  0.00  0.00    +0.000 A 
ATOM      3  C   UNL     1      -5.304  12.626  24.576  0.00  0.00    +0.000 A 
ATOM      4  C   UNL     1      -3.938  12.905  24.670  0.00  0.00    +0.000 A 
ATOM      5  C   UNL     1      -3.253  13.462  23.569  0.00  0.00    +0.000 A 
ATOM      6  C   UNL     1      -4.019  14.112  22.611  0.00  0.00    +0.000 A 
ATOM      7  C   UNL     1      -3.788  15.633  22.215  0.00  0.00    +0.000 A 
ATOM      8  C   UNL     1      -4.122  16.164  20.989  0.00  0.00    +0.000 A 
ATOM      9  C   UNL     1      -3.315  17.111  20.298  0.00  0.00    +0.000 A 
ATOM     10  C   UNL     1      -2.271  17.748  20.971  0.00  0.00    +0.000 A 
ATOM     11  C   UNL     1      -2.293  17.636  22.355  0.00  0.00    +0.000 A 
ATOM     12  C   UNL     1      -3.092  16.613  22.967  0.00  0.00    +0.000 A 
ATOM     13  C   UNL     1      -1.171  18.546  20.274  0.00  0.00    +0.000 C 
ATOM     14  C   UNL     1       0.203  17.998  20.745  0.00  0.00    +0.000 C 
ATOM     15  C   UNL     1       1.109  17.261  19.781  0.00  0.00    +0.000 A 
ATOM     16  C   UNL     1       1.532  17.729  18.526  0.00  0.00    +0.000 A 
ATOM     17  C   UNL     1       2.338  16.929  17.710  0.00  0.00    +0.000 A 
ATOM     18  C   UNL     1       2.677  15.612  18.124  0.00  0.00    +0.000 A 
ATOM     19  C   UNL     1       2.251  15.164  19.334  0.00  0.00    +0.000 A 
ATOM     20  C   UNL     1       1.567  16.011  20.206  0.00  0.00    +0.000 A 
ATOM     21  O   UNL     1       2.428  13.824  19.636  0.00  0.00    +0.000 OA
ATOM     22  C   UNL     1       1.284  13.101  19.918  0.00  0.00    +0.000 A 
ATOM     23  C   UNL     1      -0.018  13.557  19.682  0.00  0.00    +0.000 A 
ATOM     24  C   UNL     1      -1.085  12.918  20.279  0.00  0.00    +0.000 A 
ATOM     25  C   UNL     1      -0.840  11.841  21.134  0.00  0.00    +0.000 A 
ATOM     26  C   UNL     1       0.410  11.217  21.137  0.00  0.00    +0.000 A 
ATOM     27  C   UNL     1       1.482  11.867  20.536  0.00  0.00    +0.000 A 
ATOM     28  C   UNL     1      -1.871  11.596  22.208  0.00  0.00    +0.000 C 
ATOM     29  C   UNL     1      -1.895  12.826  23.203  0.00  0.00    +0.000 C 
ENDROOT
BRANCH   1  31
ATOM     30  C   UNL     1      -4.856  12.700  19.861  0.00  0.00    +0.000 C 
ATOM     31  O   UNL     1      -4.918  12.302  21.272  0.00  0.00    +0.000 OA
ENDBRANCH   1  31
BRANCH  12  32
ATOM     32  O   UNL     1      -3.410  16.936  24.296  0.00  0.00    +0.000 OA
ATOM     33  H   UNL     1      -2.621  17.332  24.720  0.00  0.00    +0.000 HD
ENDBRANCH  12  32
BRANCH  18  34
ATOM     34  O   UNL     1       3.390  14.797  17.315  0.00  0.00    +0.000 OA
ATOM     35  H   UNL     1       2.829  14.358  16.662  0.00  0.00    +0.000 HD
ENDBRANCH  18  34
TORSDOF 3
ENDMDL
MODEL 8
REMARK VINA RESULT:      -6.2      8.660     13.257
REMARK  Name = 
REMARK  4 active torsions:
REMARK  status: ('A' for Active; 'I' for Inactive)
REMARK    1  A    between atoms: C_1  and  O_2
REMARK    2  A    between atoms: O_2  and  C_3
REMARK    3  A    between atoms: C_14  and  O_15
REMARK    4  A    between atoms: C_21  and  O_22
REMARK                            x       y       z     vdW  Elec       q    Type
REMARK                         _______ _______ _______ _____ _____    ______ ____
ROOT
ATOM      1  C   UNL     1      -5.039  15.874  24.148  0.00  0.00    +0.000 A 
ATOM      2  C   UNL     1      -5.352  17.117  24.718  0.00  0.00    +0.000 A 
ATOM      3  C   UNL     1      -5.350  18.227  23.881  0.00  0.00    +0.000 A 
ATOM      4  C   UNL     1      -4.986  18.044  22.544  0.00  0.00    +0.000 A 
ATOM      5  C   UNL     1      -4.747  16.746  22.048  0.00  0.00    +0.000 A 
ATOM      6  C   UNL     1      -5.296  15.687  22.758  0.00  0.00    +0.000 A 
ATOM      7  C   UNL     1      -6.298  14.642  22.103  0.00  0.00    +0.000 A 
ATOM      8  C   UNL     1      -6.460  13.351  22.553  0.00  0.00    +0.000 A 
ATOM      9  C   UNL     1      -6.626  12.233  21.686  0.00  0.00    +0.000 A 
ATOM     10  C   UNL     1      -6.905  12.445  20.335  0.00  0.00    +0.000 A 
ATOM     11  C   UNL     1      -7.304  13.732  19.999  0.00  0.00    +0.000 A 
ATOM     12  C   UNL     1      -7.044  14.810  20.909  0.00  0.00    +0.000 A 
ATOM     13  C   UNL     1      -6.813  11.357  19.267  0.00  0.00    +0.000 C 
ATOM     14  C   UNL     1      -5.901  11.873  18.121  0.00  0.00    +0.000 C 
ATOM     15  C   UNL     1      -4.548  11.239  17.870  0.00  0.00    +0.000 A 
ATOM     16  C   UNL     1      -4.302   9.869  17.683  0.00  0.00    +0.000 A 
ATOM     17  C   UNL     1      -2.995   9.406  17.502  0.00  0.00    +0.000 A 
ATOM     18  C   UNL     1      -1.906  10.316  17.573  0.00  0.00    +0.000 A 
ATOM     19  C   UNL     1      -2.155  11.638  17.769  0.00  0.00    +0.000 A 
ATOM     20  C   UNL     1      -3.464  12.118  17.809  0.00  0.00    +0.000 A 
ATOM     21  O   UNL     1      -1.081  12.475  18.023  0.00  0.00    +0.000 OA
ATOM     22  C   UNL     1      -1.109  13.165  19.221  0.00  0.00    +0.000 A 
ATOM     23  C   UNL     1      -1.996  12.892  20.270  0.00  0.00    +0.000 A 
ATOM     24  C   UNL     1      -2.168  13.818  21.278  0.00  0.00    +0.000 A 
ATOM     25  C   UNL     1      -1.471  15.027  21.216  0.00  0.00    +0.000 A 
ATOM     26  C   UNL     1      -0.390  15.170  20.343  0.00  0.00    +0.000 A 
ATOM     27  C   UNL     1      -0.223  14.236  19.326  0.00  0.00    +0.000 A 
ATOM     28  C   UNL     1      -2.115  16.202  21.909  0.00  0.00    +0.000 C 
ATOM     29  C   UNL     1      -3.479  16.554  21.189  0.00  0.00    +0.000 C 
ENDROOT
BRANCH   1  31
ATOM     30  C   UNL     1      -3.521  13.932  24.675  0.00  0.00    +0.000 C 
ATOM     31  O   UNL     1      -3.759  15.379  24.607  0.00  0.00    +0.000 OA
ENDBRANCH   1  31
BRANCH  12  32
ATOM     32  O   UNL     1      -7.916  15.889  20.689  0.00  0.00    +0.000 OA
ATOM     33  H   UNL     1      -8.225  16.225  21.556  0.00  0.00    +0.000 HD
ENDBRANCH  12  32
BRANCH  18  34
ATOM     34  O   UNL     1      -0.632   9.876  17.477  0.00  0.00    +0.000 OA
ATOM     35  H   UNL     1      -0.193  10.215  16.685  0.00  0.00    +0.000 HD
ENDBRANCH  18  34
TORSDOF 3
ENDMDL
MODEL 9
REMARK VINA RESULT:      -6.1      7.844     11.305
REMARK  Name = 
REMARK  4 active torsions:
REMARK  status: ('A' for Active; 'I' for Inactive)
REMARK    1  A    between atoms: C_1  and  O_2
REMARK    2  A    between atoms: O_2  and  C_3
REMARK    3  A    between atoms: C_14  and  O_15
REMARK    4  A    between atoms: C_21  and  O_22
REMARK                            x       y       z     vdW  Elec       q    Type
REMARK                         _______ _______ _______ _____ _____    ______ ____
ROOT
ATOM      1  C   UNL     1       1.014  14.787  21.885  0.00  0.00    +0.000 A 
ATOM      2  C   UNL     1       2.131  15.608  21.666  0.00  0.00    +0.000 A 
ATOM      3  C   UNL     1       2.081  16.490  20.592  0.00  0.00    +0.000 A 
ATOM      4  C   UNL     1       0.950  16.465  19.771  0.00  0.00    +0.000 A 
ATOM      5  C   UNL     1      -0.149  15.647  20.106  0.00  0.00    +0.000 A 
ATOM      6  C   UNL     1      -0.257  15.245  21.430  0.00  0.00    +0.000 A 
ATOM      7  C   UNL     1      -1.533  15.563  22.322  0.00  0.00    +0.000 A 
ATOM      8  C   UNL     1      -1.924  14.799  23.399  0.00  0.00    +0.000 A 
ATOM      9  C   UNL     1      -3.284  14.496  23.693  0.00  0.00    +0.000 A 
ATOM     10  C   UNL     1      -4.302  15.196  23.045  0.00  0.00    +0.000 A 
ATOM     11  C   UNL     1      -3.908  16.352  22.384  0.00  0.00    +0.000 A 
ATOM     12  C   UNL     1      -2.521  16.550  22.075  0.00  0.00    +0.000 A 
ATOM     13  C   UNL     1      -5.768  14.769  23.054  0.00  0.00    +0.000 C 
ATOM     14  C   UNL     1      -6.264  14.690  21.584  0.00  0.00    +0.000 C 
ATOM     15  C   UNL     1      -6.616  13.355  20.962  0.00  0.00    +0.000 A 
ATOM     16  C   UNL     1      -7.505  12.406  21.494  0.00  0.00    +0.000 A 
ATOM     17  C   UNL     1      -7.711  11.188  20.840  0.00  0.00    +0.000 A 
ATOM     18  C   UNL     1      -6.970  10.882  19.666  0.00  0.00    +0.000 A 
ATOM     19  C   UNL     1      -6.103  11.801  19.167  0.00  0.00    +0.000 A 
ATOM     20  C   UNL     1      -6.002  13.069  19.740  0.00  0.00    +0.000 A 
ATOM     21  O   UNL     1      -5.258  11.414  18.141  0.00  0.00    +0.000 OA
ATOM     22  C   UNL     1      -3.902  11.522  18.387  0.00  0.00    +0.000 A 
ATOM     23  C   UNL     1      -3.343  11.752  19.650  0.00  0.00    +0.000 A 
ATOM     24  C   UNL     1      -2.029  12.160  19.753  0.00  0.00    +0.000 A 
ATOM     25  C   UNL     1      -1.288  12.364  18.587  0.00  0.00    +0.000 A 
ATOM     26  C   UNL     1      -1.747  11.864  17.367  0.00  0.00    +0.000 A 
ATOM     27  C   UNL     1      -3.073  11.456  17.268  0.00  0.00    +0.000 A 
ATOM     28  C   UNL     1      -0.162  13.363  18.682  0.00  0.00    +0.000 C 
ATOM     29  C   UNL     1      -0.757  14.801  18.967  0.00  0.00    +0.000 C 
ENDROOT
BRANCH   1  31
ATOM     30  C   UNL     1       2.508  13.050  20.833  0.00  0.00    +0.000 C 
ATOM     31  O   UNL     1       1.305  13.399  21.599  0.00  0.00    +0.000 OA
ENDBRANCH   1  31
BRANCH  12  32
ATOM     32  O   UNL     1      -2.224  17.911  21.893  0.00  0.00    +0.000 OA
ATOM     33  H   UNL     1      -2.832  18.277  21.218  0.00  0.00    +0.000 HD
ENDBRANCH  12  32
BRANCH  18  34
ATOM     34  O   UNL     1      -7.101   9.679  19.063  0.00  0.00    +0.000 OA
ATOM     35  H   UNL     1      -7.870   9.651  18.479  0.00  0.00    +0.000 HD
ENDBRANCH  18  34
TORSDOF 3
ENDMDL
