MODEL 1
REMARK VINA RESULT:      -7.4      0.000      0.000
REMARK  Name = 
REMARK  12 active torsions:
REMARK  status: ('A' for Active; 'I' for Inactive)
REMARK    1  A    between atoms: C_1  and  C_2
REMARK    2  A    between atoms: C_2  and  O_3
REMARK    3  A    between atoms: O_3  and  C_4
REMARK    4  A    between atoms: C_4  and  C_6
REMARK    5  A    between atoms: C_7  and  C_8
REMARK    6  A    between atoms: C_11  and  O_12
REMARK    7  A    between atoms: O_12  and  C_13
REMARK    8  A    between atoms: C_13  and  C_14
REMARK    9  A    between atoms: C_16  and  C_17
REMARK   10  A    between atoms: C_18  and  C_19
REMARK   11  A    between atoms: C_21  and  C_22
REMARK   12  A    between atoms: C_23  and  O_24
REMARK                            x       y       z     vdW  Elec       q    Type
REMARK                         _______ _______ _______ _____ _____    ______ ____
ROOT
ATOM      1  C   UNL     1       7.225   7.617  17.544  0.00  0.00    +0.000 A 
ATOM      2  C   UNL     1       6.001   7.550  16.866  0.00  0.00    +0.000 A 
ATOM      3  C   UNL     1       5.408   6.313  16.572  0.00  0.00    +0.000 A 
ATOM      4  C   UNL     1       6.053   5.127  16.924  0.00  0.00    +0.000 A 
ATOM      5  C   UNL     1       7.278   5.205  17.591  0.00  0.00    +0.000 A 
ATOM      6  C   UNL     1       7.875   6.424  17.882  0.00  0.00    +0.000 A 
ENDROOT
BRANCH   1   8
ATOM      7  C   UNL     1       8.749   9.093  18.795  0.00  0.00    +0.000 C 
ATOM      8  C   UNL     1       7.799   8.929  17.863  0.00  0.00    +0.000 C 
BRANCH   7   9
ATOM      9  C   UNL     1       9.316  10.426  19.050  0.00  0.00    +0.000 C 
ATOM     10  O   UNL     1       9.749  10.812  20.125  0.00  0.00    +0.000 OA
BRANCH   9  11
ATOM     11  O   UNL     1       9.156  11.159  17.923  0.00  0.00    +0.000 OA
BRANCH  11  13
ATOM     12  C   UNL     1      11.064  12.466  17.375  0.00  0.00    +0.000 C 
ATOM     13  C   UNL     1       9.680  12.490  17.997  0.00  0.00    +0.000 C 
ENDBRANCH  11  13
ENDBRANCH   9  11
ENDBRANCH   7   9
ENDBRANCH   1   8
BRANCH   5  14
ATOM     14  O   UNL     1       7.939   4.066  17.965  0.00  0.00    +0.000 OA
ATOM     15  H   UNL     1       7.456   3.333  17.541  0.00  0.00    +0.000 HD
ENDBRANCH   5  14
BRANCH   4  16
ATOM     16  O   UNL     1       5.592   3.859  16.692  0.00  0.00    +0.000 OA
BRANCH  16  17
ATOM     17  C   UNL     1       4.170   3.727  16.621  0.00  0.00    +0.000 C 
BRANCH  17  18
ATOM     18  C   UNL     1       3.587   3.411  17.980  0.00  0.00    +0.000 A 
ATOM     19  N   UNL     1       4.377   2.680  18.816  0.00  0.00    +0.000 NA
ATOM     20  C   UNL     1       3.903   2.419  20.062  0.00  0.00    +0.000 A 
ATOM     21  C   UNL     1       4.795   1.610  20.951  0.00  0.00    +0.000 C 
ATOM     22  C   UNL     1       2.657   2.885  20.477  0.00  0.00    +0.000 A 
ATOM     23  C   UNL     1       2.079   2.614  21.832  0.00  0.00    +0.000 C 
ATOM     24  N   UNL     1       1.873   3.622  19.650  0.00  0.00    +0.000 NA
ATOM     25  C   UNL     1       2.343   3.884  18.402  0.00  0.00    +0.000 A 
ATOM     26  C   UNL     1       1.444   4.719  17.542  0.00  0.00    +0.000 C 
ENDBRANCH  17  18
ENDBRANCH  16  17
ENDBRANCH   4  16
TORSDOF 8
ENDMDL
MODEL 2
REMARK VINA RESULT:      -7.3      1.423      2.353
REMARK  Name = 
REMARK  12 active torsions:
REMARK  status: ('A' for Active; 'I' for Inactive)
REMARK    1  A    between atoms: C_1  and  C_2
REMARK    2  A    between atoms: C_2  and  O_3
REMARK    3  A    between atoms: O_3  and  C_4
REMARK    4  A    between atoms: C_4  and  C_6
REMARK    5  A    between atoms: C_7  and  C_8
REMARK    6  A    between atoms: C_11  and  O_12
REMARK    7  A    between atoms: O_12  and  C_13
REMARK    8  A    between atoms: C_13  and  C_14
REMARK    9  A    between atoms: C_16  and  C_17
REMARK   10  A    between atoms: C_18  and  C_19
REMARK   11  A    between atoms: C_21  and  C_22
REMARK   12  A    between atoms: C_23  and  O_24
REMARK                            x       y       z     vdW  Elec       q    Type
REMARK                         _______ _______ _______ _____ _____    ______ ____
ROOT
ATOM      1  C   UNL     1       7.682   7.161  18.015  0.00  0.00    +0.000 A 
ATOM      2  C   UNL     1       7.711   5.992  18.786  0.00  0.00    +0.000 A 
ATOM      3  C   UNL     1       7.012   4.845  18.381  0.00  0.00    +0.000 A 
ATOM      4  C   UNL     1       6.246   4.869  17.215  0.00  0.00    +0.000 A 
ATOM      5  C   UNL     1       6.216   6.042  16.459  0.00  0.00    +0.000 A 
ATOM      6  C   UNL     1       6.901   7.184  16.853  0.00  0.00    +0.000 A 
ENDROOT
BRANCH   1   8
ATOM      7  C   UNL     1       8.290   9.545  17.910  0.00  0.00    +0.000 C 
ATOM      8  C   UNL     1       8.453   8.330  18.452  0.00  0.00    +0.000 C 
BRANCH   7   9
ATOM      9  C   UNL     1       9.064  10.692  18.412  0.00  0.00    +0.000 C 
ATOM     10  O   UNL     1       9.267  11.726  17.796  0.00  0.00    +0.000 OA
BRANCH   9  11
ATOM     11  O   UNL     1       9.592  10.335  19.607  0.00  0.00    +0.000 OA
BRANCH  11  13
ATOM     12  C   UNL     1      11.037  11.957  20.570  0.00  0.00    +0.000 C 
ATOM     13  C   UNL     1       9.632  11.385  20.579  0.00  0.00    +0.000 C 
ENDBRANCH  11  13
ENDBRANCH   9  11
ENDBRANCH   7   9
ENDBRANCH   1   8
BRANCH   5  14
ATOM     14  O   UNL     1       5.487   6.105  15.301  0.00  0.00    +0.000 OA
ATOM     15  H   UNL     1       5.059   5.233  15.216  0.00  0.00    +0.000 HD
ENDBRANCH   5  14
BRANCH   4  16
ATOM     16  O   UNL     1       5.512   3.828  16.711  0.00  0.00    +0.000 OA
BRANCH  16  17
ATOM     17  C   UNL     1       4.095   4.023  16.706  0.00  0.00    +0.000 C 
BRANCH  17  18
ATOM     18  C   UNL     1       3.510   3.776  18.078  0.00  0.00    +0.000 A 
ATOM     19  N   UNL     1       2.996   4.865  18.716  0.00  0.00    +0.000 NA
ATOM     20  C   UNL     1       2.419   4.669  19.930  0.00  0.00    +0.000 A 
ATOM     21  C   UNL     1       1.869   5.888  20.604  0.00  0.00    +0.000 C 
ATOM     22  C   UNL     1       2.349   3.401  20.505  0.00  0.00    +0.000 A 
ATOM     23  C   UNL     1       1.740   3.130  21.846  0.00  0.00    +0.000 C 
ATOM     24  N   UNL     1       2.851   2.314  19.867  0.00  0.00    +0.000 NA
ATOM     25  C   UNL     1       3.430   2.506  18.653  0.00  0.00    +0.000 A 
ATOM     26  C   UNL     1       3.947   1.267  17.987  0.00  0.00    +0.000 C 
ENDBRANCH  17  18
ENDBRANCH  16  17
ENDBRANCH   4  16
TORSDOF 8
ENDMDL
MODEL 3
REMARK VINA RESULT:      -7.3      4.914      7.148
REMARK  Name = 
REMARK  12 active torsions:
REMARK  status: ('A' for Active; 'I' for Inactive)
REMARK    1  A    between atoms: C_1  and  C_2
REMARK    2  A    between atoms: C_2  and  O_3
REMARK    3  A    between atoms: O_3  and  C_4
REMARK    4  A    between atoms: C_4  and  C_6
REMARK    5  A    between atoms: C_7  and  C_8
REMARK    6  A    between atoms: C_11  and  O_12
REMARK    7  A    between atoms: O_12  and  C_13
REMARK    8  A    between atoms: C_13  and  C_14
REMARK    9  A    between atoms: C_16  and  C_17
REMARK   10  A    between atoms: C_18  and  C_19
REMARK   11  A    between atoms: C_21  and  C_22
REMARK   12  A    between atoms: C_23  and  O_24
REMARK                            x       y       z     vdW  Elec       q    Type
REMARK                         _______ _______ _______ _____ _____    ______ ____
ROOT
ATOM      1  C   UNL     1       2.225   7.408  19.707  0.00  0.00    +0.000 A 
ATOM      2  C   UNL     1       2.805   7.732  18.474  0.00  0.00    +0.000 A 
ATOM      3  C   UNL     1       3.265   6.727  17.609  0.00  0.00    +0.000 A 
ATOM      4  C   UNL     1       3.178   5.387  17.987  0.00  0.00    +0.000 A 
ATOM      5  C   UNL     1       2.607   5.075  19.222  0.00  0.00    +0.000 A 
ATOM      6  C   UNL     1       2.154   6.063  20.087  0.00  0.00    +0.000 A 
ENDROOT
BRANCH   1   8
ATOM      7  C   UNL     1       0.736   8.297  21.456  0.00  0.00    +0.000 C 
ATOM      8  C   UNL     1       1.725   8.483  20.570  0.00  0.00    +0.000 C 
BRANCH   7   9
ATOM      9  C   UNL     1       0.299   9.402  22.324  0.00  0.00    +0.000 C 
ATOM     10  O   UNL     1       0.744   9.641  23.436  0.00  0.00    +0.000 OA
BRANCH   9  11
ATOM     11  O   UNL     1      -0.747  10.008  21.715  0.00  0.00    +0.000 OA
BRANCH  11  13
ATOM     12  C   UNL     1       0.270  11.954  20.806  0.00  0.00    +0.000 C 
ATOM     13  C   UNL     1      -0.745  11.437  21.807  0.00  0.00    +0.000 C 
ENDBRANCH  11  13
ENDBRANCH   9  11
ENDBRANCH   7   9
ENDBRANCH   1   8
BRANCH   5  14
ATOM     14  O   UNL     1       2.493   3.772  19.627  0.00  0.00    +0.000 OA
ATOM     15  H   UNL     1       1.601   3.491  19.350  0.00  0.00    +0.000 HD
ENDBRANCH   5  14
BRANCH   4  16
ATOM     16  O   UNL     1       3.593   4.312  17.246  0.00  0.00    +0.000 OA
BRANCH  16  17
ATOM     17  C   UNL     1       4.956   3.922  17.441  0.00  0.00    +0.000 C 
BRANCH  17  18
ATOM     18  C   UNL     1       5.804   4.301  16.248  0.00  0.00    +0.000 A 
ATOM     19  N   UNL     1       5.491   3.690  15.072  0.00  0.00    +0.000 NA
ATOM     20  C   UNL     1       6.202   4.043  13.970  0.00  0.00    +0.000 A 
ATOM     21  C   UNL     1       5.835   3.348  12.696  0.00  0.00    +0.000 C 
ATOM     22  C   UNL     1       7.213   5.001  14.034  0.00  0.00    +0.000 A 
ATOM     23  C   UNL     1       8.039   5.417  12.856  0.00  0.00    +0.000 C 
ATOM     24  N   UNL     1       7.519   5.619  15.203  0.00  0.00    +0.000 NA
ATOM     25  C   UNL     1       6.810   5.267  16.307  0.00  0.00    +0.000 A 
ATOM     26  C   UNL     1       7.179   5.997  17.563  0.00  0.00    +0.000 C 
ENDBRANCH  17  18
ENDBRANCH  16  17
ENDBRANCH   4  16
TORSDOF 8
ENDMDL
MODEL 4
REMARK VINA RESULT:      -7.2      5.136      7.470
REMARK  Name = 
REMARK  12 active torsions:
REMARK  status: ('A' for Active; 'I' for Inactive)
REMARK    1  A    between atoms: C_1  and  C_2
REMARK    2  A    between atoms: C_2  and  O_3
REMARK    3  A    between atoms: O_3  and  C_4
REMARK    4  A    between atoms: C_4  and  C_6
REMARK    5  A    between atoms: C_7  and  C_8
REMARK    6  A    between atoms: C_11  and  O_12
REMARK    7  A    between atoms: O_12  and  C_13
REMARK    8  A    between atoms: C_13  and  C_14
REMARK    9  A    between atoms: C_16  and  C_17
REMARK   10  A    between atoms: C_18  and  C_19
REMARK   11  A    between atoms: C_21  and  C_22
REMARK   12  A    between atoms: C_23  and  O_24
REMARK                            x       y       z     vdW  Elec       q    Type
REMARK                         _______ _______ _______ _____ _____    ______ ____
ROOT
ATOM      1  C   UNL     1       1.735   6.872  20.412  0.00  0.00    +0.000 A 
ATOM      2  C   UNL     1       1.704   5.472  20.453  0.00  0.00    +0.000 A 
ATOM      3  C   UNL     1       2.329   4.709  19.455  0.00  0.00    +0.000 A 
ATOM      4  C   UNL     1       2.961   5.342  18.385  0.00  0.00    +0.000 A 
ATOM      5  C   UNL     1       2.977   6.737  18.347  0.00  0.00    +0.000 A 
ATOM      6  C   UNL     1       2.359   7.501  19.328  0.00  0.00    +0.000 A 
ENDROOT
BRANCH   1   8
ATOM      7  C   UNL     1       0.961   8.970  21.445  0.00  0.00    +0.000 C 
ATOM      8  C   UNL     1       1.100   7.637  21.490  0.00  0.00    +0.000 C 
BRANCH   7   9
ATOM      9  C   UNL     1       0.283   9.684  22.538  0.00  0.00    +0.000 C 
ATOM     10  O   UNL     1       0.547   9.565  23.725  0.00  0.00    +0.000 OA
BRANCH   9  11
ATOM     11  O   UNL     1      -0.740  10.383  21.995  0.00  0.00    +0.000 OA
BRANCH  11  13
ATOM     12  C   UNL     1      -1.289  12.674  21.676  0.00  0.00    +0.000 C 
ATOM     13  C   UNL     1      -1.091  11.577  22.705  0.00  0.00    +0.000 C 
ENDBRANCH  11  13
ENDBRANCH   9  11
ENDBRANCH   7   9
ENDBRANCH   1   8
BRANCH   5  14
ATOM     14  O   UNL     1       3.597   7.399  17.321  0.00  0.00    +0.000 OA
ATOM     15  H   UNL     1       2.963   7.382  16.580  0.00  0.00    +0.000 HD
ENDBRANCH   5  14
BRANCH   4  16
ATOM     16  O   UNL     1       3.599   4.720  17.344  0.00  0.00    +0.000 OA
BRANCH  16  17
ATOM     17  C   UNL     1       4.962   4.361  17.588  0.00  0.00    +0.000 C 
BRANCH  17  18
ATOM     18  C   UNL     1       5.816   4.618  16.367  0.00  0.00    +0.000 A 
ATOM     19  N   UNL     1       5.446   3.969  15.229  0.00  0.00    +0.000 NA
ATOM     20  C   UNL     1       6.164   4.215  14.102  0.00  0.00    +0.000 A 
ATOM     21  C   UNL     1       5.731   3.480  12.871  0.00  0.00    +0.000 C 
ATOM     22  C   UNL     1       7.237   5.103  14.103  0.00  0.00    +0.000 A 
ATOM     23  C   UNL     1       8.072   5.400  12.896  0.00  0.00    +0.000 C 
ATOM     24  N   UNL     1       7.601   5.760  15.234  0.00  0.00    +0.000 NA
ATOM     25  C   UNL     1       6.886   5.515  16.364  0.00  0.00    +0.000 A 
ATOM     26  C   UNL     1       7.321   6.284  17.575  0.00  0.00    +0.000 C 
ENDBRANCH  17  18
ENDBRANCH  16  17
ENDBRANCH   4  16
TORSDOF 8
ENDMDL
MODEL 5
REMARK VINA RESULT:      -7.2      1.760      2.812
REMARK  Name = 
REMARK  12 active torsions:
REMARK  status: ('A' for Active; 'I' for Inactive)
REMARK    1  A    between atoms: C_1  and  C_2
REMARK    2  A    between atoms: C_2  and  O_3
REMARK    3  A    between atoms: O_3  and  C_4
REMARK    4  A    between atoms: C_4  and  C_6
REMARK    5  A    between atoms: C_7  and  C_8
REMARK    6  A    between atoms: C_11  and  O_12
REMARK    7  A    between atoms: O_12  and  C_13
REMARK    8  A    between atoms: C_13  and  C_14
REMARK    9  A    between atoms: C_16  and  C_17
REMARK   10  A    between atoms: C_18  and  C_19
REMARK   11  A    between atoms: C_21  and  C_22
REMARK   12  A    between atoms: C_23  and  O_24
REMARK                            x       y       z     vdW  Elec       q    Type
REMARK                         _______ _______ _______ _____ _____    ______ ____
ROOT
ATOM      1  C   UNL     1       7.690   7.139  18.065  0.00  0.00    +0.000 A 
ATOM      2  C   UNL     1       7.701   5.862  18.639  0.00  0.00    +0.000 A 
ATOM      3  C   UNL     1       6.875   4.842  18.141  0.00  0.00    +0.000 A 
ATOM      4  C   UNL     1       6.003   5.103  17.084  0.00  0.00    +0.000 A 
ATOM      5  C   UNL     1       5.992   6.383  16.526  0.00  0.00    +0.000 A 
ATOM      6  C   UNL     1       6.803   7.400  17.014  0.00  0.00    +0.000 A 
ENDROOT
BRANCH   1   8
ATOM      7  C   UNL     1       8.470   9.467  18.268  0.00  0.00    +0.000 C 
ATOM      8  C   UNL     1       8.591   8.171  18.590  0.00  0.00    +0.000 C 
BRANCH   7   9
ATOM      9  C   UNL     1       9.379  10.465  18.853  0.00  0.00    +0.000 C 
ATOM     10  O   UNL     1       9.402  10.791  20.030  0.00  0.00    +0.000 OA
BRANCH   9  11
ATOM     11  O   UNL     1      10.079  11.022  17.837  0.00  0.00    +0.000 OA
BRANCH  11  13
ATOM     12  C   UNL     1      10.411  13.348  17.480  0.00  0.00    +0.000 C 
ATOM     13  C   UNL     1      10.913  12.122  18.219  0.00  0.00    +0.000 C 
ENDBRANCH  11  13
ENDBRANCH   9  11
ENDBRANCH   7   9
ENDBRANCH   1   8
BRANCH   5  14
ATOM     14  O   UNL     1       5.160   6.679  15.479  0.00  0.00    +0.000 OA
ATOM     15  H   UNL     1       4.471   7.260  15.851  0.00  0.00    +0.000 HD
ENDBRANCH   5  14
BRANCH   4  16
ATOM     16  O   UNL     1       5.141   4.207  16.510  0.00  0.00    +0.000 OA
BRANCH  16  17
ATOM     17  C   UNL     1       4.262   3.534  17.416  0.00  0.00    +0.000 C 
BRANCH  17  18
ATOM     18  C   UNL     1       3.569   4.520  18.330  0.00  0.00    +0.000 A 
ATOM     19  N   UNL     1       3.250   5.725  17.780  0.00  0.00    +0.000 NA
ATOM     20  C   UNL     1       2.584   6.616  18.560  0.00  0.00    +0.000 A 
ATOM     21  C   UNL     1       2.253   7.931  17.924  0.00  0.00    +0.000 C 
ATOM     22  C   UNL     1       2.232   6.311  19.873  0.00  0.00    +0.000 A 
ATOM     23  C   UNL     1       1.513   7.260  20.782  0.00  0.00    +0.000 C 
ATOM     24  N   UNL     1       2.540   5.108  20.420  0.00  0.00    +0.000 NA
ATOM     25  C   UNL     1       3.208   4.214  19.643  0.00  0.00    +0.000 A 
ATOM     26  C   UNL     1       3.501   2.896  20.293  0.00  0.00    +0.000 C 
ENDBRANCH  17  18
ENDBRANCH  16  17
ENDBRANCH   4  16
TORSDOF 8
ENDMDL
MODEL 6
REMARK VINA RESULT:      -7.1      0.820      1.354
REMARK  Name = 
REMARK  12 active torsions:
REMARK  status: ('A' for Active; 'I' for Inactive)
REMARK    1  A    between atoms: C_1  and  C_2
REMARK    2  A    between atoms: C_2  and  O_3
REMARK    3  A    between atoms: O_3  and  C_4
REMARK    4  A    between atoms: C_4  and  C_6
REMARK    5  A    between atoms: C_7  and  C_8
REMARK    6  A    between atoms: C_11  and  O_12
REMARK    7  A    between atoms: O_12  and  C_13
REMARK    8  A    between atoms: C_13  and  C_14
REMARK    9  A    between atoms: C_16  and  C_17
REMARK   10  A    between atoms: C_18  and  C_19
REMARK   11  A    between atoms: C_21  and  C_22
REMARK   12  A    between atoms: C_23  and  O_24
REMARK                            x       y       z     vdW  Elec       q    Type
REMARK                         _______ _______ _______ _____ _____    ______ ____
ROOT
ATOM      1  C   UNL     1       7.332   7.763  17.563  0.00  0.00    +0.000 A 
ATOM      2  C   UNL     1       6.157   7.670  16.807  0.00  0.00    +0.000 A 
ATOM      3  C   UNL     1       5.550   6.427  16.570  0.00  0.00    +0.000 A 
ATOM      4  C   UNL     1       6.135   5.259  17.059  0.00  0.00    +0.000 A 
ATOM      5  C   UNL     1       7.313   5.362  17.803  0.00  0.00    +0.000 A 
ATOM      6  C   UNL     1       7.923   6.586  18.039  0.00  0.00    +0.000 A 
ENDROOT
BRANCH   1   8
ATOM      7  C   UNL     1       8.815   9.297  18.794  0.00  0.00    +0.000 C 
ATOM      8  C   UNL     1       7.920   9.082  17.819  0.00  0.00    +0.000 C 
BRANCH   7   9
ATOM      9  C   UNL     1       9.401  10.633  18.983  0.00  0.00    +0.000 C 
ATOM     10  O   UNL     1       9.410  11.522  18.145  0.00  0.00    +0.000 OA
BRANCH   9  11
ATOM     11  O   UNL     1      10.015  10.641  20.189  0.00  0.00    +0.000 OA
BRANCH  11  13
ATOM     12  C   UNL     1       8.684  11.809  21.775  0.00  0.00    +0.000 C 
ATOM     13  C   UNL     1       9.921  11.882  20.899  0.00  0.00    +0.000 C 
ENDBRANCH  11  13
ENDBRANCH   9  11
ENDBRANCH   7   9
ENDBRANCH   1   8
BRANCH   5  14
ATOM     14  O   UNL     1       7.914   4.241  18.312  0.00  0.00    +0.000 OA
ATOM     15  H   UNL     1       7.503   3.491  17.844  0.00  0.00    +0.000 HD
ENDBRANCH   5  14
BRANCH   4  16
ATOM     16  O   UNL     1       5.655   3.987  16.895  0.00  0.00    +0.000 OA
BRANCH  16  17
ATOM     17  C   UNL     1       4.235   3.881  16.756  0.00  0.00    +0.000 C 
BRANCH  17  18
ATOM     18  C   UNL     1       3.589   3.505  18.070  0.00  0.00    +0.000 A 
ATOM     19  N   UNL     1       4.356   2.777  18.929  0.00  0.00    +0.000 NA
ATOM     20  C   UNL     1       3.822   2.464  20.138  0.00  0.00    +0.000 A 
ATOM     21  C   UNL     1       4.691   1.659  21.054  0.00  0.00    +0.000 C 
ATOM     22  C   UNL     1       2.539   2.875  20.495  0.00  0.00    +0.000 A 
ATOM     23  C   UNL     1       1.896   2.545  21.806  0.00  0.00    +0.000 C 
ATOM     24  N   UNL     1       1.778   3.610  19.645  0.00  0.00    +0.000 NA
ATOM     25  C   UNL     1       2.308   3.924  18.434  0.00  0.00    +0.000 A 
ATOM     26  C   UNL     1       1.429   4.754  17.547  0.00  0.00    +0.000 C 
ENDBRANCH  17  18
ENDBRANCH  16  17
ENDBRANCH   4  16
TORSDOF 8
ENDMDL
MODEL 7
REMARK VINA RESULT:      -7.1      1.472      2.143
REMARK  Name = 
REMARK  12 active torsions:
REMARK  status: ('A' for Active; 'I' for Inactive)
REMARK    1  A    between atoms: C_1  and  C_2
REMARK    2  A    between atoms: C_2  and  O_3
REMARK    3  A    between atoms: O_3  and  C_4
REMARK    4  A    between atoms: C_4  and  C_6
REMARK    5  A    between atoms: C_7  and  C_8
REMARK    6  A    between atoms: C_11  and  O_12
REMARK    7  A    between atoms: O_12  and  C_13
REMARK    8  A    between atoms: C_13  and  C_14
REMARK    9  A    between atoms: C_16  and  C_17
REMARK   10  A    between atoms: C_18  and  C_19
REMARK   11  A    between atoms: C_21  and  C_22
REMARK   12  A    between atoms: C_23  and  O_24
REMARK                            x       y       z     vdW  Elec       q    Type
REMARK                         _______ _______ _______ _____ _____    ______ ____
ROOT
ATOM      1  C   UNL     1       7.832   7.111  18.063  0.00  0.00    +0.000 A 
ATOM      2  C   UNL     1       7.514   7.114  16.699  0.00  0.00    +0.000 A 
ATOM      3  C   UNL     1       6.831   6.035  16.117  0.00  0.00    +0.000 A 
ATOM      4  C   UNL     1       6.490   4.925  16.889  0.00  0.00    +0.000 A 
ATOM      5  C   UNL     1       6.821   4.927  18.246  0.00  0.00    +0.000 A 
ATOM      6  C   UNL     1       7.500   5.988  18.831  0.00  0.00    +0.000 A 
ENDROOT
BRANCH   1   8
ATOM      7  C   UNL     1       8.440   9.497  18.110  0.00  0.00    +0.000 C 
ATOM      8  C   UNL     1       8.517   8.270  18.645  0.00  0.00    +0.000 C 
BRANCH   7   9
ATOM      9  C   UNL     1       9.117  10.633  18.755  0.00  0.00    +0.000 C 
ATOM     10  O   UNL     1       9.503  10.655  19.914  0.00  0.00    +0.000 OA
BRANCH   9  11
ATOM     11  O   UNL     1       9.119  11.660  17.874  0.00  0.00    +0.000 OA
BRANCH  11  13
ATOM     12  C   UNL     1      10.998  12.956  17.209  0.00  0.00    +0.000 C 
ATOM     13  C   UNL     1       9.922  12.780  18.264  0.00  0.00    +0.000 C 
ENDBRANCH  11  13
ENDBRANCH   9  11
ENDBRANCH   7   9
ENDBRANCH   1   8
BRANCH   5  14
ATOM     14  O   UNL     1       6.494   3.863  19.043  0.00  0.00    +0.000 OA
ATOM     15  H   UNL     1       7.338   3.413  19.235  0.00  0.00    +0.000 HD
ENDBRANCH   5  14
BRANCH   4  16
ATOM     16  O   UNL     1       5.833   3.808  16.448  0.00  0.00    +0.000 OA
BRANCH  16  17
ATOM     17  C   UNL     1       4.450   3.994  16.132  0.00  0.00    +0.000 C 
BRANCH  17  18
ATOM     18  C   UNL     1       3.650   4.312  17.375  0.00  0.00    +0.000 A 
ATOM     19  N   UNL     1       3.385   5.629  17.596  0.00  0.00    +0.000 NA
ATOM     20  C   UNL     1       2.627   5.946  18.679  0.00  0.00    +0.000 A 
ATOM     21  C   UNL     1       2.359   7.403  18.894  0.00  0.00    +0.000 C 
ATOM     22  C   UNL     1       2.131   4.961  19.531  0.00  0.00    +0.000 A 
ATOM     23  C   UNL     1       1.305   5.253  20.746  0.00  0.00    +0.000 C 
ATOM     24  N   UNL     1       2.385   3.647  19.306  0.00  0.00    +0.000 NA
ATOM     25  C   UNL     1       3.144   3.327  18.225  0.00  0.00    +0.000 A 
ATOM     26  C   UNL     1       3.373   1.860  18.017  0.00  0.00    +0.000 C 
ENDBRANCH  17  18
ENDBRANCH  16  17
ENDBRANCH   4  16
TORSDOF 8
ENDMDL
MODEL 8
REMARK VINA RESULT:      -7.1      1.101      1.374
REMARK  Name = 
REMARK  12 active torsions:
REMARK  status: ('A' for Active; 'I' for Inactive)
REMARK    1  A    between atoms: C_1  and  C_2
REMARK    2  A    between atoms: C_2  and  O_3
REMARK    3  A    between atoms: O_3  and  C_4
REMARK    4  A    between atoms: C_4  and  C_6
REMARK    5  A    between atoms: C_7  and  C_8
REMARK    6  A    between atoms: C_11  and  O_12
REMARK    7  A    between atoms: O_12  and  C_13
REMARK    8  A    between atoms: C_13  and  C_14
REMARK    9  A    between atoms: C_16  and  C_17
REMARK   10  A    between atoms: C_18  and  C_19
REMARK   11  A    between atoms: C_21  and  C_22
REMARK   12  A    between atoms: C_23  and  O_24
REMARK                            x       y       z     vdW  Elec       q    Type
REMARK                         _______ _______ _______ _____ _____    ______ ____
ROOT
ATOM      1  C   UNL     1       8.083   8.274  18.138  0.00  0.00    +0.000 A 
ATOM      2  C   UNL     1       7.263   7.891  17.070  0.00  0.00    +0.000 A 
ATOM      3  C   UNL     1       6.761   6.584  16.980  0.00  0.00    +0.000 A 
ATOM      4  C   UNL     1       7.106   5.635  17.943  0.00  0.00    +0.000 A 
ATOM      5  C   UNL     1       7.933   6.024  18.998  0.00  0.00    +0.000 A 
ATOM      6  C   UNL     1       8.438   7.314  19.094  0.00  0.00    +0.000 A 
ENDROOT
BRANCH   1   8
ATOM      7  C   UNL     1       9.377  10.085  19.193  0.00  0.00    +0.000 C 
ATOM      8  C   UNL     1       8.562   9.658  18.218  0.00  0.00    +0.000 C 
BRANCH   7   9
ATOM      9  C   UNL     1       9.857  11.476  19.204  0.00  0.00    +0.000 C 
ATOM     10  O   UNL     1      10.012  12.158  20.205  0.00  0.00    +0.000 OA
BRANCH   9  11
ATOM     11  O   UNL     1       9.971  11.877  17.916  0.00  0.00    +0.000 OA
BRANCH  11  13
ATOM     12  C   UNL     1       8.017  13.161  17.488  0.00  0.00    +0.000 C 
ATOM     13  C   UNL     1       9.523  13.214  17.665  0.00  0.00    +0.000 C 
ENDBRANCH  11  13
ENDBRANCH   9  11
ENDBRANCH   7   9
ENDBRANCH   1   8
BRANCH   5  14
ATOM     14  O   UNL     1       8.286   5.128  19.971  0.00  0.00    +0.000 OA
ATOM     15  H   UNL     1       9.254   5.035  19.901  0.00  0.00    +0.000 HD
ENDBRANCH   5  14
BRANCH   4  16
ATOM     16  O   UNL     1       6.695   4.329  17.971  0.00  0.00    +0.000 OA
BRANCH  16  17
ATOM     17  C   UNL     1       5.382   4.089  17.455  0.00  0.00    +0.000 C 
BRANCH  17  18
ATOM     18  C   UNL     1       4.433   3.682  18.560  0.00  0.00    +0.000 A 
ATOM     19  N   UNL     1       4.901   2.756  19.442  0.00  0.00    +0.000 NA
ATOM     20  C   UNL     1       4.091   2.404  20.475  0.00  0.00    +0.000 A 
ATOM     21  C   UNL     1       4.637   1.381  21.422  0.00  0.00    +0.000 C 
ATOM     22  C   UNL     1       2.828   2.971  20.633  0.00  0.00    +0.000 A 
ATOM     23  C   UNL     1       1.888   2.609  21.741  0.00  0.00    +0.000 C 
ATOM     24  N   UNL     1       2.364   3.901  19.761  0.00  0.00    +0.000 NA
ATOM     25  C   UNL     1       3.171   4.255  18.726  0.00  0.00    +0.000 A 
ATOM     26  C   UNL     1       2.613   5.301  17.809  0.00  0.00    +0.000 C 
ENDBRANCH  17  18
ENDBRANCH  16  17
ENDBRANCH   4  16
TORSDOF 8
ENDMDL
MODEL 9
REMARK VINA RESULT:      -7.1      1.369      2.238
REMARK  Name = 
REMARK  12 active torsions:
REMARK  status: ('A' for Active; 'I' for Inactive)
REMARK    1  A    between atoms: C_1  and  C_2
REMARK    2  A    between atoms: C_2  and  O_3
REMARK    3  A    between atoms: O_3  and  C_4
REMARK    4  A    between atoms: C_4  and  C_6
REMARK    5  A    between atoms: C_7  and  C_8
REMARK    6  A    between atoms: C_11  and  O_12
REMARK    7  A    between atoms: O_12  and  C_13
REMARK    8  A    between atoms: C_13  and  C_14
REMARK    9  A    between atoms: C_16  and  C_17
REMARK   10  A    between atoms: C_18  and  C_19
REMARK   11  A    between atoms: C_21  and  C_22
REMARK   12  A    between atoms: C_23  and  O_24
REMARK                            x       y       z     vdW  Elec       q    Type
REMARK                         _______ _______ _______ _____ _____    ______ ____
ROOT
ATOM      1  C   UNL     1       7.731   7.221  18.088  0.00  0.00    +0.000 A 
ATOM      2  C   UNL     1       7.737   6.049  18.855  0.00  0.00    +0.000 A 
ATOM      3  C   UNL     1       7.032   4.910  18.434  0.00  0.00    +0.000 A 
ATOM      4  C   UNL     1       6.284   4.947  17.257  0.00  0.00    +0.000 A 
ATOM      5  C   UNL     1       6.276   6.124  16.506  0.00  0.00    +0.000 A 
ATOM      6  C   UNL     1       6.967   7.257  16.915  0.00  0.00    +0.000 A 
ENDROOT
BRANCH   1   8
ATOM      7  C   UNL     1       8.430   9.578  17.944  0.00  0.00    +0.000 C 
ATOM      8  C   UNL     1       8.506   8.380  18.542  0.00  0.00    +0.000 C 
BRANCH   7   9
ATOM      9  C   UNL     1       9.203  10.718  18.464  0.00  0.00    +0.000 C 
ATOM     10  O   UNL     1       9.935  10.684  19.441  0.00  0.00    +0.000 OA
BRANCH   9  11
ATOM     11  O   UNL     1       8.858  11.808  17.739  0.00  0.00    +0.000 OA
BRANCH  11  13
ATOM     12  C   UNL     1       7.752  13.907  17.888  0.00  0.00    +0.000 C 
ATOM     13  C   UNL     1       8.846  13.036  18.476  0.00  0.00    +0.000 C 
ENDBRANCH  11  13
ENDBRANCH   9  11
ENDBRANCH   7   9
ENDBRANCH   1   8
BRANCH   5  14
ATOM     14  O   UNL     1       5.565   6.199  15.338  0.00  0.00    +0.000 OA
ATOM     15  H   UNL     1       6.231   6.171  14.626  0.00  0.00    +0.000 HD
ENDBRANCH   5  14
BRANCH   4  16
ATOM     16  O   UNL     1       5.547   3.916  16.738  0.00  0.00    +0.000 OA
BRANCH  16  17
ATOM     17  C   UNL     1       4.132   4.126  16.711  0.00  0.00    +0.000 C 
BRANCH  17  18
ATOM     18  C   UNL     1       3.517   3.843  18.063  0.00  0.00    +0.000 A 
ATOM     19  N   UNL     1       2.993   4.916  18.719  0.00  0.00    +0.000 NA
ATOM     20  C   UNL     1       2.390   4.688  19.915  0.00  0.00    +0.000 A 
ATOM     21  C   UNL     1       1.830   5.890  20.611  0.00  0.00    +0.000 C 
ATOM     22  C   UNL     1       2.303   3.405  20.453  0.00  0.00    +0.000 A 
ATOM     23  C   UNL     1       1.664   3.099  21.772  0.00  0.00    +0.000 C 
ATOM     24  N   UNL     1       2.815   2.334  19.795  0.00  0.00    +0.000 NA
ATOM     25  C   UNL     1       3.420   2.558  18.599  0.00  0.00    +0.000 A 
ATOM     26  C   UNL     1       3.947   1.335  17.910  0.00  0.00    +0.000 C 
ENDBRANCH  17  18
ENDBRANCH  16  17
ENDBRANCH   4  16
TORSDOF 8
ENDMDL
