MODEL 1
REMARK VINA RESULT:      -7.9      0.000      0.000
REMARK  Name = 
REMARK  5 active torsions:
REMARK  status: ('A' for Active; 'I' for Inactive)
REMARK    1  A    between atoms: C_2  and  C_9
REMARK    2  A    between atoms: N_3  and  C_4
REMARK    3  A    between atoms: C_9  and  C_10
REMARK    4  A    between atoms: C_9  and  N_17
REMARK    5  A    between atoms: C_10  and  C_11
REMARK                            x       y       z     vdW  Elec       q    Type
REMARK                         _______ _______ _______ _____ _____    ______ ____
ROOT
ATOM      1  C   UNL     1       5.978   4.916  17.136  0.00  0.00    +0.000 C 
ENDROOT
BRANCH   1   2
ATOM      2  N   UNL     1       6.733   6.106  17.576  0.00  0.00    +0.000 N 
ATOM      3  C   UNL     1       6.661   7.382  17.077  0.00  0.00    +0.000 A 
ATOM      4  C   UNL     1       7.629   8.146  17.692  0.00  0.00    +0.000 A 
ATOM      5  C   UNL     1       8.298   7.317  18.619  0.00  0.00    +0.000 A 
ATOM      6  C   UNL     1       7.698   6.079  18.564  0.00  0.00    +0.000 A 
ENDBRANCH   1   2
BRANCH   1   8
ATOM      7  O   UNL     1       5.704   3.623  19.185  0.00  0.00    +0.000 OA
ATOM      8  C   UNL     1       5.160   4.228  18.259  0.00  0.00    +0.000 C 
ATOM      9  N   UNL     1       3.787   4.250  18.139  0.00  0.00    +0.000 N 
ATOM     10  H   UNL     1       3.380   4.975  17.576  0.00  0.00    +0.000 HD
BRANCH   9  11
ATOM     11  C   UNL     1       2.874   3.680  19.106  0.00  0.00    +0.000 C 
ATOM     12  C   UNL     1       2.037   4.742  19.814  0.00  0.00    +0.000 C 
ATOM     13  C   UNL     1       0.857   3.953  20.372  0.00  0.00    +0.000 C 
ATOM     14  C   UNL     1       0.657   2.772  19.422  0.00  0.00    +0.000 C 
ATOM     15  C   UNL     1       1.800   2.841  18.417  0.00  0.00    +0.000 C 
ENDBRANCH   9  11
ENDBRANCH   1   8
BRANCH   1  16
ATOM     16  C   UNL     1       5.253   5.131  15.773  0.00  0.00    +0.000 C 
BRANCH  16  17
ATOM     17  C   UNL     1       5.971   4.685  14.511  0.00  0.00    +0.000 A 
ATOM     18  C   UNL     1       7.204   5.226  14.135  0.00  0.00    +0.000 A 
ATOM     19  C   UNL     1       7.782   4.909  12.906  0.00  0.00    +0.000 A 
ATOM     20  C   UNL     1       7.144   4.025  12.043  0.00  0.00    +0.000 A 
ATOM     21  C   UNL     1       5.951   3.422  12.428  0.00  0.00    +0.000 A 
ATOM     22  C   UNL     1       5.381   3.727  13.666  0.00  0.00    +0.000 A 
ENDBRANCH  16  17
ENDBRANCH   1  16
TORSDOF 5
ENDMDL
MODEL 2
REMARK VINA RESULT:      -7.6      2.199      5.621
REMARK  Name = 
REMARK  5 active torsions:
REMARK  status: ('A' for Active; 'I' for Inactive)
REMARK    1  A    between atoms: C_2  and  C_9
REMARK    2  A    between atoms: N_3  and  C_4
REMARK    3  A    between atoms: C_9  and  C_10
REMARK    4  A    between atoms: C_9  and  N_17
REMARK    5  A    between atoms: C_10  and  C_11
REMARK                            x       y       z     vdW  Elec       q    Type
REMARK                         _______ _______ _______ _____ _____    ______ ____
ROOT
ATOM      1  C   UNL     1       5.030   4.076  17.778  0.00  0.00    +0.000 C 
ENDROOT
BRANCH   1   2
ATOM      2  N   UNL     1       5.639   4.309  16.453  0.00  0.00    +0.000 N 
ATOM      3  C   UNL     1       5.171   3.904  15.228  0.00  0.00    +0.000 A 
ATOM      4  C   UNL     1       6.115   4.221  14.275  0.00  0.00    +0.000 A 
ATOM      5  C   UNL     1       7.184   4.866  14.935  0.00  0.00    +0.000 A 
ATOM      6  C   UNL     1       6.847   4.951  16.268  0.00  0.00    +0.000 A 
ENDBRANCH   1   2
BRANCH   1   8
ATOM      7  O   UNL     1       5.259   5.691  19.591  0.00  0.00    +0.000 OA
ATOM      8  C   UNL     1       4.676   5.372  18.553  0.00  0.00    +0.000 C 
ATOM      9  N   UNL     1       3.620   6.119  18.078  0.00  0.00    +0.000 N 
ATOM     10  H   UNL     1       3.374   6.015  17.109  0.00  0.00    +0.000 HD
BRANCH   9  11
ATOM     11  C   UNL     1       3.172   7.364  18.663  0.00  0.00    +0.000 C 
ATOM     12  C   UNL     1       2.308   8.180  17.704  0.00  0.00    +0.000 C 
ATOM     13  C   UNL     1       1.560   9.138  18.626  0.00  0.00    +0.000 C 
ATOM     14  C   UNL     1       1.426   8.411  19.965  0.00  0.00    +0.000 C 
ATOM     15  C   UNL     1       2.207   7.110  19.818  0.00  0.00    +0.000 C 
ENDBRANCH   9  11
ENDBRANCH   1   8
BRANCH   1  16
ATOM     16  C   UNL     1       3.948   2.954  17.758  0.00  0.00    +0.000 C 
BRANCH  16  17
ATOM     17  C   UNL     1       2.984   2.880  18.929  0.00  0.00    +0.000 A 
ATOM     18  C   UNL     1       1.625   3.174  18.784  0.00  0.00    +0.000 A 
ATOM     19  C   UNL     1       0.783   3.237  19.893  0.00  0.00    +0.000 A 
ATOM     20  C   UNL     1       1.284   2.983  21.166  0.00  0.00    +0.000 A 
ATOM     21  C   UNL     1       2.617   2.620  21.323  0.00  0.00    +0.000 A 
ATOM     22  C   UNL     1       3.457   2.540  20.210  0.00  0.00    +0.000 A 
ENDBRANCH  16  17
ENDBRANCH   1  16
TORSDOF 5
ENDMDL
MODEL 3
REMARK VINA RESULT:      -7.6      0.118      1.057
REMARK  Name = 
REMARK  5 active torsions:
REMARK  status: ('A' for Active; 'I' for Inactive)
REMARK    1  A    between atoms: C_2  and  C_9
REMARK    2  A    between atoms: N_3  and  C_4
REMARK    3  A    between atoms: C_9  and  C_10
REMARK    4  A    between atoms: C_9  and  N_17
REMARK    5  A    between atoms: C_10  and  C_11
REMARK                            x       y       z     vdW  Elec       q    Type
REMARK                         _______ _______ _______ _____ _____    ______ ____
ROOT
ATOM      1  C   UNL     1       5.926   4.924  17.094  0.00  0.00    +0.000 C 
ENDROOT
BRANCH   1   2
ATOM      2  N   UNL     1       6.714   6.084  17.556  0.00  0.00    +0.000 N 
ATOM      3  C   UNL     1       6.687   7.368  17.071  0.00  0.00    +0.000 A 
ATOM      4  C   UNL     1       7.672   8.093  17.705  0.00  0.00    +0.000 A 
ATOM      5  C   UNL     1       8.306   7.233  18.628  0.00  0.00    +0.000 A 
ATOM      6  C   UNL     1       7.667   6.015  18.553  0.00  0.00    +0.000 A 
ENDBRANCH   1   2
BRANCH   1   8
ATOM      7  O   UNL     1       5.708   3.575  19.114  0.00  0.00    +0.000 OA
ATOM      8  C   UNL     1       5.139   4.200  18.217  0.00  0.00    +0.000 C 
ATOM      9  N   UNL     1       3.764   4.214  18.128  0.00  0.00    +0.000 N 
ATOM     10  H   UNL     1       3.338   4.950  17.593  0.00  0.00    +0.000 HD
BRANCH   9  11
ATOM     11  C   UNL     1       2.877   3.611  19.099  0.00  0.00    +0.000 C 
ATOM     12  C   UNL     1       2.090   4.650  19.894  0.00  0.00    +0.000 C 
ATOM     13  C   UNL     1       0.917   3.854  20.457  0.00  0.00    +0.000 C 
ATOM     14  C   UNL     1       0.656   2.729  19.456  0.00  0.00    +0.000 C 
ATOM     15  C   UNL     1       1.761   2.829  18.411  0.00  0.00    +0.000 C 
ENDBRANCH   9  11
ENDBRANCH   1   8
BRANCH   1  16
ATOM     16  C   UNL     1       5.156   5.206  15.768  0.00  0.00    +0.000 C 
BRANCH  16  17
ATOM     17  C   UNL     1       5.814   4.788  14.465  0.00  0.00    +0.000 A 
ATOM     18  C   UNL     1       5.217   3.865  13.601  0.00  0.00    +0.000 A 
ATOM     19  C   UNL     1       5.896   3.388  12.481  0.00  0.00    +0.000 A 
ATOM     20  C   UNL     1       7.177   3.846  12.194  0.00  0.00    +0.000 A 
ATOM     21  C   UNL     1       7.761   4.816  13.002  0.00  0.00    +0.000 A 
ATOM     22  C   UNL     1       7.074   5.306  14.114  0.00  0.00    +0.000 A 
ENDBRANCH  16  17
ENDBRANCH   1  16
TORSDOF 5
ENDMDL
MODEL 4
REMARK VINA RESULT:      -7.5      2.241      5.675
REMARK  Name = 
REMARK  5 active torsions:
REMARK  status: ('A' for Active; 'I' for Inactive)
REMARK    1  A    between atoms: C_2  and  C_9
REMARK    2  A    between atoms: N_3  and  C_4
REMARK    3  A    between atoms: C_9  and  C_10
REMARK    4  A    between atoms: C_9  and  N_17
REMARK    5  A    between atoms: C_10  and  C_11
REMARK                            x       y       z     vdW  Elec       q    Type
REMARK                         _______ _______ _______ _____ _____    ______ ____
ROOT
ATOM      1  C   UNL     1       5.109   4.061  17.909  0.00  0.00    +0.000 C 
ENDROOT
BRANCH   1   2
ATOM      2  N   UNL     1       5.711   4.202  16.569  0.00  0.00    +0.000 N 
ATOM      3  C   UNL     1       6.980   4.618  16.253  0.00  0.00    +0.000 A 
ATOM      4  C   UNL     1       7.075   4.724  14.882  0.00  0.00    +0.000 A 
ATOM      5  C   UNL     1       5.832   4.333  14.339  0.00  0.00    +0.000 A 
ATOM      6  C   UNL     1       5.023   3.971  15.393  0.00  0.00    +0.000 A 
ENDBRANCH   1   2
BRANCH   1   8
ATOM      7  O   UNL     1       5.378   5.807  19.591  0.00  0.00    +0.000 OA
ATOM      8  C   UNL     1       4.766   5.407  18.598  0.00  0.00    +0.000 C 
ATOM      9  N   UNL     1       3.688   6.109  18.104  0.00  0.00    +0.000 N 
ATOM     10  H   UNL     1       3.412   5.931  17.154  0.00  0.00    +0.000 HD
BRANCH   9  11
ATOM     11  C   UNL     1       3.244   7.389  18.610  0.00  0.00    +0.000 C 
ATOM     12  C   UNL     1       2.446   8.180  17.576  0.00  0.00    +0.000 C 
ATOM     13  C   UNL     1       1.681   9.196  18.418  0.00  0.00    +0.000 C 
ATOM     14  C   UNL     1       1.469   8.536  19.781  0.00  0.00    +0.000 C 
ATOM     15  C   UNL     1       2.222   7.212  19.730  0.00  0.00    +0.000 C 
ENDBRANCH   9  11
ENDBRANCH   1   8
BRANCH   1  16
ATOM     16  C   UNL     1       4.022   2.946  17.971  0.00  0.00    +0.000 C 
BRANCH  16  17
ATOM     17  C   UNL     1       3.043   2.975  19.132  0.00  0.00    +0.000 A 
ATOM     18  C   UNL     1       3.446   2.700  20.442  0.00  0.00    +0.000 A 
ATOM     19  C   UNL     1       2.513   2.594  21.472  0.00  0.00    +0.000 A 
ATOM     20  C   UNL     1       1.160   2.785  21.211  0.00  0.00    +0.000 A 
ATOM     21  C   UNL     1       0.746   3.128  19.928  0.00  0.00    +0.000 A 
ATOM     22  C   UNL     1       1.683   3.251  18.900  0.00  0.00    +0.000 A 
ENDBRANCH  16  17
ENDBRANCH   1  16
TORSDOF 5
ENDMDL
MODEL 5
REMARK VINA RESULT:      -7.4      0.708      1.372
REMARK  Name = 
REMARK  5 active torsions:
REMARK  status: ('A' for Active; 'I' for Inactive)
REMARK    1  A    between atoms: C_2  and  C_9
REMARK    2  A    between atoms: N_3  and  C_4
REMARK    3  A    between atoms: C_9  and  C_10
REMARK    4  A    between atoms: C_9  and  N_17
REMARK    5  A    between atoms: C_10  and  C_11
REMARK                            x       y       z     vdW  Elec       q    Type
REMARK                         _______ _______ _______ _____ _____    ______ ____
ROOT
ATOM      1  C   UNL     1       5.595   4.645  16.865  0.00  0.00    +0.000 C 
ENDROOT
BRANCH   1   2
ATOM      2  N   UNL     1       6.606   5.490  17.530  0.00  0.00    +0.000 N 
ATOM      3  C   UNL     1       7.334   5.204  18.657  0.00  0.00    +0.000 A 
ATOM      4  C   UNL     1       8.063   6.321  19.001  0.00  0.00    +0.000 A 
ATOM      5  C   UNL     1       7.794   7.316  18.035  0.00  0.00    +0.000 A 
ATOM      6  C   UNL     1       6.932   6.766  17.113  0.00  0.00    +0.000 A 
ENDBRANCH   1   2
BRANCH   1   8
ATOM      7  O   UNL     1       4.493   3.082  18.380  0.00  0.00    +0.000 OA
ATOM      8  C   UNL     1       4.450   4.168  17.796  0.00  0.00    +0.000 C 
ATOM      9  N   UNL     1       3.336   4.973  17.885  0.00  0.00    +0.000 N 
ATOM     10  H   UNL     1       3.444   5.946  17.660  0.00  0.00    +0.000 HD
BRANCH   9  11
ATOM     11  C   UNL     1       2.190   4.693  18.723  0.00  0.00    +0.000 C 
ATOM     12  C   UNL     1       1.621   3.296  18.484  0.00  0.00    +0.000 C 
ATOM     13  C   UNL     1       0.804   3.024  19.743  0.00  0.00    +0.000 C 
ATOM     14  C   UNL     1       1.481   3.819  20.861  0.00  0.00    +0.000 C 
ATOM     15  C   UNL     1       2.590   4.623  20.194  0.00  0.00    +0.000 C 
ENDBRANCH   9  11
ENDBRANCH   1   8
BRANCH   1  16
ATOM     16  C   UNL     1       5.177   5.190  15.465  0.00  0.00    +0.000 C 
BRANCH  16  17
ATOM     17  C   UNL     1       5.922   4.665  14.250  0.00  0.00    +0.000 A 
ATOM     18  C   UNL     1       7.172   5.167  13.880  0.00  0.00    +0.000 A 
ATOM     19  C   UNL     1       7.778   4.775  12.687  0.00  0.00    +0.000 A 
ATOM     20  C   UNL     1       7.150   3.854  11.855  0.00  0.00    +0.000 A 
ATOM     21  C   UNL     1       5.938   3.290  12.240  0.00  0.00    +0.000 A 
ATOM     22  C   UNL     1       5.340   3.670  13.443  0.00  0.00    +0.000 A 
ENDBRANCH  16  17
ENDBRANCH   1  16
TORSDOF 5
ENDMDL
MODEL 6
REMARK VINA RESULT:      -7.4      1.100      1.400
REMARK  Name = 
REMARK  5 active torsions:
REMARK  status: ('A' for Active; 'I' for Inactive)
REMARK    1  A    between atoms: C_2  and  C_9
REMARK    2  A    between atoms: N_3  and  C_4
REMARK    3  A    between atoms: C_9  and  C_10
REMARK    4  A    between atoms: C_9  and  N_17
REMARK    5  A    between atoms: C_10  and  C_11
REMARK                            x       y       z     vdW  Elec       q    Type
REMARK                         _______ _______ _______ _____ _____    ______ ____
ROOT
ATOM      1  C   UNL     1       5.544   4.660  16.768  0.00  0.00    +0.000 C 
ENDROOT
BRANCH   1   2
ATOM      2  N   UNL     1       6.570   5.384  17.544  0.00  0.00    +0.000 N 
ATOM      3  C   UNL     1       7.157   5.004  18.725  0.00  0.00    +0.000 A 
ATOM      4  C   UNL     1       7.961   6.034  19.163  0.00  0.00    +0.000 A 
ATOM      5  C   UNL     1       7.885   7.068  18.204  0.00  0.00    +0.000 A 
ATOM      6  C   UNL     1       7.061   6.627  17.194  0.00  0.00    +0.000 A 
ENDBRANCH   1   2
BRANCH   1   8
ATOM      7  O   UNL     1       3.439   5.029  17.943  0.00  0.00    +0.000 OA
ATOM      8  C   UNL     1       4.307   4.225  17.595  0.00  0.00    +0.000 C 
ATOM      9  N   UNL     1       4.253   2.909  17.999  0.00  0.00    +0.000 N 
ATOM     10  H   UNL     1       4.781   2.237  17.472  0.00  0.00    +0.000 HD
BRANCH   9  11
ATOM     11  C   UNL     1       3.163   2.330  18.754  0.00  0.00    +0.000 C 
ATOM     12  C   UNL     1       3.009   2.964  20.135  0.00  0.00    +0.000 C 
ATOM     13  C   UNL     1       1.583   2.602  20.536  0.00  0.00    +0.000 C 
ATOM     14  C   UNL     1       0.798   2.481  19.229  0.00  0.00    +0.000 C 
ATOM     15  C   UNL     1       1.818   2.651  18.109  0.00  0.00    +0.000 C 
ENDBRANCH   9  11
ENDBRANCH   1   8
BRANCH   1  16
ATOM     16  C   UNL     1       5.264   5.313  15.380  0.00  0.00    +0.000 C 
BRANCH  16  17
ATOM     17  C   UNL     1       5.927   4.696  14.161  0.00  0.00    +0.000 A 
ATOM     18  C   UNL     1       7.177   5.124  13.707  0.00  0.00    +0.000 A 
ATOM     19  C   UNL     1       7.708   4.647  12.509  0.00  0.00    +0.000 A 
ATOM     20  C   UNL     1       7.003   3.714  11.757  0.00  0.00    +0.000 A 
ATOM     21  C   UNL     1       5.789   3.223  12.226  0.00  0.00    +0.000 A 
ATOM     22  C   UNL     1       5.266   3.688  13.434  0.00  0.00    +0.000 A 
ENDBRANCH  16  17
ENDBRANCH   1  16
TORSDOF 5
ENDMDL
MODEL 7
REMARK VINA RESULT:      -7.3      2.336      6.214
REMARK  Name = 
REMARK  5 active torsions:
REMARK  status: ('A' for Active; 'I' for Inactive)
REMARK    1  A    between atoms: C_2  and  C_9
REMARK    2  A    between atoms: N_3  and  C_4
REMARK    3  A    between atoms: C_9  and  C_10
REMARK    4  A    between atoms: C_9  and  N_17
REMARK    5  A    between atoms: C_10  and  C_11
REMARK                            x       y       z     vdW  Elec       q    Type
REMARK                         _______ _______ _______ _____ _____    ______ ____
ROOT
ATOM      1  C   UNL     1       4.841   5.805  17.110  0.00  0.00    +0.000 C 
ENDROOT
BRANCH   1   2
ATOM      2  N   UNL     1       6.082   6.288  17.747  0.00  0.00    +0.000 N 
ATOM      3  C   UNL     1       6.825   7.393  17.414  0.00  0.00    +0.000 A 
ATOM      4  C   UNL     1       7.969   7.396  18.182  0.00  0.00    +0.000 A 
ATOM      5  C   UNL     1       7.912   6.271  19.033  0.00  0.00    +0.000 A 
ATOM      6  C   UNL     1       6.719   5.630  18.781  0.00  0.00    +0.000 A 
ENDBRANCH   1   2
BRANCH   1   8
ATOM      7  O   UNL     1       4.605   3.499  16.349  0.00  0.00    +0.000 OA
ATOM      8  C   UNL     1       5.048   4.627  16.122  0.00  0.00    +0.000 C 
ATOM      9  N   UNL     1       5.822   4.871  15.008  0.00  0.00    +0.000 N 
ATOM     10  H   UNL     1       5.908   5.823  14.700  0.00  0.00    +0.000 HD
BRANCH   9  11
ATOM     11  C   UNL     1       6.096   3.897  13.975  0.00  0.00    +0.000 C 
ATOM     12  C   UNL     1       4.913   3.701  13.030  0.00  0.00    +0.000 C 
ATOM     13  C   UNL     1       5.545   3.068  11.795  0.00  0.00    +0.000 C 
ATOM     14  C   UNL     1       6.984   3.584  11.750  0.00  0.00    +0.000 C 
ATOM     15  C   UNL     1       7.180   4.397  13.024  0.00  0.00    +0.000 C 
ENDBRANCH   9  11
ENDBRANCH   1   8
BRANCH   1  16
ATOM     16  C   UNL     1       3.657   5.674  18.116  0.00  0.00    +0.000 C 
BRANCH  16  17
ATOM     17  C   UNL     1       2.929   6.945  18.521  0.00  0.00    +0.000 A 
ATOM     18  C   UNL     1       2.334   7.083  19.778  0.00  0.00    +0.000 A 
ATOM     19  C   UNL     1       1.552   8.196  20.083  0.00  0.00    +0.000 A 
ATOM     20  C   UNL     1       1.374   9.203  19.140  0.00  0.00    +0.000 A 
ATOM     21  C   UNL     1       2.016   9.117  17.908  0.00  0.00    +0.000 A 
ATOM     22  C   UNL     1       2.812   8.010  17.610  0.00  0.00    +0.000 A 
ENDBRANCH  16  17
ENDBRANCH   1  16
TORSDOF 5
ENDMDL
MODEL 8
REMARK VINA RESULT:      -7.3      2.769      7.328
REMARK  Name = 
REMARK  5 active torsions:
REMARK  status: ('A' for Active; 'I' for Inactive)
REMARK    1  A    between atoms: C_2  and  C_9
REMARK    2  A    between atoms: N_3  and  C_4
REMARK    3  A    between atoms: C_9  and  C_10
REMARK    4  A    between atoms: C_9  and  N_17
REMARK    5  A    between atoms: C_10  and  C_11
REMARK                            x       y       z     vdW  Elec       q    Type
REMARK                         _______ _______ _______ _____ _____    ______ ____
ROOT
ATOM      1  C   UNL     1       3.201   5.763  19.246  0.00  0.00    +0.000 C 
ENDROOT
BRANCH   1   2
ATOM      2  N   UNL     1       2.309   4.739  19.825  0.00  0.00    +0.000 N 
ATOM      3  C   UNL     1       2.252   4.310  21.127  0.00  0.00    +0.000 A 
ATOM      4  C   UNL     1       1.369   3.254  21.199  0.00  0.00    +0.000 A 
ATOM      5  C   UNL     1       0.848   3.047  19.903  0.00  0.00    +0.000 A 
ATOM      6  C   UNL     1       1.405   4.004  19.084  0.00  0.00    +0.000 A 
ENDBRANCH   1   2
BRANCH   1   8
ATOM      7  O   UNL     1       5.494   4.932  19.257  0.00  0.00    +0.000 OA
ATOM      8  C   UNL     1       4.487   5.194  18.594  0.00  0.00    +0.000 C 
ATOM      9  N   UNL     1       4.492   5.065  17.222  0.00  0.00    +0.000 N 
ATOM     10  H   UNL     1       3.605   4.994  16.757  0.00  0.00    +0.000 HD
BRANCH   9  11
ATOM     11  C   UNL     1       5.597   4.531  16.456  0.00  0.00    +0.000 C 
ATOM     12  C   UNL     1       5.163   4.030  15.080  0.00  0.00    +0.000 C 
ATOM     13  C   UNL     1       6.465   3.991  14.288  0.00  0.00    +0.000 C 
ATOM     14  C   UNL     1       7.355   5.079  14.892  0.00  0.00    +0.000 C 
ATOM     15  C   UNL     1       6.593   5.628  16.092  0.00  0.00    +0.000 C 
ENDBRANCH   9  11
ENDBRANCH   1   8
BRANCH   1  16
ATOM     16  C   UNL     1       2.429   6.850  18.438  0.00  0.00    +0.000 C 
BRANCH  16  17
ATOM     17  C   UNL     1       1.877   8.042  19.202  0.00  0.00    +0.000 A 
ATOM     18  C   UNL     1       1.629   7.984  20.577  0.00  0.00    +0.000 A 
ATOM     19  C   UNL     1       0.994   9.035  21.236  0.00  0.00    +0.000 A 
ATOM     20  C   UNL     1       0.618  10.174  20.532  0.00  0.00    +0.000 A 
ATOM     21  C   UNL     1       0.919  10.280  19.178  0.00  0.00    +0.000 A 
ATOM     22  C   UNL     1       1.570   9.234  18.522  0.00  0.00    +0.000 A 
ENDBRANCH  16  17
ENDBRANCH   1  16
TORSDOF 5
ENDMDL
MODEL 9
REMARK VINA RESULT:      -7.3      1.565      5.688
REMARK  Name = 
REMARK  5 active torsions:
REMARK  status: ('A' for Active; 'I' for Inactive)
REMARK    1  A    between atoms: C_2  and  C_9
REMARK    2  A    between atoms: N_3  and  C_4
REMARK    3  A    between atoms: C_9  and  C_10
REMARK    4  A    between atoms: C_9  and  N_17
REMARK    5  A    between atoms: C_10  and  C_11
REMARK                            x       y       z     vdW  Elec       q    Type
REMARK                         _______ _______ _______ _____ _____    ______ ____
ROOT
ATOM      1  C   UNL     1       6.257   5.754  17.484  0.00  0.00    +0.000 C 
ENDROOT
BRANCH   1   2
ATOM      2  N   UNL     1       7.166   6.870  17.813  0.00  0.00    +0.000 N 
ATOM      3  C   UNL     1       8.129   6.912  18.790  0.00  0.00    +0.000 A 
ATOM      4  C   UNL     1       8.652   8.186  18.833  0.00  0.00    +0.000 A 
ATOM      5  C   UNL     1       8.007   8.942  17.829  0.00  0.00    +0.000 A 
ATOM      6  C   UNL     1       7.131   8.098  17.183  0.00  0.00    +0.000 A 
ENDBRANCH   1   2
BRANCH   1   8
ATOM      7  O   UNL     1       7.856   4.241  16.433  0.00  0.00    +0.000 OA
ATOM      8  C   UNL     1       6.772   4.824  16.355  0.00  0.00    +0.000 C 
ATOM      9  N   UNL     1       6.002   4.734  15.216  0.00  0.00    +0.000 N 
ATOM     10  H   UNL     1       5.026   4.957  15.294  0.00  0.00    +0.000 HD
BRANCH   9  11
ATOM     11  C   UNL     1       6.319   3.896  14.080  0.00  0.00    +0.000 C 
ATOM     12  C   UNL     1       5.097   3.600  13.215  0.00  0.00    +0.000 C 
ATOM     13  C   UNL     1       5.700   3.170  11.881  0.00  0.00    +0.000 C 
ATOM     14  C   UNL     1       7.040   3.898  11.773  0.00  0.00    +0.000 C 
ATOM     15  C   UNL     1       7.231   4.628  13.098  0.00  0.00    +0.000 C 
ENDBRANCH   9  11
ENDBRANCH   1   8
BRANCH   1  16
ATOM     16  C   UNL     1       5.669   5.060  18.750  0.00  0.00    +0.000 C 
BRANCH  16  17
ATOM     17  C   UNL     1       4.253   4.517  18.666  0.00  0.00    +0.000 A 
ATOM     18  C   UNL     1       3.920   3.250  19.154  0.00  0.00    +0.000 A 
ATOM     19  C   UNL     1       2.652   2.711  18.943  0.00  0.00    +0.000 A 
ATOM     20  C   UNL     1       1.687   3.443  18.260  0.00  0.00    +0.000 A 
ATOM     21  C   UNL     1       1.976   4.733  17.829  0.00  0.00    +0.000 A 
ATOM     22  C   UNL     1       3.241   5.279  18.054  0.00  0.00    +0.000 A 
ENDBRANCH  16  17
ENDBRANCH   1  16
TORSDOF 5
ENDMDL
