MODEL 1
REMARK VINA RESULT:      -7.6      0.000      0.000
REMARK  Name = 
REMARK  3 active torsions:
REMARK  status: ('A' for Active; 'I' for Inactive)
REMARK    1  A    between atoms: C_2  and  C_3
REMARK    2  A    between atoms: C_2  and  C_13
REMARK    3  A    between atoms: C_3  and  C_4
REMARK                            x       y       z     vdW  Elec       q    Type
REMARK                         _______ _______ _______ _____ _____    ______ ____
ROOT
ATOM      1  C   UNL     1       6.520   6.194  17.384  0.00  0.00    +0.000 C 
ENDROOT
BRANCH   1   2
ATOM      2  C   UNL     1       6.545   5.533  16.054  0.00  0.00    +0.000 A 
ATOM      3  N   UNL     1       7.498   5.668  15.151  0.00  0.00    +0.000 NA
ATOM      4  C   UNL     1       7.087   4.941  14.065  0.00  0.00    +0.000 A 
ATOM      5  C   UNL     1       7.707   4.764  12.820  0.00  0.00    +0.000 A 
ATOM      6  C   UNL     1       7.071   3.964  11.863  0.00  0.00    +0.000 A 
ATOM      7  C   UNL     1       5.843   3.359  12.138  0.00  0.00    +0.000 A 
ATOM      8  C   UNL     1       5.207   3.530  13.375  0.00  0.00    +0.000 A 
ATOM      9  C   UNL     1       5.862   4.331  14.312  0.00  0.00    +0.000 A 
ATOM     10  N   UNL     1       5.543   4.713  15.593  0.00  0.00    +0.000 N 
ATOM     11  H   UNL     1       4.703   4.463  16.094  0.00  0.00    +0.000 HD
ENDBRANCH   1   2
BRANCH   1  13
ATOM     12  O   UNL     1       7.541   4.706  18.946  0.00  0.00    +0.000 OA
ATOM     13  C   UNL     1       6.491   5.177  18.508  0.00  0.00    +0.000 C 
BRANCH  13  14
ATOM     14  C   UNL     1       5.187   4.728  19.102  0.00  0.00    +0.000 A 
ATOM     15  C   UNL     1       4.972   3.351  19.268  0.00  0.00    +0.000 A 
ATOM     16  C   UNL     1       3.758   2.875  19.774  0.00  0.00    +0.000 A 
ATOM     17  C   UNL     1       2.747   3.774  20.103  0.00  0.00    +0.000 A 
ATOM     18 BR   UNL     1       1.094   3.139  20.761  0.00  0.00    +0.000 Br
ATOM     19  C   UNL     1       2.948   5.143  19.951  0.00  0.00    +0.000 A 
ATOM     20  C   UNL     1       4.171   5.619  19.468  0.00  0.00    +0.000 A 
ENDBRANCH  13  14
ENDBRANCH   1  13
TORSDOF 3
ENDMDL
MODEL 2
REMARK VINA RESULT:      -7.6      1.116      1.143
REMARK  Name = 
REMARK  3 active torsions:
REMARK  status: ('A' for Active; 'I' for Inactive)
REMARK    1  A    between atoms: C_2  and  C_3
REMARK    2  A    between atoms: C_2  and  C_13
REMARK    3  A    between atoms: C_3  and  C_4
REMARK                            x       y       z     vdW  Elec       q    Type
REMARK                         _______ _______ _______ _____ _____    ______ ____
ROOT
ATOM      1  C   UNL     1       6.647   5.472  17.560  0.00  0.00    +0.000 C 
ENDROOT
BRANCH   1   2
ATOM      2  C   UNL     1       6.756   5.087  16.130  0.00  0.00    +0.000 A 
ATOM      3  N   UNL     1       7.578   5.629  15.252  0.00  0.00    +0.000 NA
ATOM      4  C   UNL     1       7.300   5.021  14.056  0.00  0.00    +0.000 A 
ATOM      5  C   UNL     1       7.861   5.239  12.789  0.00  0.00    +0.000 A 
ATOM      6  C   UNL     1       7.394   4.478  11.711  0.00  0.00    +0.000 A 
ATOM      7  C   UNL     1       6.389   3.526  11.889  0.00  0.00    +0.000 A 
ATOM      8  C   UNL     1       5.814   3.300  13.146  0.00  0.00    +0.000 A 
ATOM      9  C   UNL     1       6.297   4.070  14.206  0.00  0.00    +0.000 A 
ATOM     10  N   UNL     1       5.975   4.122  15.540  0.00  0.00    +0.000 N 
ATOM     11  H   UNL     1       5.264   3.570  16.000  0.00  0.00    +0.000 HD
ENDBRANCH   1   2
BRANCH   1  13
ATOM     12  O   UNL     1       4.867   7.052  17.389  0.00  0.00    +0.000 OA
ATOM     13  C   UNL     1       5.265   5.999  17.889  0.00  0.00    +0.000 C 
BRANCH  13  14
ATOM     14  C   UNL     1       4.362   5.252  18.827  0.00  0.00    +0.000 A 
ATOM     15  C   UNL     1       4.610   3.887  19.041  0.00  0.00    +0.000 A 
ATOM     16  C   UNL     1       3.772   3.131  19.869  0.00  0.00    +0.000 A 
ATOM     17  C   UNL     1       2.675   3.736  20.477  0.00  0.00    +0.000 A 
ATOM     18 BR   UNL     1       1.523   2.717  21.575  0.00  0.00    +0.000 Br
ATOM     19  C   UNL     1       2.422   5.090  20.281  0.00  0.00    +0.000 A 
ATOM     20  C   UNL     1       3.273   5.850  19.473  0.00  0.00    +0.000 A 
ENDBRANCH  13  14
ENDBRANCH   1  13
TORSDOF 3
ENDMDL
MODEL 3
REMARK VINA RESULT:      -7.5      0.132      1.338
REMARK  Name = 
REMARK  3 active torsions:
REMARK  status: ('A' for Active; 'I' for Inactive)
REMARK    1  A    between atoms: C_2  and  C_3
REMARK    2  A    between atoms: C_2  and  C_13
REMARK    3  A    between atoms: C_3  and  C_4
REMARK                            x       y       z     vdW  Elec       q    Type
REMARK                         _______ _______ _______ _____ _____    ______ ____
ROOT
ATOM      1  C   UNL     1       6.489   6.128  17.302  0.00  0.00    +0.000 C 
ENDROOT
BRANCH   1   2
ATOM      2  C   UNL     1       6.423   5.516  15.951  0.00  0.00    +0.000 A 
ATOM      3  N   UNL     1       5.430   4.777  15.493  0.00  0.00    +0.000 NA
ATOM      4  C   UNL     1       5.812   4.375  14.240  0.00  0.00    +0.000 A 
ATOM      5  C   UNL     1       5.143   3.552  13.322  0.00  0.00    +0.000 A 
ATOM      6  C   UNL     1       5.757   3.285  12.093  0.00  0.00    +0.000 A 
ATOM      7  C   UNL     1       7.009   3.822  11.787  0.00  0.00    +0.000 A 
ATOM      8  C   UNL     1       7.693   4.641  12.695  0.00  0.00    +0.000 A 
ATOM      9  C   UNL     1       7.060   4.893  13.913  0.00  0.00    +0.000 A 
ATOM     10  N   UNL     1       7.424   5.628  15.015  0.00  0.00    +0.000 N 
ATOM     11  H   UNL     1       8.291   6.134  15.131  0.00  0.00    +0.000 HD
ENDBRANCH   1   2
BRANCH   1  13
ATOM     12  O   UNL     1       7.511   4.541  18.764  0.00  0.00    +0.000 OA
ATOM     13  C   UNL     1       6.464   5.073  18.391  0.00  0.00    +0.000 C 
BRANCH  13  14
ATOM     14  C   UNL     1       5.170   4.660  19.029  0.00  0.00    +0.000 A 
ATOM     15  C   UNL     1       4.920   3.289  19.198  0.00  0.00    +0.000 A 
ATOM     16  C   UNL     1       3.711   2.847  19.745  0.00  0.00    +0.000 A 
ATOM     17  C   UNL     1       2.739   3.774  20.113  0.00  0.00    +0.000 A 
ATOM     18 BR   UNL     1       1.092   3.184  20.826  0.00  0.00    +0.000 Br
ATOM     19  C   UNL     1       2.975   5.137  19.958  0.00  0.00    +0.000 A 
ATOM     20  C   UNL     1       4.194   5.579  19.434  0.00  0.00    +0.000 A 
ENDBRANCH  13  14
ENDBRANCH   1  13
TORSDOF 3
ENDMDL
MODEL 4
REMARK VINA RESULT:      -7.5      2.980      6.385
REMARK  Name = 
REMARK  3 active torsions:
REMARK  status: ('A' for Active; 'I' for Inactive)
REMARK    1  A    between atoms: C_2  and  C_3
REMARK    2  A    between atoms: C_2  and  C_13
REMARK    3  A    between atoms: C_3  and  C_4
REMARK                            x       y       z     vdW  Elec       q    Type
REMARK                         _______ _______ _______ _____ _____    ______ ____
ROOT
ATOM      1  C   UNL     1       6.633   5.397  18.888  0.00  0.00    +0.000 C 
ENDROOT
BRANCH   1   2
ATOM      2  C   UNL     1       5.308   4.874  19.309  0.00  0.00    +0.000 A 
ATOM      3  N   UNL     1       4.978   3.599  19.384  0.00  0.00    +0.000 NA
ATOM      4  C   UNL     1       3.658   3.577  19.749  0.00  0.00    +0.000 A 
ATOM      5  C   UNL     1       2.802   2.483  19.945  0.00  0.00    +0.000 A 
ATOM      6  C   UNL     1       1.475   2.730  20.318  0.00  0.00    +0.000 A 
ATOM      7  C   UNL     1       1.011   4.036  20.487  0.00  0.00    +0.000 A 
ATOM      8  C   UNL     1       1.851   5.140  20.290  0.00  0.00    +0.000 A 
ATOM      9  C   UNL     1       3.170   4.867  19.920  0.00  0.00    +0.000 A 
ATOM     10  N   UNL     1       4.245   5.677  19.646  0.00  0.00    +0.000 N 
ATOM     11  H   UNL     1       4.244   6.688  19.657  0.00  0.00    +0.000 HD
ENDBRANCH   1   2
BRANCH   1  13
ATOM     12  O   UNL     1       6.639   7.352  17.519  0.00  0.00    +0.000 OA
ATOM     13  C   UNL     1       6.546   6.124  17.561  0.00  0.00    +0.000 C 
BRANCH  13  14
ATOM     14  C   UNL     1       6.346   5.365  16.282  0.00  0.00    +0.000 A 
ATOM     15  C   UNL     1       7.425   5.272  15.388  0.00  0.00    +0.000 A 
ATOM     16  C   UNL     1       7.280   4.616  14.161  0.00  0.00    +0.000 A 
ATOM     17  C   UNL     1       6.050   4.060  13.817  0.00  0.00    +0.000 A 
ATOM     18 BR   UNL     1       5.837   3.195  12.151  0.00  0.00    +0.000 Br
ATOM     19  C   UNL     1       4.974   4.136  14.696  0.00  0.00    +0.000 A 
ATOM     20  C   UNL     1       5.127   4.772  15.932  0.00  0.00    +0.000 A 
ENDBRANCH  13  14
ENDBRANCH   1  13
TORSDOF 3
ENDMDL
MODEL 5
REMARK VINA RESULT:      -7.5      2.929      5.827
REMARK  Name = 
REMARK  3 active torsions:
REMARK  status: ('A' for Active; 'I' for Inactive)
REMARK    1  A    between atoms: C_2  and  C_3
REMARK    2  A    between atoms: C_2  and  C_13
REMARK    3  A    between atoms: C_3  and  C_4
REMARK                            x       y       z     vdW  Elec       q    Type
REMARK                         _______ _______ _______ _____ _____    ______ ____
ROOT
ATOM      1  C   UNL     1       6.745   5.535  19.470  0.00  0.00    +0.000 C 
ENDROOT
BRANCH   1   2
ATOM      2  C   UNL     1       5.427   4.858  19.385  0.00  0.00    +0.000 A 
ATOM      3  N   UNL     1       4.254   5.446  19.530  0.00  0.00    +0.000 NA
ATOM      4  C   UNL     1       3.322   4.446  19.437  0.00  0.00    +0.000 A 
ATOM      5  C   UNL     1       1.926   4.512  19.547  0.00  0.00    +0.000 A 
ATOM      6  C   UNL     1       1.188   3.329  19.417  0.00  0.00    +0.000 A 
ATOM      7  C   UNL     1       1.826   2.110  19.186  0.00  0.00    +0.000 A 
ATOM      8  C   UNL     1       3.221   2.026  19.079  0.00  0.00    +0.000 A 
ATOM      9  C   UNL     1       3.934   3.218  19.212  0.00  0.00    +0.000 A 
ATOM     10  N   UNL     1       5.276   3.509  19.170  0.00  0.00    +0.000 N 
ATOM     11  H   UNL     1       6.023   2.842  19.038  0.00  0.00    +0.000 HD
ENDBRANCH   1   2
BRANCH   1  13
ATOM     12  O   UNL     1       7.861   7.157  18.120  0.00  0.00    +0.000 OA
ATOM     13  C   UNL     1       7.133   6.163  18.146  0.00  0.00    +0.000 C 
BRANCH  13  14
ATOM     14  C   UNL     1       6.638   5.590  16.851  0.00  0.00    +0.000 A 
ATOM     15  C   UNL     1       7.244   4.420  16.367  0.00  0.00    +0.000 A 
ATOM     16  C   UNL     1       6.854   3.869  15.142  0.00  0.00    +0.000 A 
ATOM     17  C   UNL     1       5.863   4.493  14.388  0.00  0.00    +0.000 A 
ATOM     18 BR   UNL     1       5.347   3.770  12.721  0.00  0.00    +0.000 Br
ATOM     19  C   UNL     1       5.246   5.648  14.859  0.00  0.00    +0.000 A 
ATOM     20  C   UNL     1       5.621   6.185  16.095  0.00  0.00    +0.000 A 
ENDBRANCH  13  14
ENDBRANCH   1  13
TORSDOF 3
ENDMDL
MODEL 6
REMARK VINA RESULT:      -7.5      2.914      5.952
REMARK  Name = 
REMARK  3 active torsions:
REMARK  status: ('A' for Active; 'I' for Inactive)
REMARK    1  A    between atoms: C_2  and  C_3
REMARK    2  A    between atoms: C_2  and  C_13
REMARK    3  A    between atoms: C_3  and  C_4
REMARK                            x       y       z     vdW  Elec       q    Type
REMARK                         _______ _______ _______ _____ _____    ______ ____
ROOT
ATOM      1  C   UNL     1       6.808   5.502  19.368  0.00  0.00    +0.000 C 
ENDROOT
BRANCH   1   2
ATOM      2  C   UNL     1       5.474   4.850  19.341  0.00  0.00    +0.000 A 
ATOM      3  N   UNL     1       4.319   5.463  19.517  0.00  0.00    +0.000 NA
ATOM      4  C   UNL     1       3.366   4.481  19.476  0.00  0.00    +0.000 A 
ATOM      5  C   UNL     1       1.975   4.576  19.634  0.00  0.00    +0.000 A 
ATOM      6  C   UNL     1       1.211   3.406  19.551  0.00  0.00    +0.000 A 
ATOM      7  C   UNL     1       1.817   2.170  19.319  0.00  0.00    +0.000 A 
ATOM      8  C   UNL     1       3.205   2.056  19.165  0.00  0.00    +0.000 A 
ATOM      9  C   UNL     1       3.945   3.237  19.251  0.00  0.00    +0.000 A 
ATOM     10  N   UNL     1       5.290   3.500  19.156  0.00  0.00    +0.000 N 
ATOM     11  H   UNL     1       6.019   2.816  19.009  0.00  0.00    +0.000 HD
ENDBRANCH   1   2
BRANCH   1  13
ATOM     12  O   UNL     1       7.684   7.298  18.062  0.00  0.00    +0.000 OA
ATOM     13  C   UNL     1       7.105   6.210  18.061  0.00  0.00    +0.000 C 
BRANCH  13  14
ATOM     14  C   UNL     1       6.700   5.603  16.750  0.00  0.00    +0.000 A 
ATOM     15  C   UNL     1       5.666   6.216  16.025  0.00  0.00    +0.000 A 
ATOM     16  C   UNL     1       5.216   5.666  14.820  0.00  0.00    +0.000 A 
ATOM     17  C   UNL     1       5.791   4.492  14.340  0.00  0.00    +0.000 A 
ATOM     18 BR   UNL     1       5.172   3.727  12.727  0.00  0.00    +0.000 Br
ATOM     19  C   UNL     1       6.823   3.877  15.043  0.00  0.00    +0.000 A 
ATOM     20  C   UNL     1       7.287   4.441  16.235  0.00  0.00    +0.000 A 
ENDBRANCH  13  14
ENDBRANCH   1  13
TORSDOF 3
ENDMDL
MODEL 7
REMARK VINA RESULT:      -7.5      1.066      1.704
REMARK  Name = 
REMARK  3 active torsions:
REMARK  status: ('A' for Active; 'I' for Inactive)
REMARK    1  A    between atoms: C_2  and  C_3
REMARK    2  A    between atoms: C_2  and  C_13
REMARK    3  A    between atoms: C_3  and  C_4
REMARK                            x       y       z     vdW  Elec       q    Type
REMARK                         _______ _______ _______ _____ _____    ______ ____
ROOT
ATOM      1  C   UNL     1       6.670   5.367  17.569  0.00  0.00    +0.000 C 
ENDROOT
BRANCH   1   2
ATOM      2  C   UNL     1       6.659   5.027  16.123  0.00  0.00    +0.000 A 
ATOM      3  N   UNL     1       5.847   4.161  15.547  0.00  0.00    +0.000 NA
ATOM      4  C   UNL     1       6.225   4.114  14.231  0.00  0.00    +0.000 A 
ATOM      5  C   UNL     1       5.715   3.338  13.180  0.00  0.00    +0.000 A 
ATOM      6  C   UNL     1       6.286   3.474  11.910  0.00  0.00    +0.000 A 
ATOM      7  C   UNL     1       7.344   4.358  11.692  0.00  0.00    +0.000 A 
ATOM      8  C   UNL     1       7.870   5.137  12.731  0.00  0.00    +0.000 A 
ATOM      9  C   UNL     1       7.282   4.984  13.989  0.00  0.00    +0.000 A 
ATOM     10  N   UNL     1       7.533   5.564  15.208  0.00  0.00    +0.000 N 
ATOM     11  H   UNL     1       8.256   6.242  15.405  0.00  0.00    +0.000 HD
ENDBRANCH   1   2
BRANCH   1  13
ATOM     12  O   UNL     1       5.027   7.098  17.624  0.00  0.00    +0.000 OA
ATOM     13  C   UNL     1       5.350   5.972  18.005  0.00  0.00    +0.000 C 
BRANCH  13  14
ATOM     14  C   UNL     1       4.420   5.214  18.908  0.00  0.00    +0.000 A 
ATOM     15  C   UNL     1       4.662   3.847  19.113  0.00  0.00    +0.000 A 
ATOM     16  C   UNL     1       3.801   3.082  19.907  0.00  0.00    +0.000 A 
ATOM     17  C   UNL     1       2.686   3.679  20.489  0.00  0.00    +0.000 A 
ATOM     18 BR   UNL     1       1.502   2.649  21.541  0.00  0.00    +0.000 Br
ATOM     19  C   UNL     1       2.438   5.036  20.302  0.00  0.00    +0.000 A 
ATOM     20  C   UNL     1       3.312   5.805  19.527  0.00  0.00    +0.000 A 
ENDBRANCH  13  14
ENDBRANCH   1  13
TORSDOF 3
ENDMDL
MODEL 8
REMARK VINA RESULT:      -7.5      0.105      1.734
REMARK  Name = 
REMARK  3 active torsions:
REMARK  status: ('A' for Active; 'I' for Inactive)
REMARK    1  A    between atoms: C_2  and  C_3
REMARK    2  A    between atoms: C_2  and  C_13
REMARK    3  A    between atoms: C_3  and  C_4
REMARK                            x       y       z     vdW  Elec       q    Type
REMARK                         _______ _______ _______ _____ _____    ______ ____
ROOT
ATOM      1  C   UNL     1       6.582   6.206  17.418  0.00  0.00    +0.000 C 
ENDROOT
BRANCH   1   2
ATOM      2  C   UNL     1       6.494   5.586  16.071  0.00  0.00    +0.000 A 
ATOM      3  N   UNL     1       5.480   4.870  15.623  0.00  0.00    +0.000 NA
ATOM      4  C   UNL     1       5.845   4.449  14.372  0.00  0.00    +0.000 A 
ATOM      5  C   UNL     1       5.152   3.637  13.463  0.00  0.00    +0.000 A 
ATOM      6  C   UNL     1       5.752   3.346  12.232  0.00  0.00    +0.000 A 
ATOM      7  C   UNL     1       7.016   3.849  11.916  0.00  0.00    +0.000 A 
ATOM      8  C   UNL     1       7.725   4.657  12.815  0.00  0.00    +0.000 A 
ATOM      9  C   UNL     1       7.104   4.933  14.035  0.00  0.00    +0.000 A 
ATOM     10  N   UNL     1       7.492   5.666  15.130  0.00  0.00    +0.000 N 
ATOM     11  H   UNL     1       8.372   6.151  15.237  0.00  0.00    +0.000 HD
ENDBRANCH   1   2
BRANCH   1  13
ATOM     12  O   UNL     1       7.588   4.724  18.996  0.00  0.00    +0.000 OA
ATOM     13  C   UNL     1       6.541   5.159  18.514  0.00  0.00    +0.000 C 
BRANCH  13  14
ATOM     14  C   UNL     1       5.231   4.637  19.026  0.00  0.00    +0.000 A 
ATOM     15  C   UNL     1       4.251   5.565  19.415  0.00  0.00    +0.000 A 
ATOM     16  C   UNL     1       3.030   5.133  19.943  0.00  0.00    +0.000 A 
ATOM     17  C   UNL     1       2.787   3.771  20.097  0.00  0.00    +0.000 A 
ATOM     18 BR   UNL     1       1.151   3.180  20.834  0.00  0.00    +0.000 Br
ATOM     19  C   UNL     1       3.745   2.839  19.708  0.00  0.00    +0.000 A 
ATOM     20  C   UNL     1       4.956   3.270  19.159  0.00  0.00    +0.000 A 
ENDBRANCH  13  14
ENDBRANCH   1  13
TORSDOF 3
ENDMDL
MODEL 9
REMARK VINA RESULT:      -7.5      1.039      1.517
REMARK  Name = 
REMARK  3 active torsions:
REMARK  status: ('A' for Active; 'I' for Inactive)
REMARK    1  A    between atoms: C_2  and  C_3
REMARK    2  A    between atoms: C_2  and  C_13
REMARK    3  A    between atoms: C_3  and  C_4
REMARK                            x       y       z     vdW  Elec       q    Type
REMARK                         _______ _______ _______ _____ _____    ______ ____
ROOT
ATOM      1  C   UNL     1       6.822   5.150  17.603  0.00  0.00    +0.000 C 
ENDROOT
BRANCH   1   2
ATOM      2  C   UNL     1       6.855   4.847  16.150  0.00  0.00    +0.000 A 
ATOM      3  N   UNL     1       7.613   5.457  15.258  0.00  0.00    +0.000 NA
ATOM      4  C   UNL     1       7.280   4.909  14.048  0.00  0.00    +0.000 A 
ATOM      5  C   UNL     1       7.761   5.210  12.766  0.00  0.00    +0.000 A 
ATOM      6  C   UNL     1       7.249   4.499  11.674  0.00  0.00    +0.000 A 
ATOM      7  C   UNL     1       6.277   3.513  11.855  0.00  0.00    +0.000 A 
ATOM      8  C   UNL     1       5.780   3.204  13.128  0.00  0.00    +0.000 A 
ATOM      9  C   UNL     1       6.308   3.926  14.200  0.00  0.00    +0.000 A 
ATOM     10  N   UNL     1       6.063   3.897  15.552  0.00  0.00    +0.000 N 
ATOM     11  H   UNL     1       5.392   3.303  16.020  0.00  0.00    +0.000 HD
ENDBRANCH   1   2
BRANCH   1  13
ATOM     12  O   UNL     1       5.224   6.922  17.672  0.00  0.00    +0.000 OA
ATOM     13  C   UNL     1       5.500   5.770  18.010  0.00  0.00    +0.000 C 
BRANCH  13  14
ATOM     14  C   UNL     1       4.509   4.996  18.830  0.00  0.00    +0.000 A 
ATOM     15  C   UNL     1       3.461   5.699  19.445  0.00  0.00    +0.000 A 
ATOM     16  C   UNL     1       2.537   5.034  20.258  0.00  0.00    +0.000 A 
ATOM     17  C   UNL     1       2.664   3.663  20.470  0.00  0.00    +0.000 A 
ATOM     18 BR   UNL     1       1.437   2.761  21.587  0.00  0.00    +0.000 Br
ATOM     19  C   UNL     1       3.693   2.951  19.860  0.00  0.00    +0.000 A 
ATOM     20  C   UNL     1       4.603   3.613  19.028  0.00  0.00    +0.000 A 
ENDBRANCH  13  14
ENDBRANCH   1  13
TORSDOF 3
ENDMDL
