MODEL 1
REMARK VINA RESULT:      -8.2      0.000      0.000
REMARK  Name = 
REMARK  6 active torsions:
REMARK  status: ('A' for Active; 'I' for Inactive)
REMARK    1  A    between atoms: C_2  and  C_18
REMARK    2  A    between atoms: N_3  and  C_4
REMARK    3  A    between atoms: C_6  and  C_7
REMARK    4  A    between atoms: C_7  and  C_8
REMARK    5  A    between atoms: C_16  and  O_17
REMARK    6  A    between atoms: C_21  and  O_22
REMARK                            x       y       z     vdW  Elec       q    Type
REMARK                         _______ _______ _______ _____ _____    ______ ____
ROOT
ATOM      1  C   UNL     1       2.410   5.497  19.664  0.00  0.00    +0.000 A 
ATOM      2  C   UNL     1       3.552   5.465  18.857  0.00  0.00    +0.000 A 
ATOM      3  C   UNL     1       3.876   4.319  18.109  0.00  0.00    +0.000 A 
ATOM      4  C   UNL     1       3.032   3.201  18.179  0.00  0.00    +0.000 A 
ATOM      5  C   UNL     1       1.891   3.218  18.985  0.00  0.00    +0.000 A 
ATOM      6  C   UNL     1       1.597   4.356  19.734  0.00  0.00    +0.000 A 
ENDROOT
BRANCH   1   9
ATOM      7  O   UNL     1       2.082   8.188  18.686  0.00  0.00    +0.000 OA
ATOM      8  C   UNL     1       1.868   7.896  19.860  0.00  0.00    +0.000 C 
ATOM      9  N   UNL     1       2.016   6.630  20.400  0.00  0.00    +0.000 N 
ATOM     10  H   UNL     1       1.506   6.411  21.250  0.00  0.00    +0.000 HD
BRANCH   8  11
ATOM     11  C   UNL     1       1.258   8.903  20.833  0.00  0.00    +0.000 C 
ATOM     12  C   UNL     1       0.764  10.192  20.162  0.00  0.00    +0.000 C 
ATOM     13  C   UNL     1       0.349  11.201  21.236  0.00  0.00    +0.000 C 
ATOM     14  C   UNL     1      -0.679  10.640  22.224  0.00  0.00    +0.000 C 
ATOM     15  C   UNL     1      -0.333   9.238  22.739  0.00  0.00    +0.000 C 
ATOM     16  C   UNL     1       0.089   8.295  21.621  0.00  0.00    +0.000 C 
BRANCH  14  17
ATOM     17  O   UNL     1      -0.789  11.526  23.335  0.00  0.00    +0.000 OA
ATOM     18  H   UNL     1      -0.452  12.400  23.065  0.00  0.00    +0.000 HD
ENDBRANCH  14  17
ENDBRANCH   8  11
ENDBRANCH   1   9
BRANCH   6  19
ATOM     19  O   UNL     1       0.466   4.407  20.510  0.00  0.00    +0.000 OA
ATOM     20  H   UNL     1      -0.253   4.775  19.968  0.00  0.00    +0.000 HD
ENDBRANCH   6  19
BRANCH   3  21
ATOM     21  C   UNL     1       5.100   4.313  17.218  0.00  0.00    +0.000 C 
BRANCH  21  22
ATOM     22  C   UNL     1       6.173   5.299  17.603  0.00  0.00    +0.000 A 
ATOM     23  C   UNL     1       6.332   6.501  16.900  0.00  0.00    +0.000 A 
ATOM     24  C   UNL     1       7.294   7.433  17.301  0.00  0.00    +0.000 A 
ATOM     25  C   UNL     1       8.110   7.176  18.403  0.00  0.00    +0.000 A 
ATOM     26  C   UNL     1       7.972   5.978  19.098  0.00  0.00    +0.000 A 
ATOM     27  C   UNL     1       7.011   5.047  18.702  0.00  0.00    +0.000 A 
ENDBRANCH  21  22
ENDBRANCH   3  21
TORSDOF 6
ENDMDL
MODEL 2
REMARK VINA RESULT:      -7.9      3.357      5.368
REMARK  Name = 
REMARK  6 active torsions:
REMARK  status: ('A' for Active; 'I' for Inactive)
REMARK    1  A    between atoms: C_2  and  C_18
REMARK    2  A    between atoms: N_3  and  C_4
REMARK    3  A    between atoms: C_6  and  C_7
REMARK    4  A    between atoms: C_7  and  C_8
REMARK    5  A    between atoms: C_16  and  O_17
REMARK    6  A    between atoms: C_21  and  O_22
REMARK                            x       y       z     vdW  Elec       q    Type
REMARK                         _______ _______ _______ _____ _____    ______ ____
ROOT
ATOM      1  C   UNL     1       0.561   9.603  19.821  0.00  0.00    +0.000 A 
ATOM      2  C   UNL     1       1.173   8.433  20.283  0.00  0.00    +0.000 A 
ATOM      3  C   UNL     1       2.076   7.722  19.473  0.00  0.00    +0.000 A 
ATOM      4  C   UNL     1       2.362   8.205  18.188  0.00  0.00    +0.000 A 
ATOM      5  C   UNL     1       1.754   9.369  17.712  0.00  0.00    +0.000 A 
ATOM      6  C   UNL     1       0.846  10.049  18.522  0.00  0.00    +0.000 A 
ENDROOT
BRANCH   1   9
ATOM      7  O   UNL     1       1.241  11.800  21.558  0.00  0.00    +0.000 OA
ATOM      8  C   UNL     1       0.080  11.429  21.409  0.00  0.00    +0.000 C 
ATOM      9  N   UNL     1      -0.318  10.376  20.603  0.00  0.00    +0.000 N 
ATOM     10  H   UNL     1      -1.279  10.360  20.277  0.00  0.00    +0.000 HD
BRANCH   8  11
ATOM     11  C   UNL     1      -1.089  12.211  22.005  0.00  0.00    +0.000 C 
ATOM     12  C   UNL     1      -1.827  11.467  23.126  0.00  0.00    +0.000 C 
ATOM     13  C   UNL     1      -3.083  12.249  23.519  0.00  0.00    +0.000 C 
ATOM     14  C   UNL     1      -2.792  13.705  23.894  0.00  0.00    +0.000 C 
ATOM     15  C   UNL     1      -1.857  14.417  22.911  0.00  0.00    +0.000 C 
ATOM     16  C   UNL     1      -0.641  13.575  22.549  0.00  0.00    +0.000 C 
BRANCH  14  17
ATOM     17  O   UNL     1      -4.021  14.423  23.964  0.00  0.00    +0.000 OA
ATOM     18  H   UNL     1      -4.380  14.505  23.061  0.00  0.00    +0.000 HD
ENDBRANCH  14  17
ENDBRANCH   8  11
ENDBRANCH   1   9
BRANCH   6  19
ATOM     19  O   UNL     1       0.259  11.211  18.087  0.00  0.00    +0.000 OA
ATOM     20  H   UNL     1       0.959  11.877  17.974  0.00  0.00    +0.000 HD
ENDBRANCH   6  19
BRANCH   3  21
ATOM     21  C   UNL     1       2.752   6.475  20.002  0.00  0.00    +0.000 C 
BRANCH  21  22
ATOM     22  C   UNL     1       2.074   5.178  19.635  0.00  0.00    +0.000 A 
ATOM     23  C   UNL     1       2.149   4.671  18.331  0.00  0.00    +0.000 A 
ATOM     24  C   UNL     1       1.564   3.440  18.016  0.00  0.00    +0.000 A 
ATOM     25  C   UNL     1       0.896   2.705  18.995  0.00  0.00    +0.000 A 
ATOM     26  C   UNL     1       0.802   3.208  20.290  0.00  0.00    +0.000 A 
ATOM     27  C   UNL     1       1.387   4.434  20.608  0.00  0.00    +0.000 A 
ENDBRANCH  21  22
ENDBRANCH   3  21
TORSDOF 6
ENDMDL
MODEL 3
REMARK VINA RESULT:      -7.9      3.292      5.345
REMARK  Name = 
REMARK  6 active torsions:
REMARK  status: ('A' for Active; 'I' for Inactive)
REMARK    1  A    between atoms: C_2  and  C_18
REMARK    2  A    between atoms: N_3  and  C_4
REMARK    3  A    between atoms: C_6  and  C_7
REMARK    4  A    between atoms: C_7  and  C_8
REMARK    5  A    between atoms: C_16  and  O_17
REMARK    6  A    between atoms: C_21  and  O_22
REMARK                            x       y       z     vdW  Elec       q    Type
REMARK                         _______ _______ _______ _____ _____    ______ ____
ROOT
ATOM      1  C   UNL     1       0.694   9.496  19.726  0.00  0.00    +0.000 A 
ATOM      2  C   UNL     1       1.317   8.334  20.193  0.00  0.00    +0.000 A 
ATOM      3  C   UNL     1       2.225   7.627  19.384  0.00  0.00    +0.000 A 
ATOM      4  C   UNL     1       2.502   8.106  18.096  0.00  0.00    +0.000 A 
ATOM      5  C   UNL     1       1.882   9.262  17.615  0.00  0.00    +0.000 A 
ATOM      6  C   UNL     1       0.970   9.938  18.425  0.00  0.00    +0.000 A 
ENDROOT
BRANCH   1   9
ATOM      7  O   UNL     1       1.351  11.739  21.412  0.00  0.00    +0.000 OA
ATOM      8  C   UNL     1       0.196  11.340  21.288  0.00  0.00    +0.000 C 
ATOM      9  N   UNL     1      -0.190  10.265  20.507  0.00  0.00    +0.000 N 
ATOM     10  H   UNL     1      -1.156  10.222  20.196  0.00  0.00    +0.000 HD
BRANCH   8  11
ATOM     11  C   UNL     1      -0.981  12.109  21.887  0.00  0.00    +0.000 C 
ATOM     12  C   UNL     1      -1.662  11.387  23.056  0.00  0.00    +0.000 C 
ATOM     13  C   UNL     1      -2.931  12.145  23.455  0.00  0.00    +0.000 C 
ATOM     14  C   UNL     1      -2.677  13.623  23.766  0.00  0.00    +0.000 C 
ATOM     15  C   UNL     1      -1.793  14.324  22.729  0.00  0.00    +0.000 C 
ATOM     16  C   UNL     1      -0.562  13.507  22.365  0.00  0.00    +0.000 C 
BRANCH  14  17
ATOM     17  O   UNL     1      -3.927  14.304  23.843  0.00  0.00    +0.000 OA
ATOM     18  H   UNL     1      -3.752  15.263  23.856  0.00  0.00    +0.000 HD
ENDBRANCH  14  17
ENDBRANCH   8  11
ENDBRANCH   1   9
BRANCH   6  19
ATOM     19  O   UNL     1       0.372  11.093  17.986  0.00  0.00    +0.000 OA
ATOM     20  H   UNL     1       1.073  11.739  17.792  0.00  0.00    +0.000 HD
ENDBRANCH   6  19
BRANCH   3  21
ATOM     21  C   UNL     1       2.914   6.388  19.916  0.00  0.00    +0.000 C 
BRANCH  21  22
ATOM     22  C   UNL     1       2.193   5.091  19.643  0.00  0.00    +0.000 A 
ATOM     23  C   UNL     1       1.535   4.403  20.671  0.00  0.00    +0.000 A 
ATOM     24  C   UNL     1       0.824   3.232  20.395  0.00  0.00    +0.000 A 
ATOM     25  C   UNL     1       0.764   2.731  19.094  0.00  0.00    +0.000 A 
ATOM     26  C   UNL     1       1.429   3.398  18.069  0.00  0.00    +0.000 A 
ATOM     27  C   UNL     1       2.137   4.569  18.340  0.00  0.00    +0.000 A 
ENDBRANCH  21  22
ENDBRANCH   3  21
TORSDOF 6
ENDMDL
MODEL 4
REMARK VINA RESULT:      -7.9      3.080      8.262
REMARK  Name = 
REMARK  6 active torsions:
REMARK  status: ('A' for Active; 'I' for Inactive)
REMARK    1  A    between atoms: C_2  and  C_18
REMARK    2  A    between atoms: N_3  and  C_4
REMARK    3  A    between atoms: C_6  and  C_7
REMARK    4  A    between atoms: C_7  and  C_8
REMARK    5  A    between atoms: C_16  and  O_17
REMARK    6  A    between atoms: C_21  and  O_22
REMARK                            x       y       z     vdW  Elec       q    Type
REMARK                         _______ _______ _______ _____ _____    ______ ____
ROOT
ATOM      1  C   UNL     1       1.961   8.095  19.362  0.00  0.00    +0.000 A 
ATOM      2  C   UNL     1       1.413   9.225  18.746  0.00  0.00    +0.000 A 
ATOM      3  C   UNL     1       0.373   9.948  19.358  0.00  0.00    +0.000 A 
ATOM      4  C   UNL     1      -0.109   9.521  20.603  0.00  0.00    +0.000 A 
ATOM      5  C   UNL     1       0.426   8.391  21.227  0.00  0.00    +0.000 A 
ATOM      6  C   UNL     1       1.442   7.676  20.595  0.00  0.00    +0.000 A 
ENDROOT
BRANCH   1   9
ATOM      7  O   UNL     1       1.864   5.437  18.251  0.00  0.00    +0.000 OA
ATOM      8  C   UNL     1       2.907   6.086  18.287  0.00  0.00    +0.000 C 
ATOM      9  N   UNL     1       3.030   7.359  18.814  0.00  0.00    +0.000 N 
ATOM     10  H   UNL     1       3.805   7.934  18.501  0.00  0.00    +0.000 HD
BRANCH   8  11
ATOM     11  C   UNL     1       4.176   5.590  17.596  0.00  0.00    +0.000 C 
ATOM     12  C   UNL     1       4.688   6.527  16.494  0.00  0.00    +0.000 C 
ATOM     13  C   UNL     1       5.841   5.854  15.745  0.00  0.00    +0.000 C 
ATOM     14  C   UNL     1       6.969   5.390  16.670  0.00  0.00    +0.000 C 
ATOM     15  C   UNL     1       6.475   4.648  17.917  0.00  0.00    +0.000 C 
ATOM     16  C   UNL     1       5.316   5.362  18.598  0.00  0.00    +0.000 C 
BRANCH  14  17
ATOM     17  O   UNL     1       7.847   4.534  15.942  0.00  0.00    +0.000 OA
ATOM     18  H   UNL     1       8.243   5.050  15.215  0.00  0.00    +0.000 HD
ENDBRANCH  14  17
ENDBRANCH   8  11
ENDBRANCH   1   9
BRANCH   6  19
ATOM     19  O   UNL     1       2.004   6.581  21.202  0.00  0.00    +0.000 OA
ATOM     20  H   UNL     1       1.505   6.400  22.017  0.00  0.00    +0.000 HD
ENDBRANCH   6  19
BRANCH   3  21
ATOM     21  C   UNL     1      -0.187  11.186  18.692  0.00  0.00    +0.000 C 
BRANCH  21  22
ATOM     22  C   UNL     1      -1.588  11.041  18.150  0.00  0.00    +0.000 A 
ATOM     23  C   UNL     1      -1.870  10.137  17.117  0.00  0.00    +0.000 A 
ATOM     24  C   UNL     1      -3.181   9.970  16.662  0.00  0.00    +0.000 A 
ATOM     25  C   UNL     1      -4.224  10.704  17.228  0.00  0.00    +0.000 A 
ATOM     26  C   UNL     1      -3.952  11.616  18.243  0.00  0.00    +0.000 A 
ATOM     27  C   UNL     1      -2.645  11.783  18.702  0.00  0.00    +0.000 A 
ENDBRANCH  21  22
ENDBRANCH   3  21
TORSDOF 6
ENDMDL
MODEL 5
REMARK VINA RESULT:      -7.8      3.300      5.168
REMARK  Name = 
REMARK  6 active torsions:
REMARK  status: ('A' for Active; 'I' for Inactive)
REMARK    1  A    between atoms: C_2  and  C_18
REMARK    2  A    between atoms: N_3  and  C_4
REMARK    3  A    between atoms: C_6  and  C_7
REMARK    4  A    between atoms: C_7  and  C_8
REMARK    5  A    between atoms: C_16  and  O_17
REMARK    6  A    between atoms: C_21  and  O_22
REMARK                            x       y       z     vdW  Elec       q    Type
REMARK                         _______ _______ _______ _____ _____    ______ ____
ROOT
ATOM      1  C   UNL     1       0.756   9.479  19.775  0.00  0.00    +0.000 A 
ATOM      2  C   UNL     1       1.323   8.286  20.236  0.00  0.00    +0.000 A 
ATOM      3  C   UNL     1       2.242   7.570  19.447  0.00  0.00    +0.000 A 
ATOM      4  C   UNL     1       2.587   8.072  18.184  0.00  0.00    +0.000 A 
ATOM      5  C   UNL     1       2.024   9.259  17.708  0.00  0.00    +0.000 A 
ATOM      6  C   UNL     1       1.101   9.944  18.497  0.00  0.00    +0.000 A 
ENDROOT
BRANCH   1   9
ATOM      7  O   UNL     1       1.344  11.911  21.206  0.00  0.00    +0.000 OA
ATOM      8  C   UNL     1       0.216  11.425  21.192  0.00  0.00    +0.000 C 
ATOM      9  N   UNL     1      -0.135  10.256  20.538  0.00  0.00    +0.000 N 
ATOM     10  H   UNL     1      -1.111  10.119  20.295  0.00  0.00    +0.000 HD
BRANCH   8  11
ATOM     11  C   UNL     1      -0.978  12.165  21.794  0.00  0.00    +0.000 C 
ATOM     12  C   UNL     1      -2.075  12.502  20.776  0.00  0.00    +0.000 C 
ATOM     13  C   UNL     1      -3.126  13.400  21.434  0.00  0.00    +0.000 C 
ATOM     14  C   UNL     1      -3.703  12.806  22.723  0.00  0.00    +0.000 C 
ATOM     15  C   UNL     1      -2.638  12.239  23.668  0.00  0.00    +0.000 C 
ATOM     16  C   UNL     1      -1.617  11.374  22.944  0.00  0.00    +0.000 C 
BRANCH  14  17
ATOM     17  O   UNL     1      -4.442  13.812  23.410  0.00  0.00    +0.000 OA
ATOM     18  H   UNL     1      -5.262  13.984  22.911  0.00  0.00    +0.000 HD
ENDBRANCH  14  17
ENDBRANCH   8  11
ENDBRANCH   1   9
BRANCH   6  19
ATOM     19  O   UNL     1       0.557  11.127  18.065  0.00  0.00    +0.000 OA
ATOM     20  H   UNL     1       0.674  11.787  18.770  0.00  0.00    +0.000 HD
ENDBRANCH   6  19
BRANCH   3  21
ATOM     21  C   UNL     1       2.869   6.298  19.975  0.00  0.00    +0.000 C 
BRANCH  21  22
ATOM     22  C   UNL     1       2.127   5.031  19.629  0.00  0.00    +0.000 A 
ATOM     23  C   UNL     1       2.059   4.575  18.306  0.00  0.00    +0.000 A 
ATOM     24  C   UNL     1       1.417   3.370  18.005  0.00  0.00    +0.000 A 
ATOM     25  C   UNL     1       0.833   2.609  19.019  0.00  0.00    +0.000 A 
ATOM     26  C   UNL     1       0.880   3.061  20.334  0.00  0.00    +0.000 A 
ATOM     27  C   UNL     1       1.523   4.262  20.638  0.00  0.00    +0.000 A 
ENDBRANCH  21  22
ENDBRANCH   3  21
TORSDOF 6
ENDMDL
MODEL 6
REMARK VINA RESULT:      -7.8      3.341      5.384
REMARK  Name = 
REMARK  6 active torsions:
REMARK  status: ('A' for Active; 'I' for Inactive)
REMARK    1  A    between atoms: C_2  and  C_18
REMARK    2  A    between atoms: N_3  and  C_4
REMARK    3  A    between atoms: C_6  and  C_7
REMARK    4  A    between atoms: C_7  and  C_8
REMARK    5  A    between atoms: C_16  and  O_17
REMARK    6  A    between atoms: C_21  and  O_22
REMARK                            x       y       z     vdW  Elec       q    Type
REMARK                         _______ _______ _______ _____ _____    ______ ____
ROOT
ATOM      1  C   UNL     1       0.500   9.673  20.176  0.00  0.00    +0.000 A 
ATOM      2  C   UNL     1       1.309   8.556  20.411  0.00  0.00    +0.000 A 
ATOM      3  C   UNL     1       1.989   7.921  19.356  0.00  0.00    +0.000 A 
ATOM      4  C   UNL     1       1.847   8.427  18.056  0.00  0.00    +0.000 A 
ATOM      5  C   UNL     1       1.037   9.538  17.805  0.00  0.00    +0.000 A 
ATOM      6  C   UNL     1       0.356  10.141  18.862  0.00  0.00    +0.000 A 
ENDROOT
BRANCH   1   9
ATOM      7  O   UNL     1       1.176  12.257  21.257  0.00  0.00    +0.000 OA
ATOM      8  C   UNL     1       0.207  11.620  21.663  0.00  0.00    +0.000 C 
ATOM      9  N   UNL     1      -0.169  10.371  21.199  0.00  0.00    +0.000 N 
ATOM     10  H   UNL     1      -1.134  10.084  21.329  0.00  0.00    +0.000 HD
BRANCH   8  11
ATOM     11  C   UNL     1      -0.792  12.229  22.645  0.00  0.00    +0.000 C 
ATOM     12  C   UNL     1      -0.691  13.755  22.766  0.00  0.00    +0.000 C 
ATOM     13  C   UNL     1      -1.595  14.239  23.903  0.00  0.00    +0.000 C 
ATOM     14  C   UNL     1      -3.046  13.771  23.758  0.00  0.00    +0.000 C 
ATOM     15  C   UNL     1      -3.180  12.287  23.400  0.00  0.00    +0.000 C 
ATOM     16  C   UNL     1      -2.239  11.871  22.277  0.00  0.00    +0.000 C 
BRANCH  14  17
ATOM     17  O   UNL     1      -3.739  14.015  24.980  0.00  0.00    +0.000 OA
ATOM     18  H   UNL     1      -3.265  14.716  25.466  0.00  0.00    +0.000 HD
ENDBRANCH  14  17
ENDBRANCH   8  11
ENDBRANCH   1   9
BRANCH   6  19
ATOM     19  O   UNL     1      -0.420  11.252  18.646  0.00  0.00    +0.000 OA
ATOM     20  H   UNL     1      -1.240  10.965  18.206  0.00  0.00    +0.000 HD
ENDBRANCH   6  19
BRANCH   3  21
ATOM     21  C   UNL     1       2.884   6.733  19.633  0.00  0.00    +0.000 C 
BRANCH  21  22
ATOM     22  C   UNL     1       2.210   5.388  19.527  0.00  0.00    +0.000 A 
ATOM     23  C   UNL     1       1.681   4.756  20.660  0.00  0.00    +0.000 A 
ATOM     24  C   UNL     1       1.009   3.536  20.541  0.00  0.00    +0.000 A 
ATOM     25  C   UNL     1       0.860   2.931  19.293  0.00  0.00    +0.000 A 
ATOM     26  C   UNL     1       1.396   3.542  18.163  0.00  0.00    +0.000 A 
ATOM     27  C   UNL     1       2.065   4.761  18.278  0.00  0.00    +0.000 A 
ENDBRANCH  21  22
ENDBRANCH   3  21
TORSDOF 6
ENDMDL
MODEL 7
REMARK VINA RESULT:      -7.8      4.527      7.206
REMARK  Name = 
REMARK  6 active torsions:
REMARK  status: ('A' for Active; 'I' for Inactive)
REMARK    1  A    between atoms: C_2  and  C_18
REMARK    2  A    between atoms: N_3  and  C_4
REMARK    3  A    between atoms: C_6  and  C_7
REMARK    4  A    between atoms: C_7  and  C_8
REMARK    5  A    between atoms: C_16  and  O_17
REMARK    6  A    between atoms: C_21  and  O_22
REMARK                            x       y       z     vdW  Elec       q    Type
REMARK                         _______ _______ _______ _____ _____    ______ ____
ROOT
ATOM      1  C   UNL     1       5.850   7.001  17.115  0.00  0.00    +0.000 A 
ATOM      2  C   UNL     1       4.530   6.895  17.565  0.00  0.00    +0.000 A 
ATOM      3  C   UNL     1       3.795   5.710  17.376  0.00  0.00    +0.000 A 
ATOM      4  C   UNL     1       4.408   4.628  16.728  0.00  0.00    +0.000 A 
ATOM      5  C   UNL     1       5.724   4.722  16.268  0.00  0.00    +0.000 A 
ATOM      6  C   UNL     1       6.429   5.912  16.448  0.00  0.00    +0.000 A 
ENDROOT
BRANCH   1   9
ATOM      7  O   UNL     1       8.243   7.213  18.707  0.00  0.00    +0.000 OA
ATOM      8  C   UNL     1       7.792   8.172  18.087  0.00  0.00    +0.000 C 
ATOM      9  N   UNL     1       6.644   8.147  17.314  0.00  0.00    +0.000 N 
ATOM     10  H   UNL     1       6.540   8.849  16.589  0.00  0.00    +0.000 HD
BRANCH   8  11
ATOM     11  C   UNL     1       8.560   9.489  17.988  0.00  0.00    +0.000 C 
ATOM     12  C   UNL     1       7.676  10.700  17.659  0.00  0.00    +0.000 C 
ATOM     13  C   UNL     1       8.559  11.922  17.398  0.00  0.00    +0.000 C 
ATOM     14  C   UNL     1       9.532  12.218  18.543  0.00  0.00    +0.000 C 
ATOM     15  C   UNL     1      10.266  10.976  19.061  0.00  0.00    +0.000 C 
ATOM     16  C   UNL     1       9.331   9.795  19.280  0.00  0.00    +0.000 C 
BRANCH  14  17
ATOM     17  O   UNL     1      10.494  13.173  18.103  0.00  0.00    +0.000 OA
ATOM     18  H   UNL     1      11.274  13.113  18.685  0.00  0.00    +0.000 HD
ENDBRANCH  14  17
ENDBRANCH   8  11
ENDBRANCH   1   9
BRANCH   6  19
ATOM     19  O   UNL     1       7.732   6.019  16.032  0.00  0.00    +0.000 OA
ATOM     20  H   UNL     1       8.307   5.877  16.804  0.00  0.00    +0.000 HD
ENDBRANCH   6  19
BRANCH   3  21
ATOM     21  C   UNL     1       2.379   5.601  17.897  0.00  0.00    +0.000 C 
BRANCH  21  22
ATOM     22  C   UNL     1       2.178   4.581  18.989  0.00  0.00    +0.000 A 
ATOM     23  C   UNL     1       2.485   4.883  20.323  0.00  0.00    +0.000 A 
ATOM     24  C   UNL     1       2.242   3.949  21.334  0.00  0.00    +0.000 A 
ATOM     25  C   UNL     1       1.694   2.703  21.028  0.00  0.00    +0.000 A 
ATOM     26  C   UNL     1       1.401   2.386  19.704  0.00  0.00    +0.000 A 
ATOM     27  C   UNL     1       1.640   3.317  18.693  0.00  0.00    +0.000 A 
ENDBRANCH  21  22
ENDBRANCH   3  21
TORSDOF 6
ENDMDL
MODEL 8
REMARK VINA RESULT:      -7.7      0.578      1.051
REMARK  Name = 
REMARK  6 active torsions:
REMARK  status: ('A' for Active; 'I' for Inactive)
REMARK    1  A    between atoms: C_2  and  C_18
REMARK    2  A    between atoms: N_3  and  C_4
REMARK    3  A    between atoms: C_6  and  C_7
REMARK    4  A    between atoms: C_7  and  C_8
REMARK    5  A    between atoms: C_16  and  O_17
REMARK    6  A    between atoms: C_21  and  O_22
REMARK                            x       y       z     vdW  Elec       q    Type
REMARK                         _______ _______ _______ _____ _____    ______ ____
ROOT
ATOM      1  C   UNL     1       2.359   5.346  19.679  0.00  0.00    +0.000 A 
ATOM      2  C   UNL     1       3.393   5.576  18.765  0.00  0.00    +0.000 A 
ATOM      3  C   UNL     1       3.963   4.515  18.038  0.00  0.00    +0.000 A 
ATOM      4  C   UNL     1       3.477   3.216  18.239  0.00  0.00    +0.000 A 
ATOM      5  C   UNL     1       2.449   2.971  19.152  0.00  0.00    +0.000 A 
ATOM      6  C   UNL     1       1.910   4.033  19.878  0.00  0.00    +0.000 A 
ENDROOT
BRANCH   1   9
ATOM      7  O   UNL     1       2.180   8.131  18.961  0.00  0.00    +0.000 OA
ATOM      8  C   UNL     1       1.669   7.694  19.989  0.00  0.00    +0.000 C 
ATOM      9  N   UNL     1       1.725   6.374  20.402  0.00  0.00    +0.000 N 
ATOM     10  H   UNL     1       1.015   6.044  21.047  0.00  0.00    +0.000 HD
BRANCH   8  11
ATOM     11  C   UNL     1       0.768   8.565  20.863  0.00  0.00    +0.000 C 
ATOM     12  C   UNL     1       1.343   8.849  22.257  0.00  0.00    +0.000 C 
ATOM     13  C   UNL     1       0.291   9.561  23.109  0.00  0.00    +0.000 C 
ATOM     14  C   UNL     1      -0.261  10.829  22.450  0.00  0.00    +0.000 C 
ATOM     15  C   UNL     1      -0.629  10.642  20.974  0.00  0.00    +0.000 C 
ATOM     16  C   UNL     1       0.453   9.909  20.192  0.00  0.00    +0.000 C 
BRANCH  14  17
ATOM     17  O   UNL     1      -1.417  11.260  23.162  0.00  0.00    +0.000 OA
ATOM     18  H   UNL     1      -2.180  11.233  22.555  0.00  0.00    +0.000 HD
ENDBRANCH  14  17
ENDBRANCH   8  11
ENDBRANCH   1   9
BRANCH   6  19
ATOM     19  O   UNL     1       0.879   3.822  20.759  0.00  0.00    +0.000 OA
ATOM     20  H   UNL     1       0.209   3.277  20.312  0.00  0.00    +0.000 HD
ENDBRANCH   6  19
BRANCH   3  21
ATOM     21  C   UNL     1       5.060   4.786  17.030  0.00  0.00    +0.000 C 
BRANCH  21  22
ATOM     22  C   UNL     1       6.181   5.664  17.529  0.00  0.00    +0.000 A 
ATOM     23  C   UNL     1       6.393   6.939  16.988  0.00  0.00    +0.000 A 
ATOM     24  C   UNL     1       7.399   7.765  17.497  0.00  0.00    +0.000 A 
ATOM     25  C   UNL     1       8.208   7.328  18.547  0.00  0.00    +0.000 A 
ATOM     26  C   UNL     1       8.017   6.057  19.080  0.00  0.00    +0.000 A 
ATOM     27  C   UNL     1       7.011   5.231  18.577  0.00  0.00    +0.000 A 
ENDBRANCH  21  22
ENDBRANCH   3  21
TORSDOF 6
ENDMDL
MODEL 9
REMARK VINA RESULT:      -7.7      1.298      2.122
REMARK  Name = 
REMARK  6 active torsions:
REMARK  status: ('A' for Active; 'I' for Inactive)
REMARK    1  A    between atoms: C_2  and  C_18
REMARK    2  A    between atoms: N_3  and  C_4
REMARK    3  A    between atoms: C_6  and  C_7
REMARK    4  A    between atoms: C_7  and  C_8
REMARK    5  A    between atoms: C_16  and  O_17
REMARK    6  A    between atoms: C_21  and  O_22
REMARK                            x       y       z     vdW  Elec       q    Type
REMARK                         _______ _______ _______ _____ _____    ______ ____
ROOT
ATOM      1  C   UNL     1       2.456   5.483  20.242  0.00  0.00    +0.000 A 
ATOM      2  C   UNL     1       3.786   5.602  19.825  0.00  0.00    +0.000 A 
ATOM      3  C   UNL     1       4.448   4.526  19.207  0.00  0.00    +0.000 A 
ATOM      4  C   UNL     1       3.752   3.325  19.008  0.00  0.00    +0.000 A 
ATOM      5  C   UNL     1       2.425   3.190  19.425  0.00  0.00    +0.000 A 
ATOM      6  C   UNL     1       1.793   4.262  20.054  0.00  0.00    +0.000 A 
ENDROOT
BRANCH   1   9
ATOM      7  O   UNL     1       2.083   8.140  19.190  0.00  0.00    +0.000 OA
ATOM      8  C   UNL     1       1.586   7.792  20.258  0.00  0.00    +0.000 C 
ATOM      9  N   UNL     1       1.733   6.540  20.829  0.00  0.00    +0.000 N 
ATOM     10  H   UNL     1       1.036   6.236  21.502  0.00  0.00    +0.000 HD
BRANCH   8  11
ATOM     11  C   UNL     1       0.606   8.690  21.011  0.00  0.00    +0.000 C 
ATOM     12  C   UNL     1       1.002   8.954  22.470  0.00  0.00    +0.000 C 
ATOM     13  C   UNL     1      -0.131   9.699  23.180  0.00  0.00    +0.000 C 
ATOM     14  C   UNL     1      -0.550  10.984  22.460  0.00  0.00    +0.000 C 
ATOM     15  C   UNL     1      -0.726  10.811  20.947  0.00  0.00    +0.000 C 
ATOM     16  C   UNL     1       0.425  10.045  20.311  0.00  0.00    +0.000 C 
BRANCH  14  17
ATOM     17  O   UNL     1      -1.776  11.452  23.017  0.00  0.00    +0.000 OA
ATOM     18  H   UNL     1      -2.194  12.055  22.374  0.00  0.00    +0.000 HD
ENDBRANCH  14  17
ENDBRANCH   8  11
ENDBRANCH   1   9
BRANCH   6  19
ATOM     19  O   UNL     1       0.481   4.164  20.445  0.00  0.00    +0.000 OA
ATOM     20  H   UNL     1       0.363   4.712  21.241  0.00  0.00    +0.000 HD
ENDBRANCH   6  19
BRANCH   3  21
ATOM     21  C   UNL     1       5.877   4.682  18.734  0.00  0.00    +0.000 C 
BRANCH  21  22
ATOM     22  C   UNL     1       6.037   4.903  17.250  0.00  0.00    +0.000 A 
ATOM     23  C   UNL     1       7.091   4.308  16.544  0.00  0.00    +0.000 A 
ATOM     24  C   UNL     1       7.197   4.474  15.159  0.00  0.00    +0.000 A 
ATOM     25  C   UNL     1       6.257   5.236  14.465  0.00  0.00    +0.000 A 
ATOM     26  C   UNL     1       5.215   5.844  15.160  0.00  0.00    +0.000 A 
ATOM     27  C   UNL     1       5.105   5.679  16.541  0.00  0.00    +0.000 A 
ENDBRANCH  21  22
ENDBRANCH   3  21
TORSDOF 6
ENDMDL
