MODEL 1
REMARK VINA RESULT:      -7.4      0.000      0.000
REMARK  Name = 
REMARK  3 active torsions:
REMARK  status: ('A' for Active; 'I' for Inactive)
REMARK    1  A    between atoms: C_1  and  O_2
REMARK    2  A    between atoms: O_2  and  C_3
REMARK    3  A    between atoms: C_6  and  C_7
REMARK                            x       y       z     vdW  Elec       q    Type
REMARK                         _______ _______ _______ _____ _____    ______ ____
ROOT
ATOM      1  C   UNL     1       4.239   3.194  18.452  0.00  0.00    +0.000 C 
ATOM      2  N   UNL     1       4.837   2.461  19.580  0.00  0.00    +0.000 N 
ATOM      3  N   UNL     1       3.976   2.216  20.597  0.00  0.00    +0.000 NA
ATOM      4  C   UNL     1       2.918   2.894  20.311  0.00  0.00    +0.000 C 
ATOM      5  C   UNL     1       1.803   3.255  21.217  0.00  0.00    +0.000 C 
ATOM      6  C   UNL     1       1.356   4.573  20.563  0.00  0.00    +0.000 C 
ATOM      7  C   UNL     1       2.371   4.889  19.441  0.00  0.00    +0.000 C 
ATOM      8  C   UNL     1       2.841   3.522  18.964  0.00  0.00    +0.000 C 
ATOM      9  H   UNL     1       5.392   1.654  19.299  0.00  0.00    +0.000 HD
ENDROOT
BRANCH   1  13
ATOM     10  C   UNL     1       6.686   6.484  17.063  0.00  0.00    +0.000 A 
ATOM     11  C   UNL     1       6.864   5.950  18.339  0.00  0.00    +0.000 A 
ATOM     12  C   UNL     1       6.063   4.896  18.784  0.00  0.00    +0.000 A 
ATOM     13  C   UNL     1       5.049   4.371  17.968  0.00  0.00    +0.000 A 
ATOM     14  C   UNL     1       4.850   4.948  16.705  0.00  0.00    +0.000 A 
ATOM     15  C   UNL     1       5.661   5.996  16.255  0.00  0.00    +0.000 A 
BRANCH  10  17
ATOM     16  C   UNL     1       7.932   8.343  17.801  0.00  0.00    +0.000 C 
ATOM     17  O   UNL     1       7.537   7.500  16.724  0.00  0.00    +0.000 OA
ENDBRANCH  10  17
ENDBRANCH   1  13
TORSDOF 2
ENDMDL
MODEL 2
REMARK VINA RESULT:      -7.2      0.495      1.291
REMARK  Name = 
REMARK  3 active torsions:
REMARK  status: ('A' for Active; 'I' for Inactive)
REMARK    1  A    between atoms: C_1  and  O_2
REMARK    2  A    between atoms: O_2  and  C_3
REMARK    3  A    between atoms: C_6  and  C_7
REMARK                            x       y       z     vdW  Elec       q    Type
REMARK                         _______ _______ _______ _____ _____    ______ ____
ROOT
ATOM      1  C   UNL     1       4.337   3.576  18.375  0.00  0.00    +0.000 C 
ATOM      2  N   UNL     1       4.873   2.603  19.341  0.00  0.00    +0.000 N 
ATOM      3  N   UNL     1       4.042   2.340  20.378  0.00  0.00    +0.000 NA
ATOM      4  C   UNL     1       3.090   3.202  20.271  0.00  0.00    +0.000 C 
ATOM      5  C   UNL     1       2.098   3.585  21.303  0.00  0.00    +0.000 C 
ATOM      6  C   UNL     1       1.830   5.038  20.875  0.00  0.00    +0.000 C 
ATOM      7  C   UNL     1       2.818   5.364  19.732  0.00  0.00    +0.000 C 
ATOM      8  C   UNL     1       3.039   4.029  19.035  0.00  0.00    +0.000 C 
ATOM      9  H   UNL     1       5.277   1.774  18.907  0.00  0.00    +0.000 HD
ENDROOT
BRANCH   1  13
ATOM     10  C   UNL     1       6.978   6.839  17.313  0.00  0.00    +0.000 A 
ATOM     11  C   UNL     1       5.888   6.510  16.508  0.00  0.00    +0.000 A 
ATOM     12  C   UNL     1       5.047   5.449  16.851  0.00  0.00    +0.000 A 
ATOM     13  C   UNL     1       5.295   4.679  17.997  0.00  0.00    +0.000 A 
ATOM     14  C   UNL     1       6.421   4.990  18.774  0.00  0.00    +0.000 A 
ATOM     15  C   UNL     1       7.257   6.061  18.436  0.00  0.00    +0.000 A 
BRANCH  10  17
ATOM     16  C   UNL     1       8.093   8.825  17.917  0.00  0.00    +0.000 C 
ATOM     17  O   UNL     1       7.723   7.907  16.894  0.00  0.00    +0.000 OA
ENDBRANCH  10  17
ENDBRANCH   1  13
TORSDOF 2
ENDMDL
MODEL 3
REMARK VINA RESULT:      -7.2      2.823      5.642
REMARK  Name = 
REMARK  3 active torsions:
REMARK  status: ('A' for Active; 'I' for Inactive)
REMARK    1  A    between atoms: C_1  and  O_2
REMARK    2  A    between atoms: O_2  and  C_3
REMARK    3  A    between atoms: C_6  and  C_7
REMARK                            x       y       z     vdW  Elec       q    Type
REMARK                         _______ _______ _______ _____ _____    ______ ____
ROOT
ATOM      1  C   UNL     1       6.155   5.369  18.239  0.00  0.00    +0.000 C 
ATOM      2  N   UNL     1       7.331   4.485  18.309  0.00  0.00    +0.000 N 
ATOM      3  N   UNL     1       7.921   4.256  17.111  0.00  0.00    +0.000 NA
ATOM      4  C   UNL     1       7.116   4.762  16.240  0.00  0.00    +0.000 C 
ATOM      5  C   UNL     1       7.095   4.515  14.779  0.00  0.00    +0.000 C 
ATOM      6  C   UNL     1       5.598   4.732  14.503  0.00  0.00    +0.000 C 
ATOM      7  C   UNL     1       4.909   4.933  15.873  0.00  0.00    +0.000 C 
ATOM      8  C   UNL     1       5.979   5.581  16.739  0.00  0.00    +0.000 C 
ATOM      9  H   UNL     1       7.980   4.723  19.057  0.00  0.00    +0.000 HD
ENDROOT
BRANCH   1  13
ATOM     10  C   UNL     1       2.584   3.943  20.228  0.00  0.00    +0.000 A 
ATOM     11  C   UNL     1       2.784   5.305  20.009  0.00  0.00    +0.000 A 
ATOM     12  C   UNL     1       3.944   5.759  19.377  0.00  0.00    +0.000 A 
ATOM     13  C   UNL     1       4.940   4.856  18.972  0.00  0.00    +0.000 A 
ATOM     14  C   UNL     1       4.748   3.493  19.240  0.00  0.00    +0.000 A 
ATOM     15  C   UNL     1       3.579   3.038  19.863  0.00  0.00    +0.000 A 
BRANCH  10  17
ATOM     16  C   UNL     1       1.489   2.533  21.766  0.00  0.00    +0.000 C 
ATOM     17  O   UNL     1       1.405   3.609  20.838  0.00  0.00    +0.000 OA
ENDBRANCH  10  17
ENDBRANCH   1  13
TORSDOF 2
ENDMDL
MODEL 4
REMARK VINA RESULT:      -7.1      0.947      1.503
REMARK  Name = 
REMARK  3 active torsions:
REMARK  status: ('A' for Active; 'I' for Inactive)
REMARK    1  A    between atoms: C_1  and  O_2
REMARK    2  A    between atoms: O_2  and  C_3
REMARK    3  A    between atoms: C_6  and  C_7
REMARK                            x       y       z     vdW  Elec       q    Type
REMARK                         _______ _______ _______ _____ _____    ______ ____
ROOT
ATOM      1  C   UNL     1       3.532   3.345  17.447  0.00  0.00    +0.000 C 
ATOM      2  N   UNL     1       3.842   2.088  18.150  0.00  0.00    +0.000 N 
ATOM      3  N   UNL     1       2.968   1.779  19.138  0.00  0.00    +0.000 NA
ATOM      4  C   UNL     1       2.223   2.823  19.265  0.00  0.00    +0.000 C 
ATOM      5  C   UNL     1       1.330   3.163  20.397  0.00  0.00    +0.000 C 
ATOM      6  C   UNL     1       1.381   4.698  20.313  0.00  0.00    +0.000 C 
ATOM      7  C   UNL     1       2.423   5.058  19.229  0.00  0.00    +0.000 C 
ATOM      8  C   UNL     1       2.357   3.899  18.246  0.00  0.00    +0.000 C 
ATOM      9  H   UNL     1       4.062   1.313  17.528  0.00  0.00    +0.000 HD
ENDROOT
BRANCH   1  13
ATOM     10  C   UNL     1       6.810   6.138  16.997  0.00  0.00    +0.000 A 
ATOM     11  C   UNL     1       5.780   6.087  16.058  0.00  0.00    +0.000 A 
ATOM     12  C   UNL     1       4.732   5.175  16.205  0.00  0.00    +0.000 A 
ATOM     13  C   UNL     1       4.707   4.278  17.283  0.00  0.00    +0.000 A 
ATOM     14  C   UNL     1       5.772   4.307  18.195  0.00  0.00    +0.000 A 
ATOM     15  C   UNL     1       6.816   5.229  18.054  0.00  0.00    +0.000 A 
BRANCH  10  17
ATOM     16  C   UNL     1       7.759   8.190  17.658  0.00  0.00    +0.000 C 
ATOM     17  O   UNL     1       7.774   7.080  16.766  0.00  0.00    +0.000 OA
ENDBRANCH  10  17
ENDBRANCH   1  13
TORSDOF 2
ENDMDL
MODEL 5
REMARK VINA RESULT:      -7.1      1.226      1.231
REMARK  Name = 
REMARK  3 active torsions:
REMARK  status: ('A' for Active; 'I' for Inactive)
REMARK    1  A    between atoms: C_1  and  O_2
REMARK    2  A    between atoms: O_2  and  C_3
REMARK    3  A    between atoms: C_6  and  C_7
REMARK                            x       y       z     vdW  Elec       q    Type
REMARK                         _______ _______ _______ _____ _____    ______ ____
ROOT
ATOM      1  C   UNL     1       3.597   3.701  17.366  0.00  0.00    +0.000 C 
ATOM      2  N   UNL     1       3.923   2.331  17.796  0.00  0.00    +0.000 N 
ATOM      3  N   UNL     1       2.974   1.757  18.574  0.00  0.00    +0.000 NA
ATOM      4  C   UNL     1       2.145   2.705  18.846  0.00  0.00    +0.000 C 
ATOM      5  C   UNL     1       1.113   2.727  19.909  0.00  0.00    +0.000 C 
ATOM      6  C   UNL     1       1.059   4.238  20.185  0.00  0.00    +0.000 C 
ATOM      7  C   UNL     1       2.180   4.892  19.345  0.00  0.00    +0.000 C 
ATOM      8  C   UNL     1       2.306   3.995  18.123  0.00  0.00    +0.000 C 
ATOM      9  H   UNL     1       4.264   1.734  17.044  0.00  0.00    +0.000 HD
ENDROOT
BRANCH   1  13
ATOM     10  C   UNL     1       6.887   6.467  17.883  0.00  0.00    +0.000 A 
ATOM     11  C   UNL     1       6.760   5.347  18.703  0.00  0.00    +0.000 A 
ATOM     12  C   UNL     1       5.689   4.465  18.537  0.00  0.00    +0.000 A 
ATOM     13  C   UNL     1       4.710   4.702  17.562  0.00  0.00    +0.000 A 
ATOM     14  C   UNL     1       4.823   5.857  16.775  0.00  0.00    +0.000 A 
ATOM     15  C   UNL     1       5.903   6.734  16.933  0.00  0.00    +0.000 A 
BRANCH  10  17
ATOM     16  C   UNL     1       7.851   8.611  17.717  0.00  0.00    +0.000 C 
ATOM     17  O   UNL     1       7.982   7.252  18.120  0.00  0.00    +0.000 OA
ENDBRANCH  10  17
ENDBRANCH   1  13
TORSDOF 2
ENDMDL
MODEL 6
REMARK VINA RESULT:      -7.1      1.699      1.991
REMARK  Name = 
REMARK  3 active torsions:
REMARK  status: ('A' for Active; 'I' for Inactive)
REMARK    1  A    between atoms: C_1  and  O_2
REMARK    2  A    between atoms: O_2  and  C_3
REMARK    3  A    between atoms: C_6  and  C_7
REMARK                            x       y       z     vdW  Elec       q    Type
REMARK                         _______ _______ _______ _____ _____    ______ ____
ROOT
ATOM      1  C   UNL     1       2.239   4.636  17.787  0.00  0.00    +0.000 C 
ATOM      2  N   UNL     1       1.941   3.255  17.372  0.00  0.00    +0.000 N 
ATOM      3  N   UNL     1       1.357   2.503  18.336  0.00  0.00    +0.000 NA
ATOM      4  C   UNL     1       1.423   3.220  19.405  0.00  0.00    +0.000 C 
ATOM      5  C   UNL     1       1.239   2.772  20.806  0.00  0.00    +0.000 C 
ATOM      6  C   UNL     1       2.143   3.789  21.521  0.00  0.00    +0.000 C 
ATOM      7  C   UNL     1       2.859   4.610  20.425  0.00  0.00    +0.000 C 
ATOM      8  C   UNL     1       1.871   4.632  19.267  0.00  0.00    +0.000 C 
ATOM      9  H   UNL     1       1.493   3.188  16.460  0.00  0.00    +0.000 HD
ENDROOT
BRANCH   1  13
ATOM     10  C   UNL     1       6.263   6.025  16.998  0.00  0.00    +0.000 A 
ATOM     11  C   UNL     1       5.225   6.929  17.220  0.00  0.00    +0.000 A 
ATOM     12  C   UNL     1       3.927   6.474  17.463  0.00  0.00    +0.000 A 
ATOM     13  C   UNL     1       3.638   5.101  17.464  0.00  0.00    +0.000 A 
ATOM     14  C   UNL     1       4.680   4.203  17.192  0.00  0.00    +0.000 A 
ATOM     15  C   UNL     1       5.983   4.660  16.961  0.00  0.00    +0.000 A 
BRANCH  10  17
ATOM     16  C   UNL     1       7.761   7.763  17.535  0.00  0.00    +0.000 C 
ATOM     17  O   UNL     1       7.496   6.579  16.790  0.00  0.00    +0.000 OA
ENDBRANCH  10  17
ENDBRANCH   1  13
TORSDOF 2
ENDMDL
MODEL 7
REMARK VINA RESULT:      -7.0      2.783      5.614
REMARK  Name = 
REMARK  3 active torsions:
REMARK  status: ('A' for Active; 'I' for Inactive)
REMARK    1  A    between atoms: C_1  and  O_2
REMARK    2  A    between atoms: O_2  and  C_3
REMARK    3  A    between atoms: C_6  and  C_7
REMARK                            x       y       z     vdW  Elec       q    Type
REMARK                         _______ _______ _______ _____ _____    ______ ____
ROOT
ATOM      1  C   UNL     1       6.118   5.456  18.344  0.00  0.00    +0.000 C 
ATOM      2  N   UNL     1       7.204   4.465  18.436  0.00  0.00    +0.000 N 
ATOM      3  N   UNL     1       7.844   4.238  17.264  0.00  0.00    +0.000 NA
ATOM      4  C   UNL     1       7.142   4.853  16.375  0.00  0.00    +0.000 C 
ATOM      5  C   UNL     1       7.188   4.674  14.905  0.00  0.00    +0.000 C 
ATOM      6  C   UNL     1       5.736   5.040  14.556  0.00  0.00    +0.000 C 
ATOM      7  C   UNL     1       4.985   5.242  15.892  0.00  0.00    +0.000 C 
ATOM      8  C   UNL     1       6.054   5.750  16.849  0.00  0.00    +0.000 C 
ATOM      9  H   UNL     1       7.825   4.610  19.231  0.00  0.00    +0.000 HD
ENDROOT
BRANCH   1  13
ATOM     10  C   UNL     1       2.469   4.180  20.293  0.00  0.00    +0.000 A 
ATOM     11  C   UNL     1       3.456   3.257  19.950  0.00  0.00    +0.000 A 
ATOM     12  C   UNL     1       4.626   3.675  19.311  0.00  0.00    +0.000 A 
ATOM     13  C   UNL     1       4.820   5.025  18.981  0.00  0.00    +0.000 A 
ATOM     14  C   UNL     1       3.799   5.936  19.289  0.00  0.00    +0.000 A 
ATOM     15  C   UNL     1       2.632   5.518  19.940  0.00  0.00    +0.000 A 
BRANCH  10  17
ATOM     16  C   UNL     1       1.628   2.517  21.735  0.00  0.00    +0.000 C 
ATOM     17  O   UNL     1       1.374   3.665  20.932  0.00  0.00    +0.000 OA
ENDBRANCH  10  17
ENDBRANCH   1  13
TORSDOF 2
ENDMDL
MODEL 8
REMARK VINA RESULT:      -7.0      2.057      2.519
REMARK  Name = 
REMARK  3 active torsions:
REMARK  status: ('A' for Active; 'I' for Inactive)
REMARK    1  A    between atoms: C_1  and  O_2
REMARK    2  A    between atoms: O_2  and  C_3
REMARK    3  A    between atoms: C_6  and  C_7
REMARK                            x       y       z     vdW  Elec       q    Type
REMARK                         _______ _______ _______ _____ _____    ______ ____
ROOT
ATOM      1  C   UNL     1       4.215   5.118  19.666  0.00  0.00    +0.000 C 
ATOM      2  N   UNL     1       3.199   6.166  19.856  0.00  0.00    +0.000 N 
ATOM      3  N   UNL     1       1.967   5.691  20.159  0.00  0.00    +0.000 NA
ATOM      4  C   UNL     1       2.050   4.415  19.993  0.00  0.00    +0.000 C 
ATOM      5  C   UNL     1       0.936   3.446  19.865  0.00  0.00    +0.000 C 
ATOM      6  C   UNL     1       1.618   2.387  18.982  0.00  0.00    +0.000 C 
ATOM      7  C   UNL     1       3.001   2.950  18.584  0.00  0.00    +0.000 C 
ATOM      8  C   UNL     1       3.398   3.833  19.758  0.00  0.00    +0.000 C 
ATOM      9  H   UNL     1       3.508   6.935  20.449  0.00  0.00    +0.000 HD
ENDROOT
BRANCH   1  13
ATOM     10  C   UNL     1       6.608   5.412  16.070  0.00  0.00    +0.000 A 
ATOM     11  C   UNL     1       7.122   4.820  17.224  0.00  0.00    +0.000 A 
ATOM     12  C   UNL     1       6.347   4.739  18.384  0.00  0.00    +0.000 A 
ATOM     13  C   UNL     1       5.050   5.272  18.418  0.00  0.00    +0.000 A 
ATOM     14  C   UNL     1       4.562   5.906  17.266  0.00  0.00    +0.000 A 
ATOM     15  C   UNL     1       5.334   5.976  16.100  0.00  0.00    +0.000 A 
BRANCH  10  17
ATOM     16  C   UNL     1       6.957   4.729  13.842  0.00  0.00    +0.000 C 
ATOM     17  O   UNL     1       7.445   5.420  14.987  0.00  0.00    +0.000 OA
ENDBRANCH  10  17
ENDBRANCH   1  13
TORSDOF 2
ENDMDL
MODEL 9
REMARK VINA RESULT:      -7.0      1.570      1.807
REMARK  Name = 
REMARK  3 active torsions:
REMARK  status: ('A' for Active; 'I' for Inactive)
REMARK    1  A    between atoms: C_1  and  O_2
REMARK    2  A    between atoms: O_2  and  C_3
REMARK    3  A    between atoms: C_6  and  C_7
REMARK                            x       y       z     vdW  Elec       q    Type
REMARK                         _______ _______ _______ _____ _____    ______ ____
ROOT
ATOM      1  C   UNL     1       2.305   4.243  17.777  0.00  0.00    +0.000 C 
ATOM      2  N   UNL     1       2.362   2.797  17.503  0.00  0.00    +0.000 N 
ATOM      3  N   UNL     1       1.854   2.027  18.495  0.00  0.00    +0.000 NA
ATOM      4  C   UNL     1       1.645   2.838  19.474  0.00  0.00    +0.000 C 
ATOM      5  C   UNL     1       1.412   2.495  20.897  0.00  0.00    +0.000 C 
ATOM      6  C   UNL     1       1.990   3.755  21.563  0.00  0.00    +0.000 C 
ATOM      7  C   UNL     1       2.625   4.610  20.443  0.00  0.00    +0.000 C 
ATOM      8  C   UNL     1       1.789   4.295  19.211  0.00  0.00    +0.000 C 
ATOM      9  H   UNL     1       2.041   2.543  16.570  0.00  0.00    +0.000 HD
ENDROOT
BRANCH   1  13
ATOM     10  C   UNL     1       6.008   6.309  16.905  0.00  0.00    +0.000 A 
ATOM     11  C   UNL     1       5.959   4.916  16.942  0.00  0.00    +0.000 A 
ATOM     12  C   UNL     1       4.763   4.257  17.236  0.00  0.00    +0.000 A 
ATOM     13  C   UNL     1       3.596   4.982  17.522  0.00  0.00    +0.000 A 
ATOM     14  C   UNL     1       3.670   6.383  17.526  0.00  0.00    +0.000 A 
ATOM     15  C   UNL     1       4.866   7.042  17.220  0.00  0.00    +0.000 A 
BRANCH  10  17
ATOM     16  C   UNL     1       7.729   7.793  17.527  0.00  0.00    +0.000 C 
ATOM     17  O   UNL     1       7.225   6.849  16.588  0.00  0.00    +0.000 OA
ENDBRANCH  10  17
ENDBRANCH   1  13
TORSDOF 2
ENDMDL
