MODEL 1
REMARK VINA RESULT:      -7.9      0.000      0.000
REMARK  Name = 
REMARK  12 active torsions:
REMARK  status: ('A' for Active; 'I' for Inactive)
REMARK    1  A    between atoms: C_2  and  C_4
REMARK    2  A    between atoms: C_4  and  C_5
REMARK    3  A    between atoms: C_5  and  C_6
REMARK    4  A    between atoms: C_5  and  C_30
REMARK    5  A    between atoms: C_6  and  C_7
REMARK    6  A    between atoms: C_7  and  O_8
REMARK    7  A    between atoms: C_7  and  C_9
REMARK    8  A    between atoms: C_9  and  C_10
REMARK    9  A    between atoms: C_9  and  N_17
REMARK   10  A    between atoms: C_10  and  C_11
REMARK   11  A    between atoms: C_18  and  C_20
REMARK   12  A    between atoms: N_32  and  C_33
REMARK                            x       y       z     vdW  Elec       q    Type
REMARK                         _______ _______ _______ _____ _____    ______ ____
ROOT
ATOM      1  C   UNL     1       3.001   6.450  18.725  0.00  0.00    +0.000 C 
ENDROOT
BRANCH   1   2
ATOM      2  N   UNL     1       2.059   7.463  19.250  0.00  0.00    +0.000 N 
ATOM      3  C   UNL     1       1.544   7.493  20.532  0.00  0.00    +0.000 C 
ATOM      4  O   UNL     1       1.682   6.589  21.346  0.00  0.00    +0.000 OA
ATOM      5  H   UNL     1       1.884   8.256  18.660  0.00  0.00    +0.000 HD
BRANCH   3   6
ATOM      6  C   UNL     1       0.819   8.698  20.871  0.00  0.00    +0.000 A 
ATOM      7  C   UNL     1       0.294   9.042  22.108  0.00  0.00    +0.000 A 
ATOM      8  C   UNL     1      -0.273  10.341  22.013  0.00  0.00    +0.000 A 
ATOM      9  C   UNL     1      -0.910  11.214  22.923  0.00  0.00    +0.000 A 
ATOM     10  C   UNL     1      -1.335  12.455  22.461  0.00  0.00    +0.000 A 
ATOM     11 CL   UNL     1      -2.102  13.545  23.560  0.00  0.00    +0.000 Cl
ATOM     12  C   UNL     1      -1.156  12.847  21.135  0.00  0.00    +0.000 A 
ATOM     13  C   UNL     1      -0.527  11.997  20.227  0.00  0.00    +0.000 A 
ATOM     14  C   UNL     1      -0.098  10.759  20.697  0.00  0.00    +0.000 A 
ATOM     15  N   UNL     1       0.557   9.754  20.035  0.00  0.00    +0.000 N 
ATOM     16  H   UNL     1       0.841   9.828  19.072  0.00  0.00    +0.000 HD
ENDBRANCH   3   6
ENDBRANCH   1   2
BRANCH   1  17
ATOM     17  C   UNL     1       3.962   7.113  17.671  0.00  0.00    +0.000 C 
BRANCH  17  18
ATOM     18  O   UNL     1       3.343   8.085  16.833  0.00  0.00    +0.000 OA
ATOM     19  H   UNL     1       2.420   8.213  17.109  0.00  0.00    +0.000 HD
ENDBRANCH  17  18
BRANCH  17  20
ATOM     20  C   UNL     1       4.622   6.085  16.730  0.00  0.00    +0.000 C 
BRANCH  20  21
ATOM     21  C   UNL     1       6.160   5.972  16.883  0.00  0.00    +0.000 C 
BRANCH  21  22
ATOM     22  C   UNL     1       6.662   5.061  15.766  0.00  0.00    +0.000 C 
ATOM     23  O   UNL     1       7.806   4.615  15.752  0.00  0.00    +0.000 OA
ATOM     24  N   UNL     1       5.699   4.705  14.847  0.00  0.00    +0.000 N 
ATOM     25  C   UNL     1       6.001   3.887  13.693  0.00  0.00    +0.000 C 
ATOM     26  H   UNL     1       4.801   5.175  14.858  0.00  0.00    +0.000 HD
ENDBRANCH  21  22
BRANCH  21  27
ATOM     27  C   UNL     1       6.534   5.402  18.268  0.00  0.00    +0.000 C 
BRANCH  27  29
ATOM     28  C   UNL     1       8.339   5.554  20.011  0.00  0.00    +0.000 C 
ATOM     29  C   UNL     1       7.703   6.062  18.948  0.00  0.00    +0.000 C 
ATOM     30 CL   UNL     1       8.161   7.617  18.345  0.00  0.00    +0.000 Cl
ENDBRANCH  27  29
ENDBRANCH  21  27
ENDBRANCH  20  21
ENDBRANCH  17  20
ENDBRANCH   1  17
BRANCH   1  31
ATOM     31  C   UNL     1       2.224   5.228  18.181  0.00  0.00    +0.000 C 
BRANCH  31  32
ATOM     32  C   UNL     1       1.869   4.111  19.173  0.00  0.00    +0.000 C 
ATOM     33  C   UNL     1       1.323   2.856  18.469  0.00  0.00    +0.000 C 
ATOM     34  C   UNL     1       2.395   2.127  17.663  0.00  0.00    +0.000 C 
ATOM     35  C   UNL     1       3.587   1.766  18.541  0.00  0.00    +0.000 C 
ATOM     36  C   UNL     1       4.160   2.974  19.277  0.00  0.00    +0.000 C 
ATOM     37  C   UNL     1       3.086   3.746  20.039  0.00  0.00    +0.000 C 
ENDBRANCH  31  32
ENDBRANCH   1  31
TORSDOF 11
ENDMDL
MODEL 2
REMARK VINA RESULT:      -7.8      0.995      1.628
REMARK  Name = 
REMARK  12 active torsions:
REMARK  status: ('A' for Active; 'I' for Inactive)
REMARK    1  A    between atoms: C_2  and  C_4
REMARK    2  A    between atoms: C_4  and  C_5
REMARK    3  A    between atoms: C_5  and  C_6
REMARK    4  A    between atoms: C_5  and  C_30
REMARK    5  A    between atoms: C_6  and  C_7
REMARK    6  A    between atoms: C_7  and  O_8
REMARK    7  A    between atoms: C_7  and  C_9
REMARK    8  A    between atoms: C_9  and  C_10
REMARK    9  A    between atoms: C_9  and  N_17
REMARK   10  A    between atoms: C_10  and  C_11
REMARK   11  A    between atoms: C_18  and  C_20
REMARK   12  A    between atoms: N_32  and  C_33
REMARK                            x       y       z     vdW  Elec       q    Type
REMARK                         _______ _______ _______ _____ _____    ______ ____
ROOT
ATOM      1  C   UNL     1       3.654   6.415  18.534  0.00  0.00    +0.000 C 
ENDROOT
BRANCH   1   2
ATOM      2  N   UNL     1       2.643   7.357  19.062  0.00  0.00    +0.000 N 
ATOM      3  C   UNL     1       1.974   7.227  20.265  0.00  0.00    +0.000 C 
ATOM      4  O   UNL     1       2.024   6.228  20.971  0.00  0.00    +0.000 OA
ATOM      5  H   UNL     1       2.531   8.218  18.559  0.00  0.00    +0.000 HD
BRANCH   3   6
ATOM      6  C   UNL     1       1.198   8.381  20.660  0.00  0.00    +0.000 A 
ATOM      7  C   UNL     1       0.757   9.415  19.848  0.00  0.00    +0.000 A 
ATOM      8  C   UNL     1      -0.031  10.301  20.630  0.00  0.00    +0.000 A 
ATOM      9  C   UNL     1      -0.756  11.484  20.361  0.00  0.00    +0.000 A 
ATOM     10  C   UNL     1      -1.443  12.089  21.407  0.00  0.00    +0.000 A 
ATOM     11 CL   UNL     1      -2.348  13.528  21.099  0.00  0.00    +0.000 Cl
ATOM     12  C   UNL     1      -1.427  11.566  22.699  0.00  0.00    +0.000 A 
ATOM     13  C   UNL     1      -0.719  10.398  22.979  0.00  0.00    +0.000 A 
ATOM     14  C   UNL     1      -0.038   9.792  21.926  0.00  0.00    +0.000 A 
ATOM     15  N   UNL     1       0.708   8.644  21.916  0.00  0.00    +0.000 N 
ATOM     16  H   UNL     1       0.825   8.060  22.728  0.00  0.00    +0.000 HD
ENDBRANCH   3   6
ENDBRANCH   1   2
BRANCH   1  17
ATOM     17  C   UNL     1       4.364   7.044  17.279  0.00  0.00    +0.000 C 
BRANCH  17  18
ATOM     18  O   UNL     1       3.549   7.936  16.523  0.00  0.00    +0.000 OA
ATOM     19  H   UNL     1       3.848   7.946  15.598  0.00  0.00    +0.000 HD
ENDBRANCH  17  18
BRANCH  17  20
ATOM     20  C   UNL     1       4.884   5.984  16.288  0.00  0.00    +0.000 C 
BRANCH  20  21
ATOM     21  C   UNL     1       6.428   5.917  16.175  0.00  0.00    +0.000 C 
BRANCH  21  22
ATOM     22  C   UNL     1       6.757   5.229  14.853  0.00  0.00    +0.000 C 
ATOM     23  O   UNL     1       7.822   5.412  14.269  0.00  0.00    +0.000 OA
ATOM     24  N   UNL     1       5.811   4.320  14.434  0.00  0.00    +0.000 N 
ATOM     25  C   UNL     1       5.928   3.608  13.180  0.00  0.00    +0.000 C 
ATOM     26  H   UNL     1       4.915   4.279  14.906  0.00  0.00    +0.000 HD
ENDBRANCH  21  22
BRANCH  21  27
ATOM     27  C   UNL     1       7.032   5.140  17.365  0.00  0.00    +0.000 C 
BRANCH  27  29
ATOM     28  C   UNL     1       7.770   5.569  19.729  0.00  0.00    +0.000 C 
ATOM     29  C   UNL     1       7.608   5.986  18.467  0.00  0.00    +0.000 C 
ATOM     30 CL   UNL     1       7.983   7.625  18.059  0.00  0.00    +0.000 Cl
ENDBRANCH  27  29
ENDBRANCH  21  27
ENDBRANCH  20  21
ENDBRANCH  17  20
ENDBRANCH   1  17
BRANCH   1  31
ATOM     31  C   UNL     1       3.010   5.036  18.262  0.00  0.00    +0.000 C 
BRANCH  31  32
ATOM     32  C   UNL     1       3.734   3.793  18.799  0.00  0.00    +0.000 C 
ATOM     33  C   UNL     1       3.184   3.340  20.164  0.00  0.00    +0.000 C 
ATOM     34  C   UNL     1       1.772   2.767  20.062  0.00  0.00    +0.000 C 
ATOM     35  C   UNL     1       1.720   1.619  19.061  0.00  0.00    +0.000 C 
ATOM     36  C   UNL     1       2.269   2.009  17.691  0.00  0.00    +0.000 C 
ATOM     37  C   UNL     1       3.657   2.638  17.787  0.00  0.00    +0.000 C 
ENDBRANCH  31  32
ENDBRANCH   1  31
TORSDOF 11
ENDMDL
MODEL 3
REMARK VINA RESULT:      -7.8      1.807      2.979
REMARK  Name = 
REMARK  12 active torsions:
REMARK  status: ('A' for Active; 'I' for Inactive)
REMARK    1  A    between atoms: C_2  and  C_4
REMARK    2  A    between atoms: C_4  and  C_5
REMARK    3  A    between atoms: C_5  and  C_6
REMARK    4  A    between atoms: C_5  and  C_30
REMARK    5  A    between atoms: C_6  and  C_7
REMARK    6  A    between atoms: C_7  and  O_8
REMARK    7  A    between atoms: C_7  and  C_9
REMARK    8  A    between atoms: C_9  and  C_10
REMARK    9  A    between atoms: C_9  and  N_17
REMARK   10  A    between atoms: C_10  and  C_11
REMARK   11  A    between atoms: C_18  and  C_20
REMARK   12  A    between atoms: N_32  and  C_33
REMARK                            x       y       z     vdW  Elec       q    Type
REMARK                         _______ _______ _______ _____ _____    ______ ____
ROOT
ATOM      1  C   UNL     1       3.118   4.817  18.346  0.00  0.00    +0.000 C 
ENDROOT
BRANCH   1   2
ATOM      2  N   UNL     1       2.366   6.019  18.766  0.00  0.00    +0.000 N 
ATOM      3  C   UNL     1       2.199   6.447  20.071  0.00  0.00    +0.000 C 
ATOM      4  O   UNL     1       2.523   5.791  21.052  0.00  0.00    +0.000 OA
ATOM      5  H   UNL     1       2.063   6.634  18.033  0.00  0.00    +0.000 HD
BRANCH   3   6
ATOM      6  C   UNL     1       1.612   7.762  20.212  0.00  0.00    +0.000 A 
ATOM      7  C   UNL     1       1.055   8.314  21.355  0.00  0.00    +0.000 A 
ATOM      8  C   UNL     1       0.665   9.650  21.070  0.00  0.00    +0.000 A 
ATOM      9  C   UNL     1       0.086  10.697  21.821  0.00  0.00    +0.000 A 
ATOM     10  C   UNL     1      -0.146  11.913  21.189  0.00  0.00    +0.000 A 
ATOM     11 CL   UNL     1      -0.839  13.212  22.092  0.00  0.00    +0.000 Cl
ATOM     12  C   UNL     1       0.169  12.117  19.846  0.00  0.00    +0.000 A 
ATOM     13  C   UNL     1       0.743  11.094  19.093  0.00  0.00    +0.000 A 
ATOM     14  C   UNL     1       0.979   9.880  19.733  0.00  0.00    +0.000 A 
ATOM     15  N   UNL     1       1.543   8.732  19.243  0.00  0.00    +0.000 N 
ATOM     16  H   UNL     1       1.897   8.654  18.304  0.00  0.00    +0.000 HD
ENDBRANCH   3   6
ENDBRANCH   1   2
BRANCH   1  17
ATOM     17  C   UNL     1       4.432   5.247  17.595  0.00  0.00    +0.000 C 
BRANCH  17  18
ATOM     18  O   UNL     1       4.332   6.478  16.884  0.00  0.00    +0.000 OA
ATOM     19  H   UNL     1       5.031   6.522  16.209  0.00  0.00    +0.000 HD
ENDBRANCH  17  18
BRANCH  17  20
ATOM     20  C   UNL     1       4.914   4.195  16.577  0.00  0.00    +0.000 C 
BRANCH  20  21
ATOM     21  C   UNL     1       6.341   4.444  16.026  0.00  0.00    +0.000 C 
BRANCH  21  22
ATOM     22  C   UNL     1       7.143   5.123  17.132  0.00  0.00    +0.000 C 
ATOM     23  O   UNL     1       7.750   4.483  17.986  0.00  0.00    +0.000 OA
ATOM     24  N   UNL     1       7.210   6.495  17.025  0.00  0.00    +0.000 N 
ATOM     25  C   UNL     1       7.885   7.312  18.009  0.00  0.00    +0.000 C 
ATOM     26  H   UNL     1       6.616   6.974  16.357  0.00  0.00    +0.000 HD
ENDBRANCH  21  22
BRANCH  21  27
ATOM     27  C   UNL     1       6.294   5.325  14.759  0.00  0.00    +0.000 C 
BRANCH  27  29
ATOM     28  C   UNL     1       6.167   3.588  12.947  0.00  0.00    +0.000 C 
ATOM     29  C   UNL     1       6.754   4.662  13.489  0.00  0.00    +0.000 C 
ATOM     30 CL   UNL     1       8.190   5.301  12.768  0.00  0.00    +0.000 Cl
ENDBRANCH  27  29
ENDBRANCH  21  27
ENDBRANCH  20  21
ENDBRANCH  17  20
ENDBRANCH   1  17
BRANCH   1  31
ATOM     31  C   UNL     1       2.207   3.877  17.523  0.00  0.00    +0.000 C 
BRANCH  31  32
ATOM     32  C   UNL     1       2.040   2.433  18.018  0.00  0.00    +0.000 C 
ATOM     33  C   UNL     1       3.207   1.986  18.918  0.00  0.00    +0.000 C 
ATOM     34  C   UNL     1       3.210   2.701  20.266  0.00  0.00    +0.000 C 
ATOM     35  C   UNL     1       1.881   2.512  20.988  0.00  0.00    +0.000 C 
ATOM     36  C   UNL     1       0.686   2.927  20.134  0.00  0.00    +0.000 C 
ATOM     37  C   UNL     1       0.704   2.263  18.759  0.00  0.00    +0.000 C 
ENDBRANCH  31  32
ENDBRANCH   1  31
TORSDOF 11
ENDMDL
MODEL 4
REMARK VINA RESULT:      -7.7      2.481      2.900
REMARK  Name = 
REMARK  12 active torsions:
REMARK  status: ('A' for Active; 'I' for Inactive)
REMARK    1  A    between atoms: C_2  and  C_4
REMARK    2  A    between atoms: C_4  and  C_5
REMARK    3  A    between atoms: C_5  and  C_6
REMARK    4  A    between atoms: C_5  and  C_30
REMARK    5  A    between atoms: C_6  and  C_7
REMARK    6  A    between atoms: C_7  and  O_8
REMARK    7  A    between atoms: C_7  and  C_9
REMARK    8  A    between atoms: C_9  and  C_10
REMARK    9  A    between atoms: C_9  and  N_17
REMARK   10  A    between atoms: C_10  and  C_11
REMARK   11  A    between atoms: C_18  and  C_20
REMARK   12  A    between atoms: N_32  and  C_33
REMARK                            x       y       z     vdW  Elec       q    Type
REMARK                         _______ _______ _______ _____ _____    ______ ____
ROOT
ATOM      1  C   UNL     1       4.073   5.240  18.396  0.00  0.00    +0.000 C 
ENDROOT
BRANCH   1   2
ATOM      2  N   UNL     1       3.328   6.513  18.509  0.00  0.00    +0.000 N 
ATOM      3  C   UNL     1       3.406   7.572  17.624  0.00  0.00    +0.000 C 
ATOM      4  O   UNL     1       4.226   7.647  16.717  0.00  0.00    +0.000 OA
ATOM      5  H   UNL     1       2.620   6.553  19.220  0.00  0.00    +0.000 HD
BRANCH   3   6
ATOM      6  C   UNL     1       2.424   8.614  17.829  0.00  0.00    +0.000 A 
ATOM      7  C   UNL     1       1.044   8.482  17.813  0.00  0.00    +0.000 A 
ATOM      8  C   UNL     1       0.465   9.739  18.132  0.00  0.00    +0.000 A 
ATOM      9  C   UNL     1      -0.857  10.210  18.295  0.00  0.00    +0.000 A 
ATOM     10  C   UNL     1      -1.046  11.544  18.636  0.00  0.00    +0.000 A 
ATOM     11 CL   UNL     1      -2.653  12.138  18.856  0.00  0.00    +0.000 Cl
ATOM     12  C   UNL     1       0.026  12.419  18.810  0.00  0.00    +0.000 A 
ATOM     13  C   UNL     1       1.336  11.968  18.655  0.00  0.00    +0.000 A 
ATOM     14  C   UNL     1       1.520  10.629  18.320  0.00  0.00    +0.000 A 
ATOM     15  N   UNL     1       2.682   9.929  18.130  0.00  0.00    +0.000 N 
ATOM     16  H   UNL     1       3.593  10.338  18.251  0.00  0.00    +0.000 HD
ENDBRANCH   3   6
ENDBRANCH   1   2
BRANCH   1  17
ATOM     17  C   UNL     1       3.835   4.610  16.974  0.00  0.00    +0.000 C 
BRANCH  17  18
ATOM     18  O   UNL     1       2.831   3.600  16.935  0.00  0.00    +0.000 OA
ATOM     19  H   UNL     1       2.518   3.415  17.837  0.00  0.00    +0.000 HD
ENDBRANCH  17  18
BRANCH  17  20
ATOM     20  C   UNL     1       5.108   3.980  16.375  0.00  0.00    +0.000 C 
BRANCH  20  21
ATOM     21  C   UNL     1       6.266   4.982  16.137  0.00  0.00    +0.000 C 
BRANCH  21  22
ATOM     22  C   UNL     1       6.753   4.781  14.705  0.00  0.00    +0.000 C 
ATOM     23  O   UNL     1       7.705   5.405  14.245  0.00  0.00    +0.000 OA
ATOM     24  N   UNL     1       6.106   3.776  14.020  0.00  0.00    +0.000 N 
ATOM     25  C   UNL     1       6.399   3.473  12.637  0.00  0.00    +0.000 C 
ATOM     26  H   UNL     1       5.271   3.359  14.417  0.00  0.00    +0.000 HD
ENDBRANCH  21  22
BRANCH  21  27
ATOM     27  C   UNL     1       7.411   4.749  17.146  0.00  0.00    +0.000 C 
BRANCH  27  29
ATOM     28  C   UNL     1       7.778   5.673  19.454  0.00  0.00    +0.000 C 
ATOM     29  C   UNL     1       7.641   5.858  18.135  0.00  0.00    +0.000 C 
ATOM     30 CL   UNL     1       7.627   7.467  17.499  0.00  0.00    +0.000 Cl
ENDBRANCH  27  29
ENDBRANCH  21  27
ENDBRANCH  20  21
ENDBRANCH  17  20
ENDBRANCH   1  17
BRANCH   1  31
ATOM     31  C   UNL     1       3.705   4.299  19.567  0.00  0.00    +0.000 C 
BRANCH  31  32
ATOM     32  C   UNL     1       2.542   4.717  20.478  0.00  0.00    +0.000 C 
ATOM     33  C   UNL     1       1.170   4.456  19.832  0.00  0.00    +0.000 C 
ATOM     34  C   UNL     1       0.856   2.967  19.713  0.00  0.00    +0.000 C 
ATOM     35  C   UNL     1       0.942   2.280  21.070  0.00  0.00    +0.000 C 
ATOM     36  C   UNL     1       2.280   2.520  21.765  0.00  0.00    +0.000 C 
ATOM     37  C   UNL     1       2.633   4.003  21.837  0.00  0.00    +0.000 C 
ENDBRANCH  31  32
ENDBRANCH   1  31
TORSDOF 11
ENDMDL
MODEL 5
REMARK VINA RESULT:      -7.7      1.989      3.172
REMARK  Name = 
REMARK  12 active torsions:
REMARK  status: ('A' for Active; 'I' for Inactive)
REMARK    1  A    between atoms: C_2  and  C_4
REMARK    2  A    between atoms: C_4  and  C_5
REMARK    3  A    between atoms: C_5  and  C_6
REMARK    4  A    between atoms: C_5  and  C_30
REMARK    5  A    between atoms: C_6  and  C_7
REMARK    6  A    between atoms: C_7  and  O_8
REMARK    7  A    between atoms: C_7  and  C_9
REMARK    8  A    between atoms: C_9  and  C_10
REMARK    9  A    between atoms: C_9  and  N_17
REMARK   10  A    between atoms: C_10  and  C_11
REMARK   11  A    between atoms: C_18  and  C_20
REMARK   12  A    between atoms: N_32  and  C_33
REMARK                            x       y       z     vdW  Elec       q    Type
REMARK                         _______ _______ _______ _____ _____    ______ ____
ROOT
ATOM      1  C   UNL     1       3.613   5.429  18.996  0.00  0.00    +0.000 C 
ENDROOT
BRANCH   1   2
ATOM      2  N   UNL     1       2.945   6.560  19.676  0.00  0.00    +0.000 N 
ATOM      3  C   UNL     1       2.189   7.538  19.056  0.00  0.00    +0.000 C 
ATOM      4  O   UNL     1       2.113   7.676  17.842  0.00  0.00    +0.000 OA
ATOM      5  H   UNL     1       2.941   6.537  20.680  0.00  0.00    +0.000 HD
BRANCH   3   6
ATOM      6  C   UNL     1       1.462   8.409  19.953  0.00  0.00    +0.000 A 
ATOM      7  C   UNL     1       0.796   9.581  19.629  0.00  0.00    +0.000 A 
ATOM      8  C   UNL     1       0.158  10.078  20.797  0.00  0.00    +0.000 A 
ATOM      9  C   UNL     1      -0.669  11.187  21.080  0.00  0.00    +0.000 A 
ATOM     10  C   UNL     1      -1.135  11.349  22.380  0.00  0.00    +0.000 A 
ATOM     11 CL   UNL     1      -2.161  12.690  22.746  0.00  0.00    +0.000 Cl
ATOM     12  C   UNL     1      -0.801  10.458  23.398  0.00  0.00    +0.000 A 
ATOM     13  C   UNL     1       0.012   9.356  23.133  0.00  0.00    +0.000 A 
ATOM     14  C   UNL     1       0.470   9.195  21.828  0.00  0.00    +0.000 A 
ATOM     15  N   UNL     1       1.254   8.207  21.295  0.00  0.00    +0.000 N 
ATOM     16  H   UNL     1       1.580   7.420  21.830  0.00  0.00    +0.000 HD
ENDBRANCH   3   6
ENDBRANCH   1   2
BRANCH   1  17
ATOM     17  C   UNL     1       4.825   5.961  18.145  0.00  0.00    +0.000 C 
BRANCH  17  18
ATOM     18  O   UNL     1       4.458   6.797  17.052  0.00  0.00    +0.000 OA
ATOM     19  H   UNL     1       4.108   6.252  16.327  0.00  0.00    +0.000 HD
ENDBRANCH  17  18
BRANCH  17  20
ATOM     20  C   UNL     1       5.688   4.828  17.556  0.00  0.00    +0.000 C 
BRANCH  20  21
ATOM     21  C   UNL     1       6.995   5.307  16.875  0.00  0.00    +0.000 C 
BRANCH  21  22
ATOM     22  C   UNL     1       7.600   6.390  17.764  0.00  0.00    +0.000 C 
ATOM     23  O   UNL     1       8.113   6.132  18.849  0.00  0.00    +0.000 OA
ATOM     24  N   UNL     1       7.611   7.647  17.201  0.00  0.00    +0.000 N 
ATOM     25  C   UNL     1       8.101   8.806  17.914  0.00  0.00    +0.000 C 
ATOM     26  H   UNL     1       7.093   7.816  16.346  0.00  0.00    +0.000 HD
ENDBRANCH  21  22
BRANCH  21  27
ATOM     27  C   UNL     1       6.708   5.853  15.460  0.00  0.00    +0.000 C 
BRANCH  27  29
ATOM     28  C   UNL     1       7.833   5.090  13.346  0.00  0.00    +0.000 C 
ATOM     29  C   UNL     1       6.949   4.889  14.331  0.00  0.00    +0.000 C 
ATOM     30 CL   UNL     1       5.931   3.491  14.288  0.00  0.00    +0.000 Cl
ENDBRANCH  27  29
ENDBRANCH  21  27
ENDBRANCH  20  21
ENDBRANCH  17  20
ENDBRANCH   1  17
BRANCH   1  31
ATOM     31  C   UNL     1       2.584   4.613  18.179  0.00  0.00    +0.000 C 
BRANCH  31  32
ATOM     32  C   UNL     1       2.508   3.102  18.437  0.00  0.00    +0.000 C 
ATOM     33  C   UNL     1       3.390   2.665  19.620  0.00  0.00    +0.000 C 
ATOM     34  C   UNL     1       2.855   3.162  20.960  0.00  0.00    +0.000 C 
ATOM     35  C   UNL     1       1.417   2.709  21.176  0.00  0.00    +0.000 C 
ATOM     36  C   UNL     1       0.498   3.103  20.022  0.00  0.00    +0.000 C 
ATOM     37  C   UNL     1       1.053   2.663  18.670  0.00  0.00    +0.000 C 
ENDBRANCH  31  32
ENDBRANCH   1  31
TORSDOF 11
ENDMDL
MODEL 6
REMARK VINA RESULT:      -7.7      0.832      1.419
REMARK  Name = 
REMARK  12 active torsions:
REMARK  status: ('A' for Active; 'I' for Inactive)
REMARK    1  A    between atoms: C_2  and  C_4
REMARK    2  A    between atoms: C_4  and  C_5
REMARK    3  A    between atoms: C_5  and  C_6
REMARK    4  A    between atoms: C_5  and  C_30
REMARK    5  A    between atoms: C_6  and  C_7
REMARK    6  A    between atoms: C_7  and  O_8
REMARK    7  A    between atoms: C_7  and  C_9
REMARK    8  A    between atoms: C_9  and  C_10
REMARK    9  A    between atoms: C_9  and  N_17
REMARK   10  A    between atoms: C_10  and  C_11
REMARK   11  A    between atoms: C_18  and  C_20
REMARK   12  A    between atoms: N_32  and  C_33
REMARK                            x       y       z     vdW  Elec       q    Type
REMARK                         _______ _______ _______ _____ _____    ______ ____
ROOT
ATOM      1  C   UNL     1       3.027   6.518  18.709  0.00  0.00    +0.000 C 
ENDROOT
BRANCH   1   2
ATOM      2  N   UNL     1       2.154   7.577  19.259  0.00  0.00    +0.000 N 
ATOM      3  C   UNL     1       1.524   7.542  20.490  0.00  0.00    +0.000 C 
ATOM      4  O   UNL     1       1.486   6.553  21.210  0.00  0.00    +0.000 OA
ATOM      5  H   UNL     1       2.122   8.439  18.746  0.00  0.00    +0.000 HD
BRANCH   3   6
ATOM      6  C   UNL     1       0.903   8.784  20.894  0.00  0.00    +0.000 A 
ATOM      7  C   UNL     1       0.063   8.989  21.978  0.00  0.00    +0.000 A 
ATOM      8  C   UNL     1      -0.258  10.371  22.047  0.00  0.00    +0.000 A 
ATOM      9  C   UNL     1      -1.025  11.169  22.926  0.00  0.00    +0.000 A 
ATOM     10  C   UNL     1      -1.103  12.534  22.680  0.00  0.00    +0.000 A 
ATOM     11 CL   UNL     1      -2.023  13.532  23.749  0.00  0.00    +0.000 Cl
ATOM     12  C   UNL     1      -0.457  13.125  21.595  0.00  0.00    +0.000 A 
ATOM     13  C   UNL     1       0.306  12.352  20.721  0.00  0.00    +0.000 A 
ATOM     14  C   UNL     1       0.386  10.985  20.976  0.00  0.00    +0.000 A 
ATOM     15  N   UNL     1       1.072  10.011  20.301  0.00  0.00    +0.000 N 
ATOM     16  H   UNL     1       1.657  10.205  19.505  0.00  0.00    +0.000 HD
ENDBRANCH   3   6
ENDBRANCH   1   2
BRANCH   1  17
ATOM     17  C   UNL     1       3.959   7.121  17.594  0.00  0.00    +0.000 C 
BRANCH  17  18
ATOM     18  O   UNL     1       3.305   8.014  16.696  0.00  0.00    +0.000 OA
ATOM     19  H   UNL     1       3.310   8.912  17.069  0.00  0.00    +0.000 HD
ENDBRANCH  17  18
BRANCH  17  20
ATOM     20  C   UNL     1       4.630   6.041  16.722  0.00  0.00    +0.000 C 
BRANCH  20  21
ATOM     21  C   UNL     1       6.171   5.971  16.864  0.00  0.00    +0.000 C 
BRANCH  21  22
ATOM     22  C   UNL     1       6.682   5.013  15.791  0.00  0.00    +0.000 C 
ATOM     23  O   UNL     1       7.778   4.466  15.872  0.00  0.00    +0.000 OA
ATOM     24  N   UNL     1       5.773   4.742  14.791  0.00  0.00    +0.000 N 
ATOM     25  C   UNL     1       6.098   3.896  13.664  0.00  0.00    +0.000 C 
ATOM     26  H   UNL     1       4.924   5.291  14.727  0.00  0.00    +0.000 HD
ENDBRANCH  21  22
BRANCH  21  27
ATOM     27  C   UNL     1       6.572   5.484  18.272  0.00  0.00    +0.000 C 
BRANCH  27  29
ATOM     28  C   UNL     1       8.191   7.394  18.482  0.00  0.00    +0.000 C 
ATOM     29  C   UNL     1       7.720   6.217  18.910  0.00  0.00    +0.000 C 
ATOM     30 CL   UNL     1       8.513   5.409  20.218  0.00  0.00    +0.000 Cl
ENDBRANCH  27  29
ENDBRANCH  21  27
ENDBRANCH  20  21
ENDBRANCH  17  20
ENDBRANCH   1  17
BRANCH   1  31
ATOM     31  C   UNL     1       2.177   5.317  18.233  0.00  0.00    +0.000 C 
BRANCH  31  32
ATOM     32  C   UNL     1       2.784   3.914  18.371  0.00  0.00    +0.000 C 
ATOM     33  C   UNL     1       3.467   3.704  19.735  0.00  0.00    +0.000 C 
ATOM     34  C   UNL     1       2.463   3.643  20.884  0.00  0.00    +0.000 C 
ATOM     35  C   UNL     1       1.419   2.561  20.641  0.00  0.00    +0.000 C 
ATOM     36  C   UNL     1       0.721   2.711  19.292  0.00  0.00    +0.000 C 
ATOM     37  C   UNL     1       1.716   2.833  18.141  0.00  0.00    +0.000 C 
ENDBRANCH  31  32
ENDBRANCH   1  31
TORSDOF 11
ENDMDL
MODEL 7
REMARK VINA RESULT:      -7.6      2.252      3.571
REMARK  Name = 
REMARK  12 active torsions:
REMARK  status: ('A' for Active; 'I' for Inactive)
REMARK    1  A    between atoms: C_2  and  C_4
REMARK    2  A    between atoms: C_4  and  C_5
REMARK    3  A    between atoms: C_5  and  C_6
REMARK    4  A    between atoms: C_5  and  C_30
REMARK    5  A    between atoms: C_6  and  C_7
REMARK    6  A    between atoms: C_7  and  O_8
REMARK    7  A    between atoms: C_7  and  C_9
REMARK    8  A    between atoms: C_9  and  C_10
REMARK    9  A    between atoms: C_9  and  N_17
REMARK   10  A    between atoms: C_10  and  C_11
REMARK   11  A    between atoms: C_18  and  C_20
REMARK   12  A    between atoms: N_32  and  C_33
REMARK                            x       y       z     vdW  Elec       q    Type
REMARK                         _______ _______ _______ _____ _____    ______ ____
ROOT
ATOM      1  C   UNL     1       3.410   4.564  17.852  0.00  0.00    +0.000 C 
ENDROOT
BRANCH   1   2
ATOM      2  N   UNL     1       2.648   5.768  18.251  0.00  0.00    +0.000 N 
ATOM      3  C   UNL     1       2.723   6.395  19.481  0.00  0.00    +0.000 C 
ATOM      4  O   UNL     1       3.315   5.934  20.449  0.00  0.00    +0.000 OA
ATOM      5  H   UNL     1       2.134   6.230  17.524  0.00  0.00    +0.000 HD
BRANCH   3   6
ATOM      6  C   UNL     1       2.051   7.673  19.557  0.00  0.00    +0.000 A 
ATOM      7  C   UNL     1       1.884   8.596  18.536  0.00  0.00    +0.000 A 
ATOM      8  C   UNL     1       1.103   9.677  19.025  0.00  0.00    +0.000 A 
ATOM      9  C   UNL     1       0.592  10.867  18.461  0.00  0.00    +0.000 A 
ATOM     10  C   UNL     1      -0.171  11.705  19.266  0.00  0.00    +0.000 A 
ATOM     11 CL   UNL     1      -0.819  13.158  18.593  0.00  0.00    +0.000 Cl
ATOM     12  C   UNL     1      -0.432  11.406  20.602  0.00  0.00    +0.000 A 
ATOM     13  C   UNL     1       0.064  10.234  21.172  0.00  0.00    +0.000 A 
ATOM     14  C   UNL     1       0.821   9.394  20.359  0.00  0.00    +0.000 A 
ATOM     15  N   UNL     1       1.403   8.190  20.652  0.00  0.00    +0.000 N 
ATOM     16  H   UNL     1       1.310   7.741  21.548  0.00  0.00    +0.000 HD
ENDBRANCH   3   6
ENDBRANCH   1   2
BRANCH   1  17
ATOM     17  C   UNL     1       4.646   4.983  16.974  0.00  0.00    +0.000 C 
BRANCH  17  18
ATOM     18  O   UNL     1       4.454   6.169  16.209  0.00  0.00    +0.000 OA
ATOM     19  H   UNL     1       3.780   6.726  16.634  0.00  0.00    +0.000 HD
ENDBRANCH  17  18
BRANCH  17  20
ATOM     20  C   UNL     1       5.076   3.887  15.979  0.00  0.00    +0.000 C 
BRANCH  20  21
ATOM     21  C   UNL     1       6.542   4.005  15.491  0.00  0.00    +0.000 C 
BRANCH  21  22
ATOM     22  C   UNL     1       7.315   4.776  16.557  0.00  0.00    +0.000 C 
ATOM     23  O   UNL     1       8.035   4.213  17.376  0.00  0.00    +0.000 OA
ATOM     24  N   UNL     1       7.215   6.146  16.452  0.00  0.00    +0.000 N 
ATOM     25  C   UNL     1       7.840   7.039  17.404  0.00  0.00    +0.000 C 
ATOM     26  H   UNL     1       6.536   6.550  15.818  0.00  0.00    +0.000 HD
ENDBRANCH  21  22
BRANCH  21  27
ATOM     27  C   UNL     1       6.611   4.729  14.129  0.00  0.00    +0.000 C 
BRANCH  27  29
ATOM     28  C   UNL     1       4.928   3.563  12.672  0.00  0.00    +0.000 C 
ATOM     29  C   UNL     1       6.192   3.913  12.937  0.00  0.00    +0.000 C 
ATOM     30 CL   UNL     1       7.467   3.329  11.923  0.00  0.00    +0.000 Cl
ENDBRANCH  27  29
ENDBRANCH  21  27
ENDBRANCH  20  21
ENDBRANCH  17  20
ENDBRANCH   1  17
BRANCH   1  31
ATOM     31  C   UNL     1       2.474   3.542  17.166  0.00  0.00    +0.000 C 
BRANCH  31  32
ATOM     32  C   UNL     1       2.277   2.183  17.854  0.00  0.00    +0.000 C 
ATOM     33  C   UNL     1       3.482   1.791  18.729  0.00  0.00    +0.000 C 
ATOM     34  C   UNL     1       3.610   2.669  19.970  0.00  0.00    +0.000 C 
ATOM     35  C   UNL     1       2.328   2.644  20.793  0.00  0.00    +0.000 C 
ATOM     36  C   UNL     1       1.096   3.011  19.969  0.00  0.00    +0.000 C 
ATOM     37  C   UNL     1       0.989   2.179  18.693  0.00  0.00    +0.000 C 
ENDBRANCH  31  32
ENDBRANCH   1  31
TORSDOF 11
ENDMDL
MODEL 8
REMARK VINA RESULT:      -7.6      1.040      1.340
REMARK  Name = 
REMARK  12 active torsions:
REMARK  status: ('A' for Active; 'I' for Inactive)
REMARK    1  A    between atoms: C_2  and  C_4
REMARK    2  A    between atoms: C_4  and  C_5
REMARK    3  A    between atoms: C_5  and  C_6
REMARK    4  A    between atoms: C_5  and  C_30
REMARK    5  A    between atoms: C_6  and  C_7
REMARK    6  A    between atoms: C_7  and  O_8
REMARK    7  A    between atoms: C_7  and  C_9
REMARK    8  A    between atoms: C_9  and  C_10
REMARK    9  A    between atoms: C_9  and  N_17
REMARK   10  A    between atoms: C_10  and  C_11
REMARK   11  A    between atoms: C_18  and  C_20
REMARK   12  A    between atoms: N_32  and  C_33
REMARK                            x       y       z     vdW  Elec       q    Type
REMARK                         _______ _______ _______ _____ _____    ______ ____
ROOT
ATOM      1  C   UNL     1       3.152   6.842  18.690  0.00  0.00    +0.000 C 
ENDROOT
BRANCH   1   2
ATOM      2  N   UNL     1       2.176   7.940  18.858  0.00  0.00    +0.000 N 
ATOM      3  C   UNL     1       1.545   8.281  20.041  0.00  0.00    +0.000 C 
ATOM      4  O   UNL     1       1.600   7.609  21.063  0.00  0.00    +0.000 OA
ATOM      5  H   UNL     1       2.064   8.559  18.077  0.00  0.00    +0.000 HD
BRANCH   3   6
ATOM      6  C   UNL     1       0.803   9.521  20.002  0.00  0.00    +0.000 A 
ATOM      7  C   UNL     1      -0.262   9.889  20.810  0.00  0.00    +0.000 A 
ATOM      8  C   UNL     1      -0.643  11.217  20.482  0.00  0.00    +0.000 A 
ATOM      9  C   UNL     1      -1.615  12.120  20.969  0.00  0.00    +0.000 A 
ATOM     10  C   UNL     1      -1.689  13.384  20.395  0.00  0.00    +0.000 A 
ATOM     11 CL   UNL     1      -2.859  14.509  20.984  0.00  0.00    +0.000 Cl
ATOM     12  C   UNL     1      -0.842  13.772  19.357  0.00  0.00    +0.000 A 
ATOM     13  C   UNL     1       0.123  12.893  18.868  0.00  0.00    +0.000 A 
ATOM     14  C   UNL     1       0.197  11.631  19.451  0.00  0.00    +0.000 A 
ATOM     15  N   UNL     1       1.052  10.595  19.182  0.00  0.00    +0.000 N 
ATOM     16  H   UNL     1       1.790  10.657  18.501  0.00  0.00    +0.000 HD
ENDBRANCH   3   6
ENDBRANCH   1   2
BRANCH   1  17
ATOM     17  C   UNL     1       4.090   7.146  17.465  0.00  0.00    +0.000 C 
BRANCH  17  18
ATOM     18  O   UNL     1       3.471   7.883  16.414  0.00  0.00    +0.000 OA
ATOM     19  H   UNL     1       2.918   7.288  15.880  0.00  0.00    +0.000 HD
ENDBRANCH  17  18
BRANCH  17  20
ATOM     20  C   UNL     1       4.670   5.871  16.820  0.00  0.00    +0.000 C 
BRANCH  20  21
ATOM     21  C   UNL     1       6.211   5.875  16.668  0.00  0.00    +0.000 C 
BRANCH  21  22
ATOM     22  C   UNL     1       6.537   5.219  15.328  0.00  0.00    +0.000 C 
ATOM     23  O   UNL     1       7.643   5.320  14.804  0.00  0.00    +0.000 OA
ATOM     24  N   UNL     1       5.528   4.430  14.822  0.00  0.00    +0.000 N 
ATOM     25  C   UNL     1       5.638   3.768  13.540  0.00  0.00    +0.000 C 
ATOM     26  H   UNL     1       4.610   4.458  15.249  0.00  0.00    +0.000 HD
ENDBRANCH  21  22
BRANCH  21  27
ATOM     27  C   UNL     1       6.880   5.113  17.831  0.00  0.00    +0.000 C 
BRANCH  27  29
ATOM     28  C   UNL     1       8.156   5.542  19.954  0.00  0.00    +0.000 C 
ATOM     29  C   UNL     1       7.727   5.948  18.753  0.00  0.00    +0.000 C 
ATOM     30 CL   UNL     1       8.066   7.561  18.229  0.00  0.00    +0.000 Cl
ENDBRANCH  27  29
ENDBRANCH  21  27
ENDBRANCH  20  21
ENDBRANCH  17  20
ENDBRANCH   1  17
BRANCH   1  31
ATOM     31  C   UNL     1       2.418   5.484  18.594  0.00  0.00    +0.000 C 
BRANCH  31  32
ATOM     32  C   UNL     1       2.545   4.519  19.781  0.00  0.00    +0.000 C 
ATOM     33  C   UNL     1       1.200   3.870  20.154  0.00  0.00    +0.000 C 
ATOM     34  C   UNL     1       0.718   2.881  19.096  0.00  0.00    +0.000 C 
ATOM     35  C   UNL     1       1.768   1.810  18.829  0.00  0.00    +0.000 C 
ATOM     36  C   UNL     1       3.129   2.400  18.469  0.00  0.00    +0.000 C 
ATOM     37  C   UNL     1       3.595   3.434  19.491  0.00  0.00    +0.000 C 
ENDBRANCH  31  32
ENDBRANCH   1  31
TORSDOF 11
ENDMDL
MODEL 9
REMARK VINA RESULT:      -7.6      1.133      1.282
REMARK  Name = 
REMARK  12 active torsions:
REMARK  status: ('A' for Active; 'I' for Inactive)
REMARK    1  A    between atoms: C_2  and  C_4
REMARK    2  A    between atoms: C_4  and  C_5
REMARK    3  A    between atoms: C_5  and  C_6
REMARK    4  A    between atoms: C_5  and  C_30
REMARK    5  A    between atoms: C_6  and  C_7
REMARK    6  A    between atoms: C_7  and  O_8
REMARK    7  A    between atoms: C_7  and  C_9
REMARK    8  A    between atoms: C_9  and  C_10
REMARK    9  A    between atoms: C_9  and  N_17
REMARK   10  A    between atoms: C_10  and  C_11
REMARK   11  A    between atoms: C_18  and  C_20
REMARK   12  A    between atoms: N_32  and  C_33
REMARK                            x       y       z     vdW  Elec       q    Type
REMARK                         _______ _______ _______ _____ _____    ______ ____
ROOT
ATOM      1  C   UNL     1       2.532   7.074  19.287  0.00  0.00    +0.000 C 
ENDROOT
BRANCH   1   2
ATOM      2  N   UNL     1       1.504   8.068  19.665  0.00  0.00    +0.000 N 
ATOM      3  C   UNL     1       1.230   8.491  20.953  0.00  0.00    +0.000 C 
ATOM      4  O   UNL     1       1.703   7.974  21.957  0.00  0.00    +0.000 OA
ATOM      5  H   UNL     1       1.061   8.559  18.910  0.00  0.00    +0.000 HD
BRANCH   3   6
ATOM      6  C   UNL     1       0.336   9.623  21.046  0.00  0.00    +0.000 A 
ATOM      7  C   UNL     1      -0.108  10.250  22.201  0.00  0.00    +0.000 A 
ATOM      8  C   UNL     1      -0.913  11.361  21.834  0.00  0.00    +0.000 A 
ATOM      9  C   UNL     1      -1.598  12.369  22.547  0.00  0.00    +0.000 A 
ATOM     10  C   UNL     1      -2.292  13.334  21.826  0.00  0.00    +0.000 A 
ATOM     11 CL   UNL     1      -3.126  14.584  22.677  0.00  0.00    +0.000 Cl
ATOM     12  C   UNL     1      -2.332  13.324  20.432  0.00  0.00    +0.000 A 
ATOM     13  C   UNL     1      -1.658  12.337  19.714  0.00  0.00    +0.000 A 
ATOM     14  C   UNL     1      -0.959  11.377  20.442  0.00  0.00    +0.000 A 
ATOM     15  N   UNL     1      -0.205  10.324  19.997  0.00  0.00    +0.000 N 
ATOM     16  H   UNL     1      -0.044  10.140  19.020  0.00  0.00    +0.000 HD
ENDBRANCH   3   6
ENDBRANCH   1   2
BRANCH   1  17
ATOM     17  C   UNL     1       3.331   7.586  18.032  0.00  0.00    +0.000 C 
BRANCH  17  18
ATOM     18  O   UNL     1       2.633   8.538  17.234  0.00  0.00    +0.000 OA
ATOM     19  H   UNL     1       2.580   9.385  17.708  0.00  0.00    +0.000 HD
ENDBRANCH  17  18
BRANCH  17  20
ATOM     20  C   UNL     1       3.752   6.447  17.082  0.00  0.00    +0.000 C 
BRANCH  20  21
ATOM     21  C   UNL     1       5.284   6.256  16.952  0.00  0.00    +0.000 C 
BRANCH  21  22
ATOM     22  C   UNL     1       5.519   5.181  15.894  0.00  0.00    +0.000 C 
ATOM     23  O   UNL     1       4.875   4.136  15.870  0.00  0.00    +0.000 OA
ATOM     24  N   UNL     1       6.432   5.530  14.923  0.00  0.00    +0.000 N 
ATOM     25  C   UNL     1       6.819   4.619  13.867  0.00  0.00    +0.000 C 
ATOM     26  H   UNL     1       6.998   6.362  15.045  0.00  0.00    +0.000 HD
ENDBRANCH  21  22
BRANCH  21  27
ATOM     27  C   UNL     1       5.903   5.843  18.304  0.00  0.00    +0.000 C 
BRANCH  27  29
ATOM     28  C   UNL     1       8.148   5.738  19.429  0.00  0.00    +0.000 C 
ATOM     29  C   UNL     1       7.321   6.289  18.532  0.00  0.00    +0.000 C 
ATOM     30 CL   UNL     1       7.846   7.665  17.625  0.00  0.00    +0.000 Cl
ENDBRANCH  27  29
ENDBRANCH  21  27
ENDBRANCH  20  21
ENDBRANCH  17  20
ENDBRANCH   1  17
BRANCH   1  31
ATOM     31  C   UNL     1       1.886   5.683  19.092  0.00  0.00    +0.000 C 
BRANCH  31  32
ATOM     32  C   UNL     1       2.096   4.638  20.198  0.00  0.00    +0.000 C 
ATOM     33  C   UNL     1       0.943   3.621  20.268  0.00  0.00    +0.000 C 
ATOM     34  C   UNL     1       0.915   2.687  19.061  0.00  0.00    +0.000 C 
ATOM     35  C   UNL     1       2.248   1.967  18.897  0.00  0.00    +0.000 C 
ATOM     36  C   UNL     1       3.432   2.930  18.837  0.00  0.00    +0.000 C 
ATOM     37  C   UNL     1       3.436   3.909  20.009  0.00  0.00    +0.000 C 
ENDBRANCH  31  32
ENDBRANCH   1  31
TORSDOF 11
ENDMDL
