MODEL 1
REMARK VINA RESULT:      -7.9      0.000      0.000
REMARK  Name = 
REMARK  6 active torsions:
REMARK  status: ('A' for Active; 'I' for Inactive)
REMARK    1  A    between atoms: C_1  and  O_2
REMARK    2  A    between atoms: O_2  and  C_3
REMARK    3  A    between atoms: C_6  and  N_7
REMARK    4  A    between atoms: C_11  and  C_13
REMARK    5  A    between atoms: C_13  and  C_14
REMARK    6  A    between atoms: C_14  and  N_15
REMARK                            x       y       z     vdW  Elec       q    Type
REMARK                         _______ _______ _______ _____ _____    ______ ____
ROOT
ATOM      1  N   UNL     1       4.948   5.126  17.613  0.00  0.00    +0.000 N 
ATOM      2  C   UNL     1       3.995   6.230  17.834  0.00  0.00    +0.000 C 
ATOM      3  C   UNL     1       2.647   5.676  18.326  0.00  0.00    +0.000 C 
ATOM      4  N   UNL     1       2.820   4.817  19.499  0.00  0.00    +0.000 N 
ATOM      5  C   UNL     1       2.158   4.974  20.705  0.00  0.00    +0.000 C 
ATOM      6  O   UNL     1       2.361   4.219  21.654  0.00  0.00    +0.000 OA
ATOM      7  C   UNL     1       3.780   3.717  19.293  0.00  0.00    +0.000 C 
ATOM      8  C   UNL     1       5.138   4.234  18.775  0.00  0.00    +0.000 C 
ENDROOT
BRANCH   1  12
ATOM      9  C   UNL     1       6.746   4.471  13.841  0.00  0.00    +0.000 A 
ATOM     10  C   UNL     1       5.471   3.992  14.112  0.00  0.00    +0.000 A 
ATOM     11  C   UNL     1       4.877   4.228  15.357  0.00  0.00    +0.000 A 
ATOM     12  C   UNL     1       5.537   4.923  16.382  0.00  0.00    +0.000 A 
ATOM     13  C   UNL     1       6.829   5.383  16.083  0.00  0.00    +0.000 A 
ATOM     14  C   UNL     1       7.431   5.159  14.835  0.00  0.00    +0.000 A 
BRANCH   9  16
ATOM     15  C   UNL     1       6.495   3.201  11.871  0.00  0.00    +0.000 C 
ATOM     16  O   UNL     1       7.228   4.180  12.597  0.00  0.00    +0.000 OA
ENDBRANCH   9  16
ENDBRANCH   1  12
BRANCH   5  17
ATOM     17  C   UNL     1       1.161   6.132  20.806  0.00  0.00    +0.000 C 
BRANCH  17  18
ATOM     18  C   UNL     1       1.902   7.454  20.924  0.00  0.00    +0.000 C 
BRANCH  18  19
ATOM     19  N   UNL     1       1.097   8.701  20.953  0.00  0.00    +0.000 N 
ATOM     20  C   UNL     1       0.887   9.465  19.783  0.00  0.00    +0.000 C 
ATOM     21  O   UNL     1       1.293   9.188  18.671  0.00  0.00    +0.000 OA
ATOM     22  C   UNL     1       0.167  10.699  20.124  0.00  0.00    +0.000 A 
ATOM     23  C   UNL     1      -0.226  11.681  19.233  0.00  0.00    +0.000 A 
ATOM     24  C   UNL     1      -0.811  12.838  19.749  0.00  0.00    +0.000 A 
ATOM     25  C   UNL     1      -0.933  13.016  21.141  0.00  0.00    +0.000 A 
ATOM     26  C   UNL     1      -0.560  11.999  22.031  0.00  0.00    +0.000 A 
ATOM     27  C   UNL     1      -0.070  10.826  21.483  0.00  0.00    +0.000 A 
ATOM     28  S   UNL     1       0.292   9.316  22.288  0.00  0.00    +0.000 S 
ATOM     29  O   UNL     1      -0.949   8.600  22.458  0.00  0.00    +0.000 OA
ATOM     30  O   UNL     1       1.220   9.563  23.366  0.00  0.00    +0.000 OA
ENDBRANCH  18  19
ENDBRANCH  17  18
ENDBRANCH   5  17
TORSDOF 5
ENDMDL
MODEL 2
REMARK VINA RESULT:      -7.8      1.330      2.295
REMARK  Name = 
REMARK  6 active torsions:
REMARK  status: ('A' for Active; 'I' for Inactive)
REMARK    1  A    between atoms: C_1  and  O_2
REMARK    2  A    between atoms: O_2  and  C_3
REMARK    3  A    between atoms: C_6  and  N_7
REMARK    4  A    between atoms: C_11  and  C_13
REMARK    5  A    between atoms: C_13  and  C_14
REMARK    6  A    between atoms: C_14  and  N_15
REMARK                            x       y       z     vdW  Elec       q    Type
REMARK                         _______ _______ _______ _____ _____    ______ ____
ROOT
ATOM      1  N   UNL     1       4.848   5.422  17.327  0.00  0.00    +0.000 N 
ATOM      2  C   UNL     1       4.654   6.839  17.685  0.00  0.00    +0.000 C 
ATOM      3  C   UNL     1       3.169   7.113  17.976  0.00  0.00    +0.000 C 
ATOM      4  N   UNL     1       2.642   6.186  18.979  0.00  0.00    +0.000 N 
ATOM      5  C   UNL     1       1.998   6.559  20.147  0.00  0.00    +0.000 C 
ATOM      6  O   UNL     1       1.589   5.723  20.951  0.00  0.00    +0.000 OA
ATOM      7  C   UNL     1       2.841   4.766  18.638  0.00  0.00    +0.000 C 
ATOM      8  C   UNL     1       4.319   4.459  18.314  0.00  0.00    +0.000 C 
ENDROOT
BRANCH   1  12
ATOM      9  C   UNL     1       6.564   4.271  13.637  0.00  0.00    +0.000 A 
ATOM     10  C   UNL     1       5.251   3.939  13.943  0.00  0.00    +0.000 A 
ATOM     11  C   UNL     1       4.686   4.338  15.159  0.00  0.00    +0.000 A 
ATOM     12  C   UNL     1       5.412   5.057  16.122  0.00  0.00    +0.000 A 
ATOM     13  C   UNL     1       6.739   5.366  15.790  0.00  0.00    +0.000 A 
ATOM     14  C   UNL     1       7.314   4.978  14.569  0.00  0.00    +0.000 A 
BRANCH   9  16
ATOM     15  C   UNL     1       6.248   2.784  11.836  0.00  0.00    +0.000 C 
ATOM     16  O   UNL     1       7.013   3.828  12.426  0.00  0.00    +0.000 OA
ENDBRANCH   9  16
ENDBRANCH   1  12
BRANCH   5  17
ATOM     17  C   UNL     1       1.817   8.059  20.394  0.00  0.00    +0.000 C 
BRANCH  17  18
ATOM     18  C   UNL     1       0.575   8.306  21.236  0.00  0.00    +0.000 C 
BRANCH  18  19
ATOM     19  N   UNL     1      -0.008   9.671  21.230  0.00  0.00    +0.000 N 
ATOM     20  C   UNL     1      -0.252  10.369  22.435  0.00  0.00    +0.000 C 
ATOM     21  O   UNL     1       0.002   9.966  23.553  0.00  0.00    +0.000 OA
ATOM     22  C   UNL     1      -0.940  11.633  22.140  0.00  0.00    +0.000 A 
ATOM     23  C   UNL     1      -1.324  12.582  23.070  0.00  0.00    +0.000 A 
ATOM     24  C   UNL     1      -2.062  13.678  22.621  0.00  0.00    +0.000 A 
ATOM     25  C   UNL     1      -2.452  13.770  21.271  0.00  0.00    +0.000 A 
ATOM     26  C   UNL     1      -2.027  12.818  20.333  0.00  0.00    +0.000 A 
ATOM     27  C   UNL     1      -1.219  11.793  20.793  0.00  0.00    +0.000 A 
ATOM     28  S   UNL     1      -0.370  10.576  19.867  0.00  0.00    +0.000 S 
ATOM     29  O   UNL     1       0.844  11.173  19.365  0.00  0.00    +0.000 OA
ATOM     30  O   UNL     1      -1.313   9.871  19.031  0.00  0.00    +0.000 OA
ENDBRANCH  18  19
ENDBRANCH  17  18
ENDBRANCH   5  17
TORSDOF 5
ENDMDL
MODEL 3
REMARK VINA RESULT:      -7.7      3.449      6.272
REMARK  Name = 
REMARK  6 active torsions:
REMARK  status: ('A' for Active; 'I' for Inactive)
REMARK    1  A    between atoms: C_1  and  O_2
REMARK    2  A    between atoms: O_2  and  C_3
REMARK    3  A    between atoms: C_6  and  N_7
REMARK    4  A    between atoms: C_11  and  C_13
REMARK    5  A    between atoms: C_13  and  C_14
REMARK    6  A    between atoms: C_14  and  N_15
REMARK                            x       y       z     vdW  Elec       q    Type
REMARK                         _______ _______ _______ _____ _____    ______ ____
ROOT
ATOM      1  N   UNL     1       1.498   8.440  20.567  0.00  0.00    +0.000 N 
ATOM      2  C   UNL     1       1.022   9.516  19.679  0.00  0.00    +0.000 C 
ATOM      3  C   UNL     1      -0.392   9.958  20.092  0.00  0.00    +0.000 C 
ATOM      4  N   UNL     1      -0.447  10.313  21.511  0.00  0.00    +0.000 N 
ATOM      5  C   UNL     1      -0.913  11.516  22.013  0.00  0.00    +0.000 C 
ATOM      6  O   UNL     1      -0.920  11.751  23.220  0.00  0.00    +0.000 OA
ATOM      7  C   UNL     1       0.038   9.249  22.409  0.00  0.00    +0.000 C 
ATOM      8  C   UNL     1       1.447   8.762  22.008  0.00  0.00    +0.000 C 
ENDROOT
BRANCH   1  12
ATOM      9  C   UNL     1       2.653   4.686  18.999  0.00  0.00    +0.000 A 
ATOM     10  C   UNL     1       2.926   5.858  18.307  0.00  0.00    +0.000 A 
ATOM     11  C   UNL     1       2.555   7.097  18.841  0.00  0.00    +0.000 A 
ATOM     12  C   UNL     1       1.879   7.212  20.066  0.00  0.00    +0.000 A 
ATOM     13  C   UNL     1       1.605   6.010  20.735  0.00  0.00    +0.000 A 
ATOM     14  C   UNL     1       1.980   4.762  20.212  0.00  0.00    +0.000 A 
BRANCH   9  16
ATOM     15  C   UNL     1       3.644   3.704  17.099  0.00  0.00    +0.000 C 
ATOM     16  O   UNL     1       3.056   3.535  18.383  0.00  0.00    +0.000 OA
ENDBRANCH   9  16
ENDBRANCH   1  12
BRANCH   5  17
ATOM     17  C   UNL     1      -1.421  12.544  20.998  0.00  0.00    +0.000 C 
BRANCH  17  18
ATOM     18  C   UNL     1      -0.947  13.937  21.381  0.00  0.00    +0.000 C 
BRANCH  18  19
ATOM     19  N   UNL     1       0.279  14.459  20.725  0.00  0.00    +0.000 N 
ATOM     20  C   UNL     1       0.206  15.437  19.707  0.00  0.00    +0.000 C 
ATOM     21  O   UNL     1      -0.810  15.959  19.295  0.00  0.00    +0.000 OA
ATOM     22  C   UNL     1       1.548  15.675  19.158  0.00  0.00    +0.000 A 
ATOM     23  C   UNL     1       1.865  16.576  18.158  0.00  0.00    +0.000 A 
ATOM     24  C   UNL     1       3.179  16.596  17.687  0.00  0.00    +0.000 A 
ATOM     25  C   UNL     1       4.126  15.676  18.177  0.00  0.00    +0.000 A 
ATOM     26  C   UNL     1       3.799  14.790  19.213  0.00  0.00    +0.000 A 
ATOM     27  C   UNL     1       2.514  14.859  19.724  0.00  0.00    +0.000 A 
ATOM     28  S   UNL     1       1.854  14.049  21.126  0.00  0.00    +0.000 S 
ATOM     29  O   UNL     1       2.250  14.797  22.293  0.00  0.00    +0.000 OA
ATOM     30  O   UNL     1       2.053  12.625  20.989  0.00  0.00    +0.000 OA
ENDBRANCH  18  19
ENDBRANCH  17  18
ENDBRANCH   5  17
TORSDOF 5
ENDMDL
MODEL 4
REMARK VINA RESULT:      -7.7      2.507      3.549
REMARK  Name = 
REMARK  6 active torsions:
REMARK  status: ('A' for Active; 'I' for Inactive)
REMARK    1  A    between atoms: C_1  and  O_2
REMARK    2  A    between atoms: O_2  and  C_3
REMARK    3  A    between atoms: C_6  and  N_7
REMARK    4  A    between atoms: C_11  and  C_13
REMARK    5  A    between atoms: C_13  and  C_14
REMARK    6  A    between atoms: C_14  and  N_15
REMARK                            x       y       z     vdW  Elec       q    Type
REMARK                         _______ _______ _______ _____ _____    ______ ____
ROOT
ATOM      1  N   UNL     1       4.042   6.688  17.932  0.00  0.00    +0.000 N 
ATOM      2  C   UNL     1       3.562   8.046  17.615  0.00  0.00    +0.000 C 
ATOM      3  C   UNL     1       2.078   8.185  17.994  0.00  0.00    +0.000 C 
ATOM      4  N   UNL     1       1.844   7.799  19.387  0.00  0.00    +0.000 N 
ATOM      5  C   UNL     1       1.218   8.588  20.336  0.00  0.00    +0.000 C 
ATOM      6  O   UNL     1       1.065   8.202  21.494  0.00  0.00    +0.000 OA
ATOM      7  C   UNL     1       2.331   6.448  19.718  0.00  0.00    +0.000 C 
ATOM      8  C   UNL     1       3.813   6.263  19.328  0.00  0.00    +0.000 C 
ENDROOT
BRANCH   1  12
ATOM      9  C   UNL     1       5.726   4.176  14.976  0.00  0.00    +0.000 A 
ATOM     10  C   UNL     1       5.143   3.638  16.115  0.00  0.00    +0.000 A 
ATOM     11  C   UNL     1       4.573   4.476  17.080  0.00  0.00    +0.000 A 
ATOM     12  C   UNL     1       4.586   5.875  16.959  0.00  0.00    +0.000 A 
ATOM     13  C   UNL     1       5.194   6.388  15.805  0.00  0.00    +0.000 A 
ATOM     14  C   UNL     1       5.762   5.557  14.826  0.00  0.00    +0.000 A 
BRANCH   9  16
ATOM     15  C   UNL     1       6.175   3.623  12.729  0.00  0.00    +0.000 C 
ATOM     16  O   UNL     1       6.253   3.267  14.103  0.00  0.00    +0.000 OA
ENDBRANCH   9  16
ENDBRANCH   1  12
BRANCH   5  17
ATOM     17  C   UNL     1       0.725   9.964  19.883  0.00  0.00    +0.000 C 
BRANCH  17  18
ATOM     18  C   UNL     1       0.813  10.958  21.030  0.00  0.00    +0.000 C 
BRANCH  18  19
ATOM     19  N   UNL     1      -0.423  11.682  21.419  0.00  0.00    +0.000 N 
ATOM     20  C   UNL     1      -1.084  11.403  22.637  0.00  0.00    +0.000 C 
ATOM     21  O   UNL     1      -0.719  10.604  23.477  0.00  0.00    +0.000 OA
ATOM     22  C   UNL     1      -2.335  12.171  22.705  0.00  0.00    +0.000 A 
ATOM     23  C   UNL     1      -3.233  12.164  23.757  0.00  0.00    +0.000 A 
ATOM     24  C   UNL     1      -4.423  12.878  23.606  0.00  0.00    +0.000 A 
ATOM     25  C   UNL     1      -4.717  13.526  22.390  0.00  0.00    +0.000 A 
ATOM     26  C   UNL     1      -3.782  13.552  21.345  0.00  0.00    +0.000 A 
ATOM     27  C   UNL     1      -2.573  12.914  21.561  0.00  0.00    +0.000 A 
ATOM     28  S   UNL     1      -1.140  12.928  20.558  0.00  0.00    +0.000 S 
ATOM     29  O   UNL     1      -0.427  14.153  20.827  0.00  0.00    +0.000 OA
ATOM     30  O   UNL     1      -1.487  12.486  19.228  0.00  0.00    +0.000 OA
ENDBRANCH  18  19
ENDBRANCH  17  18
ENDBRANCH   5  17
TORSDOF 5
ENDMDL
MODEL 5
REMARK VINA RESULT:      -7.6      3.673      6.230
REMARK  Name = 
REMARK  6 active torsions:
REMARK  status: ('A' for Active; 'I' for Inactive)
REMARK    1  A    between atoms: C_1  and  O_2
REMARK    2  A    between atoms: O_2  and  C_3
REMARK    3  A    between atoms: C_6  and  N_7
REMARK    4  A    between atoms: C_11  and  C_13
REMARK    5  A    between atoms: C_13  and  C_14
REMARK    6  A    between atoms: C_14  and  N_15
REMARK                            x       y       z     vdW  Elec       q    Type
REMARK                         _______ _______ _______ _____ _____    ______ ____
ROOT
ATOM      1  N   UNL     1       1.719   8.009  20.290  0.00  0.00    +0.000 N 
ATOM      2  C   UNL     1       1.613   9.063  19.264  0.00  0.00    +0.000 C 
ATOM      3  C   UNL     1       0.280   9.816  19.415  0.00  0.00    +0.000 C 
ATOM      4  N   UNL     1       0.100  10.315  20.779  0.00  0.00    +0.000 N 
ATOM      5  C   UNL     1      -0.167  11.631  21.116  0.00  0.00    +0.000 C 
ATOM      6  O   UNL     1      -0.296  11.983  22.287  0.00  0.00    +0.000 OA
ATOM      7  C   UNL     1       0.217   9.272  21.814  0.00  0.00    +0.000 C 
ATOM      8  C   UNL     1       1.534   8.478  21.678  0.00  0.00    +0.000 C 
ENDROOT
BRANCH   1  12
ATOM      9  C   UNL     1       2.287   3.947  19.256  0.00  0.00    +0.000 A 
ATOM     10  C   UNL     1       1.748   4.297  20.487  0.00  0.00    +0.000 A 
ATOM     11  C   UNL     1       1.548   5.643  20.814  0.00  0.00    +0.000 A 
ATOM     12  C   UNL     1       1.899   6.685  19.942  0.00  0.00    +0.000 A 
ATOM     13  C   UNL     1       2.454   6.301  18.712  0.00  0.00    +0.000 A 
ATOM     14  C   UNL     1       2.651   4.954  18.370  0.00  0.00    +0.000 A 
BRANCH   9  16
ATOM     15  C   UNL     1       2.980   2.247  17.778  0.00  0.00    +0.000 C 
ATOM     16  O   UNL     1       2.441   2.607  19.044  0.00  0.00    +0.000 OA
ENDBRANCH   9  16
ENDBRANCH   1  12
BRANCH   5  17
ATOM     17  C   UNL     1      -0.297  12.632  19.964  0.00  0.00    +0.000 C 
BRANCH  17  18
ATOM     18  C   UNL     1      -1.482  13.554  20.201  0.00  0.00    +0.000 C 
BRANCH  18  19
ATOM     19  N   UNL     1      -2.844  12.966  20.134  0.00  0.00    +0.000 N 
ATOM     20  C   UNL     1      -3.234  12.140  19.055  0.00  0.00    +0.000 C 
ATOM     21  O   UNL     1      -2.527  11.808  18.124  0.00  0.00    +0.000 OA
ATOM     22  C   UNL     1      -4.658  11.804  19.184  0.00  0.00    +0.000 A 
ATOM     23  C   UNL     1      -5.381  11.001  18.320  0.00  0.00    +0.000 A 
ATOM     24  C   UNL     1      -6.753  10.873  18.540  0.00  0.00    +0.000 A 
ATOM     25  C   UNL     1      -7.381  11.596  19.573  0.00  0.00    +0.000 A 
ATOM     26  C   UNL     1      -6.630  12.379  20.460  0.00  0.00    +0.000 A 
ATOM     27  C   UNL     1      -5.259  12.412  20.273  0.00  0.00    +0.000 A 
ATOM     28  S   UNL     1      -4.035  13.118  21.303  0.00  0.00    +0.000 S 
ATOM     29  O   UNL     1      -3.766  12.185  22.370  0.00  0.00    +0.000 OA
ATOM     30  O   UNL     1      -4.347  14.511  21.525  0.00  0.00    +0.000 OA
ENDBRANCH  18  19
ENDBRANCH  17  18
ENDBRANCH   5  17
TORSDOF 5
ENDMDL
MODEL 6
REMARK VINA RESULT:      -7.5      0.452      1.029
REMARK  Name = 
REMARK  6 active torsions:
REMARK  status: ('A' for Active; 'I' for Inactive)
REMARK    1  A    between atoms: C_1  and  O_2
REMARK    2  A    between atoms: O_2  and  C_3
REMARK    3  A    between atoms: C_6  and  N_7
REMARK    4  A    between atoms: C_11  and  C_13
REMARK    5  A    between atoms: C_13  and  C_14
REMARK    6  A    between atoms: C_14  and  N_15
REMARK                            x       y       z     vdW  Elec       q    Type
REMARK                         _______ _______ _______ _____ _____    ______ ____
ROOT
ATOM      1  N   UNL     1       4.951   5.124  17.626  0.00  0.00    +0.000 N 
ATOM      2  C   UNL     1       3.996   6.226  17.844  0.00  0.00    +0.000 C 
ATOM      3  C   UNL     1       2.645   5.668  18.324  0.00  0.00    +0.000 C 
ATOM      4  N   UNL     1       2.810   4.805  19.495  0.00  0.00    +0.000 N 
ATOM      5  C   UNL     1       2.139   4.956  20.696  0.00  0.00    +0.000 C 
ATOM      6  O   UNL     1       2.336   4.198  21.644  0.00  0.00    +0.000 OA
ATOM      7  C   UNL     1       3.773   3.706  19.292  0.00  0.00    +0.000 C 
ATOM      8  C   UNL     1       5.134   4.227  18.785  0.00  0.00    +0.000 C 
ENDROOT
BRANCH   1  12
ATOM      9  C   UNL     1       6.796   4.555  13.863  0.00  0.00    +0.000 A 
ATOM     10  C   UNL     1       7.444   5.255  14.872  0.00  0.00    +0.000 A 
ATOM     11  C   UNL     1       6.833   5.424  16.119  0.00  0.00    +0.000 A 
ATOM     12  C   UNL     1       5.550   4.927  16.398  0.00  0.00    +0.000 A 
ATOM     13  C   UNL     1       4.916   4.236  15.355  0.00  0.00    +0.000 A 
ATOM     14  C   UNL     1       5.523   4.053  14.103  0.00  0.00    +0.000 A 
BRANCH   9  16
ATOM     15  C   UNL     1       8.122   5.646  12.248  0.00  0.00    +0.000 C 
ATOM     16  O   UNL     1       7.483   4.454  12.687  0.00  0.00    +0.000 OA
ENDBRANCH   9  16
ENDBRANCH   1  12
BRANCH   5  17
ATOM     17  C   UNL     1       1.140   6.112  20.795  0.00  0.00    +0.000 C 
BRANCH  17  18
ATOM     18  C   UNL     1       1.876   7.425  21.012  0.00  0.00    +0.000 C 
BRANCH  18  19
ATOM     19  N   UNL     1       1.078   8.677  21.009  0.00  0.00    +0.000 N 
ATOM     20  C   UNL     1       0.890   9.423  19.823  0.00  0.00    +0.000 C 
ATOM     21  O   UNL     1       1.310   9.126  18.722  0.00  0.00    +0.000 OA
ATOM     22  C   UNL     1       0.172  10.667  20.134  0.00  0.00    +0.000 A 
ATOM     23  C   UNL     1      -0.201  11.636  19.220  0.00  0.00    +0.000 A 
ATOM     24  C   UNL     1      -0.787  12.805  19.708  0.00  0.00    +0.000 A 
ATOM     25  C   UNL     1      -0.928  13.007  21.095  0.00  0.00    +0.000 A 
ATOM     26  C   UNL     1      -0.574  12.002  22.007  0.00  0.00    +0.000 A 
ATOM     27  C   UNL     1      -0.083  10.818  21.487  0.00  0.00    +0.000 A 
ATOM     28  S   UNL     1       0.257   9.319  22.321  0.00  0.00    +0.000 S 
ATOM     29  O   UNL     1      -0.990   8.613  22.484  0.00  0.00    +0.000 OA
ATOM     30  O   UNL     1       1.172   9.578  23.408  0.00  0.00    +0.000 OA
ENDBRANCH  18  19
ENDBRANCH  17  18
ENDBRANCH   5  17
TORSDOF 5
ENDMDL
MODEL 7
REMARK VINA RESULT:      -7.5      3.697      5.974
REMARK  Name = 
REMARK  6 active torsions:
REMARK  status: ('A' for Active; 'I' for Inactive)
REMARK    1  A    between atoms: C_1  and  O_2
REMARK    2  A    between atoms: O_2  and  C_3
REMARK    3  A    between atoms: C_6  and  N_7
REMARK    4  A    between atoms: C_11  and  C_13
REMARK    5  A    between atoms: C_13  and  C_14
REMARK    6  A    between atoms: C_14  and  N_15
REMARK                            x       y       z     vdW  Elec       q    Type
REMARK                         _______ _______ _______ _____ _____    ______ ____
ROOT
ATOM      1  N   UNL     1       1.899   7.738  20.117  0.00  0.00    +0.000 N 
ATOM      2  C   UNL     1       1.982   8.741  19.040  0.00  0.00    +0.000 C 
ATOM      3  C   UNL     1       0.755   9.668  19.085  0.00  0.00    +0.000 C 
ATOM      4  N   UNL     1       0.580  10.258  20.413  0.00  0.00    +0.000 N 
ATOM      5  C   UNL     1       0.474  11.613  20.674  0.00  0.00    +0.000 C 
ATOM      6  O   UNL     1       0.338  12.040  21.820  0.00  0.00    +0.000 OA
ATOM      7  C   UNL     1       0.509   9.264  21.499  0.00  0.00    +0.000 C 
ATOM      8  C   UNL     1       1.713   8.299  21.471  0.00  0.00    +0.000 C 
ENDROOT
BRANCH   1  12
ATOM      9  C   UNL     1       1.948   3.601  19.235  0.00  0.00    +0.000 A 
ATOM     10  C   UNL     1       2.522   4.519  18.365  0.00  0.00    +0.000 A 
ATOM     11  C   UNL     1       2.516   5.884  18.673  0.00  0.00    +0.000 A 
ATOM     12  C   UNL     1       1.919   6.386  19.840  0.00  0.00    +0.000 A 
ATOM     13  C   UNL     1       1.335   5.436  20.692  0.00  0.00    +0.000 A 
ATOM     14  C   UNL     1       1.343   4.064  20.397  0.00  0.00    +0.000 A 
BRANCH   9  16
ATOM     15  C   UNL     1       2.880   2.034  17.741  0.00  0.00    +0.000 C 
ATOM     16  O   UNL     1       2.007   2.298  18.833  0.00  0.00    +0.000 OA
ENDBRANCH   9  16
ENDBRANCH   1  12
BRANCH   5  17
ATOM     17  C   UNL     1       0.533  12.561  19.473  0.00  0.00    +0.000 C 
BRANCH  17  18
ATOM     18  C   UNL     1      -0.644  13.523  19.506  0.00  0.00    +0.000 C 
BRANCH  18  19
ATOM     19  N   UNL     1      -2.012  12.946  19.546  0.00  0.00    +0.000 N 
ATOM     20  C   UNL     1      -2.468  12.067  18.538  0.00  0.00    +0.000 C 
ATOM     21  O   UNL     1      -1.817  11.677  17.588  0.00  0.00    +0.000 OA
ATOM     22  C   UNL     1      -3.885  11.752  18.763  0.00  0.00    +0.000 A 
ATOM     23  C   UNL     1      -4.661  10.911  17.987  0.00  0.00    +0.000 A 
ATOM     24  C   UNL     1      -6.020  10.809  18.289  0.00  0.00    +0.000 A 
ATOM     25  C   UNL     1      -6.583  11.594  19.315  0.00  0.00    +0.000 A 
ATOM     26  C   UNL     1      -5.778  12.417  20.115  0.00  0.00    +0.000 A 
ATOM     27  C   UNL     1      -4.419  12.425  19.850  0.00  0.00    +0.000 A 
ATOM     28  S   UNL     1      -3.134  13.173  20.770  0.00  0.00    +0.000 S 
ATOM     29  O   UNL     1      -2.813  12.297  21.870  0.00  0.00    +0.000 OA
ATOM     30  O   UNL     1      -3.423  14.579  20.933  0.00  0.00    +0.000 OA
ENDBRANCH  18  19
ENDBRANCH  17  18
ENDBRANCH   5  17
TORSDOF 5
ENDMDL
MODEL 8
REMARK VINA RESULT:      -7.5      3.690     10.382
REMARK  Name = 
REMARK  6 active torsions:
REMARK  status: ('A' for Active; 'I' for Inactive)
REMARK    1  A    between atoms: C_1  and  O_2
REMARK    2  A    between atoms: O_2  and  C_3
REMARK    3  A    between atoms: C_6  and  N_7
REMARK    4  A    between atoms: C_11  and  C_13
REMARK    5  A    between atoms: C_13  and  C_14
REMARK    6  A    between atoms: C_14  and  N_15
REMARK                            x       y       z     vdW  Elec       q    Type
REMARK                         _______ _______ _______ _____ _____    ______ ____
ROOT
ATOM      1  N   UNL     1      -0.519  11.676  21.121  0.00  0.00    +0.000 N 
ATOM      2  C   UNL     1      -0.383  10.215  20.966  0.00  0.00    +0.000 C 
ATOM      3  C   UNL     1      -0.329   9.844  19.474  0.00  0.00    +0.000 C 
ATOM      4  N   UNL     1       0.711  10.600  18.773  0.00  0.00    +0.000 N 
ATOM      5  C   UNL     1       1.723  10.042  18.012  0.00  0.00    +0.000 C 
ATOM      6  O   UNL     1       2.572  10.739  17.458  0.00  0.00    +0.000 OA
ATOM      7  C   UNL     1       0.593  12.061  18.932  0.00  0.00    +0.000 C 
ATOM      8  C   UNL     1       0.510  12.469  20.418  0.00  0.00    +0.000 C 
ENDROOT
BRANCH   1  12
ATOM      9  C   UNL     1      -3.756  13.401  23.226  0.00  0.00    +0.000 A 
ATOM     10  C   UNL     1      -3.300  13.963  22.042  0.00  0.00    +0.000 A 
ATOM     11  C   UNL     1      -2.239  13.376  21.343  0.00  0.00    +0.000 A 
ATOM     12  C   UNL     1      -1.580  12.228  21.809  0.00  0.00    +0.000 A 
ATOM     13  C   UNL     1      -2.054  11.691  23.014  0.00  0.00    +0.000 A 
ATOM     14  C   UNL     1      -3.123  12.266  23.719  0.00  0.00    +0.000 A 
BRANCH   9  16
ATOM     15  C   UNL     1      -4.561  15.431  24.112  0.00  0.00    +0.000 C 
ATOM     16  O   UNL     1      -4.793  14.057  23.825  0.00  0.00    +0.000 OA
ENDBRANCH   9  16
ENDBRANCH   1  12
BRANCH   5  17
ATOM     17  C   UNL     1       1.742   8.516  17.887  0.00  0.00    +0.000 C 
BRANCH  17  18
ATOM     18  C   UNL     1       3.045   7.960  18.438  0.00  0.00    +0.000 C 
BRANCH  18  19
ATOM     19  N   UNL     1       3.054   6.555  18.918  0.00  0.00    +0.000 N 
ATOM     20  C   UNL     1       2.282   6.156  20.033  0.00  0.00    +0.000 C 
ATOM     21  O   UNL     1       1.539   6.872  20.674  0.00  0.00    +0.000 OA
ATOM     22  C   UNL     1       2.575   4.754  20.357  0.00  0.00    +0.000 A 
ATOM     23  C   UNL     1       1.996   4.020  21.377  0.00  0.00    +0.000 A 
ATOM     24  C   UNL     1       2.472   2.728  21.605  0.00  0.00    +0.000 A 
ATOM     25  C   UNL     1       3.552   2.223  20.856  0.00  0.00    +0.000 A 
ATOM     26  C   UNL     1       4.107   2.965  19.805  0.00  0.00    +0.000 A 
ATOM     27  C   UNL     1       3.552   4.206  19.542  0.00  0.00    +0.000 A 
ATOM     28  S   UNL     1       3.871   5.280  18.200  0.00  0.00    +0.000 S 
ATOM     29  O   UNL     1       3.108   4.811  17.070  0.00  0.00    +0.000 OA
ATOM     30  O   UNL     1       5.287   5.560  18.142  0.00  0.00    +0.000 OA
ENDBRANCH  18  19
ENDBRANCH  17  18
ENDBRANCH   5  17
TORSDOF 5
ENDMDL
MODEL 9
REMARK VINA RESULT:      -7.4      2.125      3.175
REMARK  Name = 
REMARK  6 active torsions:
REMARK  status: ('A' for Active; 'I' for Inactive)
REMARK    1  A    between atoms: C_1  and  O_2
REMARK    2  A    between atoms: O_2  and  C_3
REMARK    3  A    between atoms: C_6  and  N_7
REMARK    4  A    between atoms: C_11  and  C_13
REMARK    5  A    between atoms: C_13  and  C_14
REMARK    6  A    between atoms: C_14  and  N_15
REMARK                            x       y       z     vdW  Elec       q    Type
REMARK                         _______ _______ _______ _____ _____    ______ ____
ROOT
ATOM      1  N   UNL     1       4.347   6.242  17.858  0.00  0.00    +0.000 N 
ATOM      2  C   UNL     1       3.924   7.642  17.668  0.00  0.00    +0.000 C 
ATOM      3  C   UNL     1       2.437   7.799  18.031  0.00  0.00    +0.000 C 
ATOM      4  N   UNL     1       2.159   7.288  19.374  0.00  0.00    +0.000 N 
ATOM      5  C   UNL     1       1.541   8.003  20.386  0.00  0.00    +0.000 C 
ATOM      6  O   UNL     1       1.348   7.511  21.497  0.00  0.00    +0.000 OA
ATOM      7  C   UNL     1       2.590   5.893  19.579  0.00  0.00    +0.000 C 
ATOM      8  C   UNL     1       4.073   5.691  19.200  0.00  0.00    +0.000 C 
ENDROOT
BRANCH   1  12
ATOM      9  C   UNL     1       5.966   4.007  14.652  0.00  0.00    +0.000 A 
ATOM     10  C   UNL     1       5.730   5.369  14.520  0.00  0.00    +0.000 A 
ATOM     11  C   UNL     1       5.211   6.104  15.591  0.00  0.00    +0.000 A 
ATOM     12  C   UNL     1       4.883   5.508  16.819  0.00  0.00    +0.000 A 
ATOM     13  C   UNL     1       5.119   4.129  16.918  0.00  0.00    +0.000 A 
ATOM     14  C   UNL     1       5.648   3.383  15.852  0.00  0.00    +0.000 A 
BRANCH   9  16
ATOM     15  C   UNL     1       5.756   3.622  12.336  0.00  0.00    +0.000 C 
ATOM     16  O   UNL     1       6.471   3.390  13.544  0.00  0.00    +0.000 OA
ENDBRANCH   9  16
ENDBRANCH   1  12
BRANCH   5  17
ATOM     17  C   UNL     1       1.108   9.435  20.062  0.00  0.00    +0.000 C 
BRANCH  17  18
ATOM     18  C   UNL     1      -0.350   9.640  20.440  0.00  0.00    +0.000 C 
BRANCH  18  19
ATOM     19  N   UNL     1      -0.783  11.007  20.823  0.00  0.00    +0.000 N 
ATOM     20  C   UNL     1      -0.740  11.441  22.168  0.00  0.00    +0.000 C 
ATOM     21  O   UNL     1      -0.335  10.790  23.111  0.00  0.00    +0.000 OA
ATOM     22  C   UNL     1      -1.336  12.779  22.273  0.00  0.00    +0.000 A 
ATOM     23  C   UNL     1      -1.452  13.526  23.431  0.00  0.00    +0.000 A 
ATOM     24  C   UNL     1      -2.142  14.737  23.363  0.00  0.00    +0.000 A 
ATOM     25  C   UNL     1      -2.753  15.144  22.161  0.00  0.00    +0.000 A 
ATOM     26  C   UNL     1      -2.599  14.393  20.987  0.00  0.00    +0.000 A 
ATOM     27  C   UNL     1      -1.831  13.244  21.065  0.00  0.00    +0.000 A 
ATOM     28  S   UNL     1      -1.286  12.207  19.767  0.00  0.00    +0.000 S 
ATOM     29  O   UNL     1      -0.126  12.822  19.170  0.00  0.00    +0.000 OA
ATOM     30  O   UNL     1      -2.428  11.760  19.005  0.00  0.00    +0.000 OA
ENDBRANCH  18  19
ENDBRANCH  17  18
ENDBRANCH   5  17
TORSDOF 5
ENDMDL
