MODEL 1
REMARK VINA RESULT:      -8.5      0.000      0.000
REMARK  Name = 
REMARK  11 active torsions:
REMARK  status: ('A' for Active; 'I' for Inactive)
REMARK    1  A    between atoms: C_1  and  C_2
REMARK    2  A    between atoms: C_2  and  C_3
REMARK    3  A    between atoms: C_2  and  C_4
REMARK    4  A    between atoms: C_7  and  O_8
REMARK    5  A    between atoms: O_8  and  C_9
REMARK    6  A    between atoms: C_9  and  C_10
REMARK    7  A    between atoms: N_12  and  C_13
REMARK    8  A    between atoms: C_13  and  C_14
REMARK    9  A    between atoms: C_14  and  S_15
REMARK   10  A    between atoms: S_15  and  N_18
REMARK   11  A    between atoms: N_21  and  C_22
REMARK                            x       y       z     vdW  Elec       q    Type
REMARK                         _______ _______ _______ _____ _____    ______ ____
ROOT
ATOM      1  C   UNL     1       2.733   4.675  20.615  0.00  0.00    +0.000 C 
ENDROOT
BRANCH   1   2
ATOM      2  S   UNL     1       1.943   3.084  20.675  0.00  0.00    +0.000 S 
ATOM      3  O   UNL     1       2.013   2.617  22.038  0.00  0.00    +0.000 OA
ATOM      4  O   UNL     1       0.658   3.219  20.004  0.00  0.00    +0.000 OA
BRANCH   2   5
ATOM      5  N   UNL     1       2.938   2.108  19.702  0.00  0.00    +0.000 NA
ATOM      6  C   UNL     1       2.602   2.039  18.236  0.00  0.00    +0.000 C 
ATOM      7  C   UNL     1       2.987   3.326  17.475  0.00  0.00    +0.000 C 
ATOM      8  N   UNL     1       4.346   3.797  17.820  0.00  0.00    +0.000 N 
ATOM      9  C   UNL     1       4.766   3.754  19.231  0.00  0.00    +0.000 C 
ATOM     10  C   UNL     1       4.409   2.384  19.835  0.00  0.00    +0.000 C 
BRANCH   8  11
ATOM     11  C   UNL     1       5.243   4.146  16.831  0.00  0.00    +0.000 A 
ATOM     12  C   UNL     1       6.549   4.561  17.129  0.00  0.00    +0.000 A 
ATOM     13  C   UNL     1       7.435   4.940  16.120  0.00  0.00    +0.000 A 
ATOM     14  C   UNL     1       7.023   4.888  14.795  0.00  0.00    +0.000 A 
ATOM     15  F   UNL     1       7.873   5.247  13.825  0.00  0.00    +0.000 F 
ATOM     16  C   UNL     1       5.753   4.460  14.462  0.00  0.00    +0.000 A 
ATOM     17  C   UNL     1       4.872   4.095  15.478  0.00  0.00    +0.000 A 
ENDBRANCH   8  11
ENDBRANCH   2   5
ENDBRANCH   1   2
BRANCH   1  18
ATOM     18  C   UNL     1       1.762   5.815  20.850  0.00  0.00    +0.000 C 
BRANCH  18  21
ATOM     19  C   UNL     1       1.688   8.162  20.089  0.00  0.00    +0.000 C 
ATOM     20  O   UNL     1       1.435   8.556  21.225  0.00  0.00    +0.000 OA
ATOM     21  N   UNL     1       1.861   6.822  19.798  0.00  0.00    +0.000 N 
ATOM     22  H   UNL     1       2.119   6.539  18.860  0.00  0.00    +0.000 HD
BRANCH  19  23
ATOM     23  C   UNL     1       1.805   9.113  18.900  0.00  0.00    +0.000 C 
BRANCH  23  24
ATOM     24  O   UNL     1       1.304  10.384  19.293  0.00  0.00    +0.000 OA
BRANCH  24  28
ATOM     25  C   UNL     1      -2.467  11.187  17.663  0.00  0.00    +0.000 A 
ATOM     26  C   UNL     1      -1.731  10.048  17.316  0.00  0.00    +0.000 A 
ATOM     27  C   UNL     1      -0.476   9.813  17.887  0.00  0.00    +0.000 A 
ATOM     28  C   UNL     1       0.085  10.731  18.777  0.00  0.00    +0.000 A 
ATOM     29  C   UNL     1      -0.635  11.871  19.123  0.00  0.00    +0.000 A 
ATOM     30  C   UNL     1      -1.903  12.092  18.575  0.00  0.00    +0.000 A 
BRANCH  25  32
ATOM     31  C   UNL     1      -3.950  10.841  15.660  0.00  0.00    +0.000 C 
ATOM     32  C   UNL     1      -3.849  11.418  17.076  0.00  0.00    +0.000 C 
ATOM     33  C   UNL     1      -4.940  10.841  17.981  0.00  0.00    +0.000 C 
ENDBRANCH  25  32
ENDBRANCH  24  28
ENDBRANCH  23  24
ENDBRANCH  19  23
ENDBRANCH  18  21
ENDBRANCH   1  18
TORSDOF 9
ENDMDL
MODEL 2
REMARK VINA RESULT:      -8.5      5.678      8.732
REMARK  Name = 
REMARK  11 active torsions:
REMARK  status: ('A' for Active; 'I' for Inactive)
REMARK    1  A    between atoms: C_1  and  C_2
REMARK    2  A    between atoms: C_2  and  C_3
REMARK    3  A    between atoms: C_2  and  C_4
REMARK    4  A    between atoms: C_7  and  O_8
REMARK    5  A    between atoms: O_8  and  C_9
REMARK    6  A    between atoms: C_9  and  C_10
REMARK    7  A    between atoms: N_12  and  C_13
REMARK    8  A    between atoms: C_13  and  C_14
REMARK    9  A    between atoms: C_14  and  S_15
REMARK   10  A    between atoms: S_15  and  N_18
REMARK   11  A    between atoms: N_21  and  C_22
REMARK                            x       y       z     vdW  Elec       q    Type
REMARK                         _______ _______ _______ _____ _____    ______ ____
ROOT
ATOM      1  C   UNL     1       5.028   4.524  17.112  0.00  0.00    +0.000 C 
ENDROOT
BRANCH   1   2
ATOM      2  S   UNL     1       4.348   4.328  18.742  0.00  0.00    +0.000 S 
ATOM      3  O   UNL     1       4.468   2.935  19.096  0.00  0.00    +0.000 OA
ATOM      4  O   UNL     1       4.942   5.359  19.581  0.00  0.00    +0.000 OA
BRANCH   2   5
ATOM      5  N   UNL     1       2.704   4.708  18.537  0.00  0.00    +0.000 NA
ATOM      6  C   UNL     1       1.843   4.701  19.772  0.00  0.00    +0.000 C 
ATOM      7  C   UNL     1       2.094   5.923  20.682  0.00  0.00    +0.000 C 
ATOM      8  N   UNL     1       2.143   7.189  19.920  0.00  0.00    +0.000 N 
ATOM      9  C   UNL     1       2.863   7.206  18.634  0.00  0.00    +0.000 C 
ATOM     10  C   UNL     1       2.445   5.987  17.792  0.00  0.00    +0.000 C 
BRANCH   8  11
ATOM     11  C   UNL     1       1.426   8.291  20.337  0.00  0.00    +0.000 A 
ATOM     12  C   UNL     1       1.044   8.463  21.676  0.00  0.00    +0.000 A 
ATOM     13  C   UNL     1       0.293   9.569  22.077  0.00  0.00    +0.000 A 
ATOM     14  C   UNL     1      -0.068  10.526  21.138  0.00  0.00    +0.000 A 
ATOM     15  F   UNL     1      -0.785  11.589  21.521  0.00  0.00    +0.000 F 
ATOM     16  C   UNL     1       0.312  10.403  19.815  0.00  0.00    +0.000 A 
ATOM     17  C   UNL     1       1.052   9.290  19.423  0.00  0.00    +0.000 A 
ENDBRANCH   8  11
ENDBRANCH   2   5
ENDBRANCH   1   2
BRANCH   1  18
ATOM     18  C   UNL     1       6.525   4.757  17.131  0.00  0.00    +0.000 C 
BRANCH  18  21
ATOM     19  C   UNL     1       7.621   6.786  18.013  0.00  0.00    +0.000 C 
ATOM     20  O   UNL     1       8.062   6.167  18.979  0.00  0.00    +0.000 OA
ATOM     21  N   UNL     1       6.843   6.179  17.045  0.00  0.00    +0.000 N 
ATOM     22  H   UNL     1       6.539   6.709  16.237  0.00  0.00    +0.000 HD
BRANCH  19  23
ATOM     23  C   UNL     1       7.872   8.278  17.815  0.00  0.00    +0.000 C 
BRANCH  23  24
ATOM     24  O   UNL     1       8.744   8.726  18.845  0.00  0.00    +0.000 OA
BRANCH  24  28
ATOM     25  C   UNL     1       9.719  12.790  19.095  0.00  0.00    +0.000 A 
ATOM     26  C   UNL     1       9.914  11.908  20.165  0.00  0.00    +0.000 A 
ATOM     27  C   UNL     1       9.580  10.555  20.039  0.00  0.00    +0.000 A 
ATOM     28  C   UNL     1       9.004  10.070  18.864  0.00  0.00    +0.000 A 
ATOM     29  C   UNL     1       8.798  10.940  17.797  0.00  0.00    +0.000 A 
ATOM     30  C   UNL     1       9.159  12.286  17.910  0.00  0.00    +0.000 A 
BRANCH  25  32
ATOM     31  C   UNL     1       9.970  14.976  17.877  0.00  0.00    +0.000 C 
ATOM     32  C   UNL     1      10.123  14.248  19.217  0.00  0.00    +0.000 C 
ATOM     33  C   UNL     1       9.328  14.955  20.317  0.00  0.00    +0.000 C 
ENDBRANCH  25  32
ENDBRANCH  24  28
ENDBRANCH  23  24
ENDBRANCH  19  23
ENDBRANCH  18  21
ENDBRANCH   1  18
TORSDOF 9
ENDMDL
MODEL 3
REMARK VINA RESULT:      -8.2      7.858     11.152
REMARK  Name = 
REMARK  11 active torsions:
REMARK  status: ('A' for Active; 'I' for Inactive)
REMARK    1  A    between atoms: C_1  and  C_2
REMARK    2  A    between atoms: C_2  and  C_3
REMARK    3  A    between atoms: C_2  and  C_4
REMARK    4  A    between atoms: C_7  and  O_8
REMARK    5  A    between atoms: O_8  and  C_9
REMARK    6  A    between atoms: C_9  and  C_10
REMARK    7  A    between atoms: N_12  and  C_13
REMARK    8  A    between atoms: C_13  and  C_14
REMARK    9  A    between atoms: C_14  and  S_15
REMARK   10  A    between atoms: S_15  and  N_18
REMARK   11  A    between atoms: N_21  and  C_22
REMARK                            x       y       z     vdW  Elec       q    Type
REMARK                         _______ _______ _______ _____ _____    ______ ____
ROOT
ATOM      1  C   UNL     1      10.085  10.851  18.095  0.00  0.00    +0.000 C 
ENDROOT
BRANCH   1   2
ATOM      2  S   UNL     1      10.106  12.628  18.063  0.00  0.00    +0.000 S 
ATOM      3  O   UNL     1      10.837  13.031  16.888  0.00  0.00    +0.000 OA
ATOM      4  O   UNL     1       8.736  13.076  18.273  0.00  0.00    +0.000 OA
BRANCH   2   5
ATOM      5  N   UNL     1      11.005  13.042  19.445  0.00  0.00    +0.000 NA
ATOM      6  C   UNL     1      10.721  14.384  20.066  0.00  0.00    +0.000 C 
ATOM      7  C   UNL     1       9.381  14.416  20.832  0.00  0.00    +0.000 C 
ATOM      8  N   UNL     1       9.205  13.235  21.704  0.00  0.00    +0.000 N 
ATOM      9  C   UNL     1       9.598  11.913  21.183  0.00  0.00    +0.000 C 
ATOM     10  C   UNL     1      10.990  12.008  20.534  0.00  0.00    +0.000 C 
BRANCH   8  11
ATOM     11  C   UNL     1       8.804  13.380  23.016  0.00  0.00    +0.000 A 
ATOM     12  C   UNL     1       8.699  14.641  23.622  0.00  0.00    +0.000 A 
ATOM     13  C   UNL     1       8.321  14.770  24.960  0.00  0.00    +0.000 A 
ATOM     14  C   UNL     1       8.025  13.632  25.699  0.00  0.00    +0.000 A 
ATOM     15  F   UNL     1       7.659  13.755  26.980  0.00  0.00    +0.000 F 
ATOM     16  C   UNL     1       8.094  12.377  25.127  0.00  0.00    +0.000 A 
ATOM     17  C   UNL     1       8.482  12.258  23.795  0.00  0.00    +0.000 A 
ENDBRANCH   8  11
ENDBRANCH   2   5
ENDBRANCH   1   2
BRANCH   1  18
ATOM     18  C   UNL     1       8.680  10.287  18.154  0.00  0.00    +0.000 C 
BRANCH  18  21
ATOM     19  C   UNL     1       8.014   7.912  18.039  0.00  0.00    +0.000 C 
ATOM     20  O   UNL     1       7.404   8.102  16.989  0.00  0.00    +0.000 OA
ATOM     21  N   UNL     1       8.674   8.933  18.698  0.00  0.00    +0.000 N 
ATOM     22  H   UNL     1       9.209   8.729  19.534  0.00  0.00    +0.000 HD
BRANCH  19  23
ATOM     23  C   UNL     1       8.073   6.546  18.716  0.00  0.00    +0.000 C 
BRANCH  23  24
ATOM     24  O   UNL     1       7.808   5.550  17.736  0.00  0.00    +0.000 OA
BRANCH  24  28
ATOM     25  C   UNL     1       3.962   3.923  17.439  0.00  0.00    +0.000 A 
ATOM     26  C   UNL     1       4.810   4.042  16.331  0.00  0.00    +0.000 A 
ATOM     27  C   UNL     1       6.091   4.587  16.473  0.00  0.00    +0.000 A 
ATOM     28  C   UNL     1       6.529   5.064  17.710  0.00  0.00    +0.000 A 
ATOM     29  C   UNL     1       5.691   4.958  18.816  0.00  0.00    +0.000 A 
ATOM     30  C   UNL     1       4.421   4.386  18.682  0.00  0.00    +0.000 A 
BRANCH  25  32
ATOM     31  C   UNL     1       2.509   1.966  18.058  0.00  0.00    +0.000 C 
ATOM     32  C   UNL     1       2.590   3.291  17.292  0.00  0.00    +0.000 C 
ATOM     33  C   UNL     1       1.485   4.251  17.743  0.00  0.00    +0.000 C 
ENDBRANCH  25  32
ENDBRANCH  24  28
ENDBRANCH  23  24
ENDBRANCH  19  23
ENDBRANCH  18  21
ENDBRANCH   1  18
TORSDOF 9
ENDMDL
MODEL 4
REMARK VINA RESULT:      -8.0      3.775      8.268
REMARK  Name = 
REMARK  11 active torsions:
REMARK  status: ('A' for Active; 'I' for Inactive)
REMARK    1  A    between atoms: C_1  and  C_2
REMARK    2  A    between atoms: C_2  and  C_3
REMARK    3  A    between atoms: C_2  and  C_4
REMARK    4  A    between atoms: C_7  and  O_8
REMARK    5  A    between atoms: O_8  and  C_9
REMARK    6  A    between atoms: C_9  and  C_10
REMARK    7  A    between atoms: N_12  and  C_13
REMARK    8  A    between atoms: C_13  and  C_14
REMARK    9  A    between atoms: C_14  and  S_15
REMARK   10  A    between atoms: S_15  and  N_18
REMARK   11  A    between atoms: N_21  and  C_22
REMARK                            x       y       z     vdW  Elec       q    Type
REMARK                         _______ _______ _______ _____ _____    ______ ____
ROOT
ATOM      1  C   UNL     1       4.585   3.178  19.788  0.00  0.00    +0.000 C 
ENDROOT
BRANCH   1   2
ATOM      2  S   UNL     1       3.556   2.616  18.452  0.00  0.00    +0.000 S 
ATOM      3  O   UNL     1       4.014   3.266  17.249  0.00  0.00    +0.000 OA
ATOM      4  O   UNL     1       3.503   1.164  18.534  0.00  0.00    +0.000 OA
BRANCH   2   5
ATOM      5  N   UNL     1       2.017   3.216  18.855  0.00  0.00    +0.000 NA
ATOM      6  C   UNL     1       1.839   3.756  20.249  0.00  0.00    +0.000 C 
ATOM      7  C   UNL     1       2.513   5.132  20.446  0.00  0.00    +0.000 C 
ATOM      8  N   UNL     1       2.223   6.063  19.335  0.00  0.00    +0.000 N 
ATOM      9  C   UNL     1       2.253   5.543  17.957  0.00  0.00    +0.000 C 
ATOM     10  C   UNL     1       1.464   4.223  17.886  0.00  0.00    +0.000 C 
BRANCH   8  11
ATOM     11  C   UNL     1       1.809   7.355  19.588  0.00  0.00    +0.000 A 
ATOM     12  C   UNL     1       1.358   7.753  20.855  0.00  0.00    +0.000 A 
ATOM     13  C   UNL     1       0.914   9.056  21.087  0.00  0.00    +0.000 A 
ATOM     14  C   UNL     1       0.937   9.980  20.051  0.00  0.00    +0.000 A 
ATOM     15  F   UNL     1       0.515  11.231  20.273  0.00  0.00    +0.000 F 
ATOM     16  C   UNL     1       1.398   9.630  18.797  0.00  0.00    +0.000 A 
ATOM     17  C   UNL     1       1.829   8.325  18.572  0.00  0.00    +0.000 A 
ENDBRANCH   8  11
ENDBRANCH   2   5
ENDBRANCH   1   2
BRANCH   1  18
ATOM     18  C   UNL     1       5.312   4.467  19.459  0.00  0.00    +0.000 C 
BRANCH  18  21
ATOM     19  C   UNL     1       6.774   5.265  17.637  0.00  0.00    +0.000 C 
ATOM     20  O   UNL     1       6.262   6.381  17.672  0.00  0.00    +0.000 OA
ATOM     21  N   UNL     1       6.369   4.244  18.477  0.00  0.00    +0.000 N 
ATOM     22  H   UNL     1       6.848   3.352  18.455  0.00  0.00    +0.000 HD
BRANCH  19  23
ATOM     23  C   UNL     1       7.879   4.902  16.649  0.00  0.00    +0.000 C 
BRANCH  23  24
ATOM     24  O   UNL     1       7.624   5.579  15.424  0.00  0.00    +0.000 OA
BRANCH  24  28
ATOM     25  C   UNL     1       5.466   3.437  12.546  0.00  0.00    +0.000 A 
ATOM     26  C   UNL     1       6.767   3.899  12.313  0.00  0.00    +0.000 A 
ATOM     27  C   UNL     1       7.457   4.607  13.303  0.00  0.00    +0.000 A 
ATOM     28  C   UNL     1       6.845   4.906  14.522  0.00  0.00    +0.000 A 
ATOM     29  C   UNL     1       5.549   4.459  14.761  0.00  0.00    +0.000 A 
ATOM     30  C   UNL     1       4.869   3.725  13.783  0.00  0.00    +0.000 A 
BRANCH  25  32
ATOM     31  C   UNL     1       4.002   3.549  10.503  0.00  0.00    +0.000 C 
ATOM     32  C   UNL     1       4.735   2.631  11.488  0.00  0.00    +0.000 C 
ATOM     33  C   UNL     1       5.690   1.689  10.749  0.00  0.00    +0.000 C 
ENDBRANCH  25  32
ENDBRANCH  24  28
ENDBRANCH  23  24
ENDBRANCH  19  23
ENDBRANCH  18  21
ENDBRANCH   1  18
TORSDOF 9
ENDMDL
MODEL 5
REMARK VINA RESULT:      -8.0      3.794      8.480
REMARK  Name = 
REMARK  11 active torsions:
REMARK  status: ('A' for Active; 'I' for Inactive)
REMARK    1  A    between atoms: C_1  and  C_2
REMARK    2  A    between atoms: C_2  and  C_3
REMARK    3  A    between atoms: C_2  and  C_4
REMARK    4  A    between atoms: C_7  and  O_8
REMARK    5  A    between atoms: O_8  and  C_9
REMARK    6  A    between atoms: C_9  and  C_10
REMARK    7  A    between atoms: N_12  and  C_13
REMARK    8  A    between atoms: C_13  and  C_14
REMARK    9  A    between atoms: C_14  and  S_15
REMARK   10  A    between atoms: S_15  and  N_18
REMARK   11  A    between atoms: N_21  and  C_22
REMARK                            x       y       z     vdW  Elec       q    Type
REMARK                         _______ _______ _______ _____ _____    ______ ____
ROOT
ATOM      1  C   UNL     1       4.664   4.325  19.840  0.00  0.00    +0.000 C 
ENDROOT
BRANCH   1   2
ATOM      2  S   UNL     1       3.440   3.046  19.685  0.00  0.00    +0.000 S 
ATOM      3  O   UNL     1       3.931   2.090  18.724  0.00  0.00    +0.000 OA
ATOM      4  O   UNL     1       3.087   2.626  21.033  0.00  0.00    +0.000 OA
BRANCH   2   5
ATOM      5  N   UNL     1       2.098   3.856  19.025  0.00  0.00    +0.000 NA
ATOM      6  C   UNL     1       1.014   4.271  19.984  0.00  0.00    +0.000 C 
ATOM      7  C   UNL     1       1.417   5.482  20.853  0.00  0.00    +0.000 C 
ATOM      8  N   UNL     1       2.044   6.560  20.057  0.00  0.00    +0.000 N 
ATOM      9  C   UNL     1       3.013   6.187  19.011  0.00  0.00    +0.000 C 
ATOM     10  C   UNL     1       2.441   5.037  18.163  0.00  0.00    +0.000 C 
BRANCH   8  11
ATOM     11  C   UNL     1       1.636   7.870  20.200  0.00  0.00    +0.000 A 
ATOM     12  C   UNL     1       1.546   8.742  19.105  0.00  0.00    +0.000 A 
ATOM     13  C   UNL     1       1.161  10.073  19.271  0.00  0.00    +0.000 A 
ATOM     14  C   UNL     1       0.842  10.539  20.540  0.00  0.00    +0.000 A 
ATOM     15  F   UNL     1       0.469  11.815  20.700  0.00  0.00    +0.000 F 
ATOM     16  C   UNL     1       0.895   9.702  21.638  0.00  0.00    +0.000 A 
ATOM     17  C   UNL     1       1.291   8.378  21.463  0.00  0.00    +0.000 A 
ENDBRANCH   8  11
ENDBRANCH   2   5
ENDBRANCH   1   2
BRANCH   1  18
ATOM     18  C   UNL     1       5.934   4.009  19.076  0.00  0.00    +0.000 C 
BRANCH  18  21
ATOM     19  C   UNL     1       6.862   5.816  17.672  0.00  0.00    +0.000 C 
ATOM     20  O   UNL     1       7.597   6.189  18.583  0.00  0.00    +0.000 OA
ATOM     21  N   UNL     1       5.996   4.748  17.819  0.00  0.00    +0.000 N 
ATOM     22  H   UNL     1       5.442   4.437  17.030  0.00  0.00    +0.000 HD
BRANCH  19  23
ATOM     23  C   UNL     1       6.824   6.512  16.314  0.00  0.00    +0.000 C 
BRANCH  23  24
ATOM     24  O   UNL     1       7.673   5.801  15.423  0.00  0.00    +0.000 OA
BRANCH  24  28
ATOM     25  C   UNL     1       5.985   3.588  12.296  0.00  0.00    +0.000 A 
ATOM     26  C   UNL     1       7.206   4.259  12.161  0.00  0.00    +0.000 A 
ATOM     27  C   UNL     1       7.739   4.984  13.232  0.00  0.00    +0.000 A 
ATOM     28  C   UNL     1       7.043   5.090  14.438  0.00  0.00    +0.000 A 
ATOM     29  C   UNL     1       5.824   4.433  14.580  0.00  0.00    +0.000 A 
ATOM     30  C   UNL     1       5.304   3.683  13.520  0.00  0.00    +0.000 A 
BRANCH  25  32
ATOM     31  C   UNL     1       5.800   1.285  11.300  0.00  0.00    +0.000 C 
ATOM     32  C   UNL     1       5.428   2.764  11.148  0.00  0.00    +0.000 C 
ATOM     33  C   UNL     1       3.912   2.936  11.025  0.00  0.00    +0.000 C 
ENDBRANCH  25  32
ENDBRANCH  24  28
ENDBRANCH  23  24
ENDBRANCH  19  23
ENDBRANCH  18  21
ENDBRANCH   1  18
TORSDOF 9
ENDMDL
MODEL 6
REMARK VINA RESULT:      -7.9      2.717      3.420
REMARK  Name = 
REMARK  11 active torsions:
REMARK  status: ('A' for Active; 'I' for Inactive)
REMARK    1  A    between atoms: C_1  and  C_2
REMARK    2  A    between atoms: C_2  and  C_3
REMARK    3  A    between atoms: C_2  and  C_4
REMARK    4  A    between atoms: C_7  and  O_8
REMARK    5  A    between atoms: O_8  and  C_9
REMARK    6  A    between atoms: C_9  and  C_10
REMARK    7  A    between atoms: N_12  and  C_13
REMARK    8  A    between atoms: C_13  and  C_14
REMARK    9  A    between atoms: C_14  and  S_15
REMARK   10  A    between atoms: S_15  and  N_18
REMARK   11  A    between atoms: N_21  and  C_22
REMARK                            x       y       z     vdW  Elec       q    Type
REMARK                         _______ _______ _______ _____ _____    ______ ____
ROOT
ATOM      1  C   UNL     1       2.421   4.566  20.879  0.00  0.00    +0.000 C 
ENDROOT
BRANCH   1   2
ATOM      2  S   UNL     1       1.649   2.971  20.742  0.00  0.00    +0.000 S 
ATOM      3  O   UNL     1       1.528   2.433  22.074  0.00  0.00    +0.000 OA
ATOM      4  O   UNL     1       0.473   3.135  19.900  0.00  0.00    +0.000 OA
BRANCH   2   5
ATOM      5  N   UNL     1       2.785   2.051  19.873  0.00  0.00    +0.000 NA
ATOM      6  C   UNL     1       2.540   1.882  18.398  0.00  0.00    +0.000 C 
ATOM      7  C   UNL     1       2.843   3.163  17.591  0.00  0.00    +0.000 C 
ATOM      8  N   UNL     1       4.130   3.780  17.981  0.00  0.00    +0.000 N 
ATOM      9  C   UNL     1       4.473   3.843  19.412  0.00  0.00    +0.000 C 
ATOM     10  C   UNL     1       4.213   2.475  20.067  0.00  0.00    +0.000 C 
BRANCH   8  11
ATOM     11  C   UNL     1       5.044   4.168  17.022  0.00  0.00    +0.000 A 
ATOM     12  C   UNL     1       4.697   4.273  15.667  0.00  0.00    +0.000 A 
ATOM     13  C   UNL     1       5.641   4.638  14.706  0.00  0.00    +0.000 A 
ATOM     14  C   UNL     1       6.942   4.920  15.099  0.00  0.00    +0.000 A 
ATOM     15  F   UNL     1       7.848   5.273  14.178  0.00  0.00    +0.000 F 
ATOM     16  C   UNL     1       7.314   4.850  16.427  0.00  0.00    +0.000 A 
ATOM     17  C   UNL     1       6.367   4.475  17.378  0.00  0.00    +0.000 A 
ENDBRANCH   8  11
ENDBRANCH   2   5
ENDBRANCH   1   2
BRANCH   1  18
ATOM     18  C   UNL     1       1.617   5.660  20.206  0.00  0.00    +0.000 C 
BRANCH  18  21
ATOM     19  C   UNL     1       1.668   8.118  20.431  0.00  0.00    +0.000 C 
ATOM     20  O   UNL     1       1.789   8.258  19.216  0.00  0.00    +0.000 OA
ATOM     21  N   UNL     1       1.582   6.871  21.020  0.00  0.00    +0.000 N 
ATOM     22  H   UNL     1       1.432   6.795  22.019  0.00  0.00    +0.000 HD
BRANCH  19  23
ATOM     23  C   UNL     1       1.631   9.303  21.391  0.00  0.00    +0.000 C 
BRANCH  23  24
ATOM     24  O   UNL     1       0.372   9.303  22.054  0.00  0.00    +0.000 OA
BRANCH  24  28
ATOM     25  C   UNL     1      -1.522  12.964  22.786  0.00  0.00    +0.000 A 
ATOM     26  C   UNL     1      -1.954  11.769  23.374  0.00  0.00    +0.000 A 
ATOM     27  C   UNL     1      -1.290  10.566  23.108  0.00  0.00    +0.000 A 
ATOM     28  C   UNL     1      -0.217  10.528  22.216  0.00  0.00    +0.000 A 
ATOM     29  C   UNL     1       0.216  11.709  21.620  0.00  0.00    +0.000 A 
ATOM     30  C   UNL     1      -0.428  12.917  21.908  0.00  0.00    +0.000 A 
BRANCH  25  32
ATOM     31  C   UNL     1      -3.315  14.073  24.159  0.00  0.00    +0.000 C 
ATOM     32  C   UNL     1      -2.215  14.275  23.111  0.00  0.00    +0.000 C 
ATOM     33  C   UNL     1      -1.211  15.335  23.571  0.00  0.00    +0.000 C 
ENDBRANCH  25  32
ENDBRANCH  24  28
ENDBRANCH  23  24
ENDBRANCH  19  23
ENDBRANCH  18  21
ENDBRANCH   1  18
TORSDOF 9
ENDMDL
MODEL 7
REMARK VINA RESULT:      -7.9      2.799      3.672
REMARK  Name = 
REMARK  11 active torsions:
REMARK  status: ('A' for Active; 'I' for Inactive)
REMARK    1  A    between atoms: C_1  and  C_2
REMARK    2  A    between atoms: C_2  and  C_3
REMARK    3  A    between atoms: C_2  and  C_4
REMARK    4  A    between atoms: C_7  and  O_8
REMARK    5  A    between atoms: O_8  and  C_9
REMARK    6  A    between atoms: C_9  and  C_10
REMARK    7  A    between atoms: N_12  and  C_13
REMARK    8  A    between atoms: C_13  and  C_14
REMARK    9  A    between atoms: C_14  and  S_15
REMARK   10  A    between atoms: S_15  and  N_18
REMARK   11  A    between atoms: N_21  and  C_22
REMARK                            x       y       z     vdW  Elec       q    Type
REMARK                         _______ _______ _______ _____ _____    ______ ____
ROOT
ATOM      1  C   UNL     1       2.564   5.349  20.402  0.00  0.00    +0.000 C 
ENDROOT
BRANCH   1   2
ATOM      2  S   UNL     1       2.945   5.826  18.732  0.00  0.00    +0.000 S 
ATOM      3  O   UNL     1       2.081   5.071  17.859  0.00  0.00    +0.000 OA
ATOM      4  O   UNL     1       2.949   7.281  18.693  0.00  0.00    +0.000 OA
BRANCH   2   5
ATOM      5  N   UNL     1       4.546   5.296  18.521  0.00  0.00    +0.000 NA
ATOM      6  C   UNL     1       4.739   3.894  18.009  0.00  0.00    +0.000 C 
ATOM      7  C   UNL     1       4.412   3.756  16.506  0.00  0.00    +0.000 C 
ATOM      8  N   UNL     1       5.012   4.841  15.700  0.00  0.00    +0.000 N 
ATOM      9  C   UNL     1       4.966   6.216  16.229  0.00  0.00    +0.000 C 
ATOM     10  C   UNL     1       5.407   6.217  17.704  0.00  0.00    +0.000 C 
BRANCH   8  11
ATOM     11  C   UNL     1       5.711   4.557  14.545  0.00  0.00    +0.000 A 
ATOM     12  C   UNL     1       5.207   3.681  13.572  0.00  0.00    +0.000 A 
ATOM     13  C   UNL     1       5.939   3.380  12.422  0.00  0.00    +0.000 A 
ATOM     14  C   UNL     1       7.180   3.973  12.228  0.00  0.00    +0.000 A 
ATOM     15  F   UNL     1       7.882   3.688  11.124  0.00  0.00    +0.000 F 
ATOM     16  C   UNL     1       7.696   4.859  13.153  0.00  0.00    +0.000 A 
ATOM     17  C   UNL     1       6.963   5.144  14.303  0.00  0.00    +0.000 A 
ENDBRANCH   8  11
ENDBRANCH   2   5
ENDBRANCH   1   2
BRANCH   1  18
ATOM     18  C   UNL     1       1.350   6.072  20.950  0.00  0.00    +0.000 C 
BRANCH  18  21
ATOM     19  C   UNL     1       0.602   8.361  21.491  0.00  0.00    +0.000 C 
ATOM     20  O   UNL     1      -0.557   7.981  21.641  0.00  0.00    +0.000 OA
ATOM     21  N   UNL     1       1.620   7.493  21.141  0.00  0.00    +0.000 N 
ATOM     22  H   UNL     1       2.572   7.833  21.076  0.00  0.00    +0.000 HD
BRANCH  19  23
ATOM     23  C   UNL     1       1.011   9.823  21.650  0.00  0.00    +0.000 C 
BRANCH  23  24
ATOM     24  O   UNL     1       0.228  10.396  22.690  0.00  0.00    +0.000 OA
BRANCH  24  28
ATOM     25  C   UNL     1      -3.068  12.783  21.707  0.00  0.00    +0.000 A 
ATOM     26  C   UNL     1      -2.866  12.285  23.000  0.00  0.00    +0.000 A 
ATOM     27  C   UNL     1      -1.748  11.495  23.289  0.00  0.00    +0.000 A 
ATOM     28  C   UNL     1      -0.841  11.149  22.286  0.00  0.00    +0.000 A 
ATOM     29  C   UNL     1      -1.037  11.632  20.995  0.00  0.00    +0.000 A 
ATOM     30  C   UNL     1      -2.138  12.447  20.711  0.00  0.00    +0.000 A 
BRANCH  25  32
ATOM     31  C   UNL     1      -5.403  12.877  20.775  0.00  0.00    +0.000 C 
ATOM     32  C   UNL     1      -4.257  13.677  21.404  0.00  0.00    +0.000 C 
ATOM     33  C   UNL     1      -4.731  14.415  22.659  0.00  0.00    +0.000 C 
ENDBRANCH  25  32
ENDBRANCH  24  28
ENDBRANCH  23  24
ENDBRANCH  19  23
ENDBRANCH  18  21
ENDBRANCH   1  18
TORSDOF 9
ENDMDL
MODEL 8
REMARK VINA RESULT:      -7.8      3.803      8.018
REMARK  Name = 
REMARK  11 active torsions:
REMARK  status: ('A' for Active; 'I' for Inactive)
REMARK    1  A    between atoms: C_1  and  C_2
REMARK    2  A    between atoms: C_2  and  C_3
REMARK    3  A    between atoms: C_2  and  C_4
REMARK    4  A    between atoms: C_7  and  O_8
REMARK    5  A    between atoms: O_8  and  C_9
REMARK    6  A    between atoms: C_9  and  C_10
REMARK    7  A    between atoms: N_12  and  C_13
REMARK    8  A    between atoms: C_13  and  C_14
REMARK    9  A    between atoms: C_14  and  S_15
REMARK   10  A    between atoms: S_15  and  N_18
REMARK   11  A    between atoms: N_21  and  C_22
REMARK                            x       y       z     vdW  Elec       q    Type
REMARK                         _______ _______ _______ _____ _____    ______ ____
ROOT
ATOM      1  C   UNL     1       3.987   3.554  19.962  0.00  0.00    +0.000 C 
ENDROOT
BRANCH   1   2
ATOM      2  S   UNL     1       3.078   2.717  18.685  0.00  0.00    +0.000 S 
ATOM      3  O   UNL     1       3.752   2.971  17.436  0.00  0.00    +0.000 OA
ATOM      4  O   UNL     1       2.856   1.353  19.142  0.00  0.00    +0.000 OA
BRANCH   2   5
ATOM      5  N   UNL     1       1.576   3.514  18.677  0.00  0.00    +0.000 NA
ATOM      6  C   UNL     1       1.055   3.998  20.003  0.00  0.00    +0.000 C 
ATOM      7  C   UNL     1       1.802   5.247  20.519  0.00  0.00    +0.000 C 
ATOM      8  N   UNL     1       1.980   6.270  19.465  0.00  0.00    +0.000 N 
ATOM      9  C   UNL     1       2.359   5.825  18.112  0.00  0.00    +0.000 C 
ATOM     10  C   UNL     1       1.471   4.641  17.690  0.00  0.00    +0.000 C 
BRANCH   8  11
ATOM     11  C   UNL     1       1.672   7.593  19.708  0.00  0.00    +0.000 A 
ATOM     12  C   UNL     1       1.731   8.564  18.698  0.00  0.00    +0.000 A 
ATOM     13  C   UNL     1       1.446   9.904  18.966  0.00  0.00    +0.000 A 
ATOM     14  C   UNL     1       1.080  10.280  20.252  0.00  0.00    +0.000 A 
ATOM     15  F   UNL     1       0.803  11.564  20.510  0.00  0.00    +0.000 F 
ATOM     16  C   UNL     1       0.987   9.346  21.265  0.00  0.00    +0.000 A 
ATOM     17  C   UNL     1       1.284   8.013  20.990  0.00  0.00    +0.000 A 
ENDBRANCH   8  11
ENDBRANCH   2   5
ENDBRANCH   1   2
BRANCH   1  18
ATOM     18  C   UNL     1       5.485   3.377  19.821  0.00  0.00    +0.000 C 
BRANCH  18  21
ATOM     19  C   UNL     1       7.006   5.182  19.096  0.00  0.00    +0.000 C 
ATOM     20  O   UNL     1       7.442   5.315  20.237  0.00  0.00    +0.000 OA
ATOM     21  N   UNL     1       6.029   4.253  18.788  0.00  0.00    +0.000 N 
ATOM     22  H   UNL     1       5.729   4.137  17.828  0.00  0.00    +0.000 HD
BRANCH  19  23
ATOM     23  C   UNL     1       7.483   6.045  17.932  0.00  0.00    +0.000 C 
BRANCH  23  24
ATOM     24  O   UNL     1       6.352   6.402  17.147  0.00  0.00    +0.000 OA
BRANCH  24  28
ATOM     25  C   UNL     1       6.005   4.054  13.698  0.00  0.00    +0.000 A 
ATOM     26  C   UNL     1       7.241   4.520  14.162  0.00  0.00    +0.000 A 
ATOM     27  C   UNL     1       7.315   5.298  15.322  0.00  0.00    +0.000 A 
ATOM     28  C   UNL     1       6.157   5.663  16.011  0.00  0.00    +0.000 A 
ATOM     29  C   UNL     1       4.922   5.211  15.554  0.00  0.00    +0.000 A 
ATOM     30  C   UNL     1       4.849   4.408  14.411  0.00  0.00    +0.000 A 
BRANCH  25  32
ATOM     31  C   UNL     1       4.620   3.401  11.702  0.00  0.00    +0.000 C 
ATOM     32  C   UNL     1       5.930   3.172  12.464  0.00  0.00    +0.000 C 
ATOM     33  C   UNL     1       7.138   3.391  11.550  0.00  0.00    +0.000 C 
ENDBRANCH  25  32
ENDBRANCH  24  28
ENDBRANCH  23  24
ENDBRANCH  19  23
ENDBRANCH  18  21
ENDBRANCH   1  18
TORSDOF 9
ENDMDL
MODEL 9
REMARK VINA RESULT:      -7.8      0.999      1.300
REMARK  Name = 
REMARK  11 active torsions:
REMARK  status: ('A' for Active; 'I' for Inactive)
REMARK    1  A    between atoms: C_1  and  C_2
REMARK    2  A    between atoms: C_2  and  C_3
REMARK    3  A    between atoms: C_2  and  C_4
REMARK    4  A    between atoms: C_7  and  O_8
REMARK    5  A    between atoms: O_8  and  C_9
REMARK    6  A    between atoms: C_9  and  C_10
REMARK    7  A    between atoms: N_12  and  C_13
REMARK    8  A    between atoms: C_13  and  C_14
REMARK    9  A    between atoms: C_14  and  S_15
REMARK   10  A    between atoms: S_15  and  N_18
REMARK   11  A    between atoms: N_21  and  C_22
REMARK                            x       y       z     vdW  Elec       q    Type
REMARK                         _______ _______ _______ _____ _____    ______ ____
ROOT
ATOM      1  C   UNL     1       2.025   5.365  19.457  0.00  0.00    +0.000 C 
ENDROOT
BRANCH   1   2
ATOM      2  S   UNL     1       1.809   3.852  20.363  0.00  0.00    +0.000 S 
ATOM      3  O   UNL     1       2.234   4.094  21.719  0.00  0.00    +0.000 OA
ATOM      4  O   UNL     1       0.462   3.375  20.083  0.00  0.00    +0.000 OA
BRANCH   2   5
ATOM      5  N   UNL     1       2.903   2.782  19.622  0.00  0.00    +0.000 NA
ATOM      6  C   UNL     1       2.643   2.433  18.181  0.00  0.00    +0.000 C 
ATOM      7  C   UNL     1       2.993   3.585  17.214  0.00  0.00    +0.000 C 
ATOM      8  N   UNL     1       4.305   4.195  17.520  0.00  0.00    +0.000 N 
ATOM      9  C   UNL     1       4.658   4.431  18.931  0.00  0.00    +0.000 C 
ATOM     10  C   UNL     1       4.347   3.171  19.758  0.00  0.00    +0.000 C 
BRANCH   8  11
ATOM     11  C   UNL     1       5.229   4.418  16.519  0.00  0.00    +0.000 A 
ATOM     12  C   UNL     1       6.519   4.893  16.795  0.00  0.00    +0.000 A 
ATOM     13  C   UNL     1       7.433   5.143  15.770  0.00  0.00    +0.000 A 
ATOM     14  C   UNL     1       7.064   4.899  14.453  0.00  0.00    +0.000 A 
ATOM     15  F   UNL     1       7.940   5.135  13.469  0.00  0.00    +0.000 F 
ATOM     16  C   UNL     1       5.810   4.408  14.146  0.00  0.00    +0.000 A 
ATOM     17  C   UNL     1       4.902   4.172  15.176  0.00  0.00    +0.000 A 
ENDBRANCH   8  11
ENDBRANCH   2   5
ENDBRANCH   1   2
BRANCH   1  18
ATOM     18  C   UNL     1       1.887   6.593  20.334  0.00  0.00    +0.000 C 
BRANCH  18  21
ATOM     19  C   UNL     1       1.195   8.949  20.082  0.00  0.00    +0.000 C 
ATOM     20  O   UNL     1       0.801   8.991  21.245  0.00  0.00    +0.000 OA
ATOM     21  N   UNL     1       1.743   7.804  19.534  0.00  0.00    +0.000 N 
ATOM     22  H   UNL     1       2.103   7.822  18.587  0.00  0.00    +0.000 HD
BRANCH  19  23
ATOM     23  C   UNL     1       1.090  10.144  19.139  0.00  0.00    +0.000 C 
BRANCH  23  24
ATOM     24  O   UNL     1       0.221   9.794  18.069  0.00  0.00    +0.000 OA
BRANCH  24  28
ATOM     25  C   UNL     1      -3.740  11.144  18.173  0.00  0.00    +0.000 A 
ATOM     26  C   UNL     1      -3.323  10.119  17.315  0.00  0.00    +0.000 A 
ATOM     27  C   UNL     1      -1.990   9.693  17.314  0.00  0.00    +0.000 A 
ATOM     28  C   UNL     1      -1.044  10.312  18.133  0.00  0.00    +0.000 A 
ATOM     29  C   UNL     1      -1.446  11.338  18.984  0.00  0.00    +0.000 A 
ATOM     30  C   UNL     1      -2.784  11.745  19.007  0.00  0.00    +0.000 A 
BRANCH  25  32
ATOM     31  C   UNL     1      -5.520  12.323  19.503  0.00  0.00    +0.000 C 
ATOM     32  C   UNL     1      -5.195  11.576  18.205  0.00  0.00    +0.000 C 
ATOM     33  C   UNL     1      -5.550  12.426  16.982  0.00  0.00    +0.000 C 
ENDBRANCH  25  32
ENDBRANCH  24  28
ENDBRANCH  23  24
ENDBRANCH  19  23
ENDBRANCH  18  21
ENDBRANCH   1  18
TORSDOF 9
ENDMDL
