MODEL 1
REMARK VINA RESULT:      -7.9      0.000      0.000
REMARK  Name = 
REMARK  5 active torsions:
REMARK  status: ('A' for Active; 'I' for Inactive)
REMARK    1  A    between atoms: O_1  and  C_2
REMARK    2  A    between atoms: N_7  and  C_8
REMARK    3  A    between atoms: C_11  and  O_12
REMARK    4  A    between atoms: O_12  and  C_13
REMARK    5  A    between atoms: C_13  and  C_14
REMARK                            x       y       z     vdW  Elec       q    Type
REMARK                         _______ _______ _______ _____ _____    ______ ____
ROOT
ATOM      1  C   UNL     1       6.981   4.522  17.813  0.00  0.00    +0.000 A 
ATOM      2  C   UNL     1       6.895   5.491  18.799  0.00  0.00    +0.000 A 
ATOM      3  C   UNL     1       5.632   5.922  19.201  0.00  0.00    +0.000 A 
ATOM      4  C   UNL     1       4.456   5.382  18.616  0.00  0.00    +0.000 A 
ATOM      5  C   UNL     1       3.143   5.807  18.894  0.00  0.00    +0.000 A 
ATOM      6  N   UNL     1       2.942   6.848  19.825  0.00  0.00    +0.000 N 
ATOM      7  N   UNL     1       2.066   5.256  18.305  0.00  0.00    +0.000 NA
ATOM      8  C   UNL     1       2.299   4.269  17.441  0.00  0.00    +0.000 A 
ATOM      9  N   UNL     1       3.500   3.805  17.076  0.00  0.00    +0.000 NA
ATOM     10  C   UNL     1       4.565   4.374  17.648  0.00  0.00    +0.000 A 
ATOM     11  C   UNL     1       5.833   3.964  17.259  0.00  0.00    +0.000 A 
ATOM     12  H   UNL     1       3.300   6.590  20.736  0.00  0.00    +0.000 HD
ENDROOT
BRANCH   6  13
ATOM     13  C   UNL     1       1.905   7.796  19.859  0.00  0.00    +0.000 A 
ATOM     14  C   UNL     1       1.125   7.910  21.015  0.00  0.00    +0.000 A 
ATOM     15  C   UNL     1       0.203   8.946  21.160  0.00  0.00    +0.000 A 
ATOM     16  C   UNL     1       0.083   9.916  20.163  0.00  0.00    +0.000 A 
ATOM     17  C   UNL     1       0.779   9.761  18.967  0.00  0.00    +0.000 A 
ATOM     18  C   UNL     1       1.684   8.702  18.814  0.00  0.00    +0.000 A 
BRANCH  16  19
ATOM     19  O   UNL     1      -0.668  11.055  20.292  0.00  0.00    +0.000 OA
BRANCH  19  20
ATOM     20  C   UNL     1      -0.789  11.809  19.078  0.00  0.00    +0.000 C 
BRANCH  20  21
ATOM     21  C   UNL     1      -2.165  11.629  18.488  0.00  0.00    +0.000 A 
ATOM     22  C   UNL     1      -3.306  12.003  19.210  0.00  0.00    +0.000 A 
ATOM     23  C   UNL     1      -4.575  11.868  18.643  0.00  0.00    +0.000 A 
ATOM     24  C   UNL     1      -4.711  11.367  17.350  0.00  0.00    +0.000 A 
ATOM     25  C   UNL     1      -3.582  11.005  16.617  0.00  0.00    +0.000 A 
ATOM     26  C   UNL     1      -2.314  11.139  17.183  0.00  0.00    +0.000 A 
ENDBRANCH  20  21
ENDBRANCH  19  20
ENDBRANCH  16  19
ENDBRANCH   6  13
BRANCH   1  27
ATOM     27  O   UNL     1       8.188   4.092  17.345  0.00  0.00    +0.000 OA
ATOM     28  H   UNL     1       8.264   3.135  17.492  0.00  0.00    +0.000 HD
ENDBRANCH   1  27
TORSDOF 5
ENDMDL
MODEL 2
REMARK VINA RESULT:      -7.8      1.424      1.506
REMARK  Name = 
REMARK  5 active torsions:
REMARK  status: ('A' for Active; 'I' for Inactive)
REMARK    1  A    between atoms: O_1  and  C_2
REMARK    2  A    between atoms: N_7  and  C_8
REMARK    3  A    between atoms: C_11  and  O_12
REMARK    4  A    between atoms: O_12  and  C_13
REMARK    5  A    between atoms: C_13  and  C_14
REMARK                            x       y       z     vdW  Elec       q    Type
REMARK                         _______ _______ _______ _____ _____    ______ ____
ROOT
ATOM      1  C   UNL     1       5.823   4.332  15.279  0.00  0.00    +0.000 A 
ATOM      2  C   UNL     1       5.924   5.697  15.489  0.00  0.00    +0.000 A 
ATOM      3  C   UNL     1       5.089   6.290  16.435  0.00  0.00    +0.000 A 
ATOM      4  C   UNL     1       4.155   5.514  17.171  0.00  0.00    +0.000 A 
ATOM      5  C   UNL     1       3.216   6.028  18.086  0.00  0.00    +0.000 A 
ATOM      6  N   UNL     1       3.175   7.419  18.316  0.00  0.00    +0.000 N 
ATOM      7  N   UNL     1       2.353   5.241  18.754  0.00  0.00    +0.000 NA
ATOM      8  C   UNL     1       2.433   3.932  18.516  0.00  0.00    +0.000 A 
ATOM      9  N   UNL     1       3.259   3.336  17.649  0.00  0.00    +0.000 NA
ATOM     10  C   UNL     1       4.097   4.128  16.972  0.00  0.00    +0.000 A 
ATOM     11  C   UNL     1       4.933   3.560  16.021  0.00  0.00    +0.000 A 
ATOM     12  H   UNL     1       4.059   7.750  18.681  0.00  0.00    +0.000 HD
ENDROOT
BRANCH   6  13
ATOM     13  C   UNL     1       2.069   8.209  18.677  0.00  0.00    +0.000 A 
ATOM     14  C   UNL     1       1.709   8.298  20.026  0.00  0.00    +0.000 A 
ATOM     15  C   UNL     1       0.733   9.199  20.450  0.00  0.00    +0.000 A 
ATOM     16  C   UNL     1       0.134  10.061  19.531  0.00  0.00    +0.000 A 
ATOM     17  C   UNL     1       0.409   9.916  18.173  0.00  0.00    +0.000 A 
ATOM     18  C   UNL     1       1.371   8.990  17.748  0.00  0.00    +0.000 A 
BRANCH  16  19
ATOM     19  O   UNL     1      -0.706  11.087  19.879  0.00  0.00    +0.000 OA
BRANCH  19  20
ATOM     20  C   UNL     1      -1.059  11.943  18.785  0.00  0.00    +0.000 C 
BRANCH  20  21
ATOM     21  C   UNL     1      -2.511  11.757  18.425  0.00  0.00    +0.000 A 
ATOM     22  C   UNL     1      -3.522  12.122  19.323  0.00  0.00    +0.000 A 
ATOM     23  C   UNL     1      -4.865  11.981  18.969  0.00  0.00    +0.000 A 
ATOM     24  C   UNL     1      -5.207  11.482  17.713  0.00  0.00    +0.000 A 
ATOM     25  C   UNL     1      -4.209  11.129  16.805  0.00  0.00    +0.000 A 
ATOM     26  C   UNL     1      -2.867  11.269  17.159  0.00  0.00    +0.000 A 
ENDBRANCH  20  21
ENDBRANCH  19  20
ENDBRANCH  16  19
ENDBRANCH   6  13
BRANCH   1  27
ATOM     27  O   UNL     1       6.580   3.702  14.336  0.00  0.00    +0.000 OA
ATOM     28  H   UNL     1       6.887   4.354  13.685  0.00  0.00    +0.000 HD
ENDBRANCH   1  27
TORSDOF 5
ENDMDL
MODEL 3
REMARK VINA RESULT:      -7.8      0.596      1.125
REMARK  Name = 
REMARK  5 active torsions:
REMARK  status: ('A' for Active; 'I' for Inactive)
REMARK    1  A    between atoms: O_1  and  C_2
REMARK    2  A    between atoms: N_7  and  C_8
REMARK    3  A    between atoms: C_11  and  O_12
REMARK    4  A    between atoms: O_12  and  C_13
REMARK    5  A    between atoms: C_13  and  C_14
REMARK                            x       y       z     vdW  Elec       q    Type
REMARK                         _______ _______ _______ _____ _____    ______ ____
ROOT
ATOM      1  C   UNL     1       6.639   4.683  16.941  0.00  0.00    +0.000 A 
ATOM      2  C   UNL     1       6.697   5.737  17.837  0.00  0.00    +0.000 A 
ATOM      3  C   UNL     1       5.524   6.135  18.476  0.00  0.00    +0.000 A 
ATOM      4  C   UNL     1       4.293   5.476  18.218  0.00  0.00    +0.000 A 
ATOM      5  C   UNL     1       3.044   5.853  18.748  0.00  0.00    +0.000 A 
ATOM      6  N   UNL     1       2.974   6.966  19.610  0.00  0.00    +0.000 N 
ATOM      7  N   UNL     1       1.909   5.188  18.463  0.00  0.00    +0.000 NA
ATOM      8  C   UNL     1       2.022   4.134  17.654  0.00  0.00    +0.000 A 
ATOM      9  N   UNL     1       3.145   3.705  17.068  0.00  0.00    +0.000 NA
ATOM     10  C   UNL     1       4.263   4.386  17.337  0.00  0.00    +0.000 A 
ATOM     11  C   UNL     1       5.442   4.010  16.708  0.00  0.00    +0.000 A 
ATOM     12  H   UNL     1       3.540   6.819  20.436  0.00  0.00    +0.000 HD
ENDROOT
BRANCH   6  13
ATOM     13  C   UNL     1       1.900   7.855  19.798  0.00  0.00    +0.000 A 
ATOM     14  C   UNL     1       1.186   7.814  21.000  0.00  0.00    +0.000 A 
ATOM     15  C   UNL     1       0.231   8.784  21.300  0.00  0.00    +0.000 A 
ATOM     16  C   UNL     1       0.009   9.841  20.416  0.00  0.00    +0.000 A 
ATOM     17  C   UNL     1       0.638   9.840  19.173  0.00  0.00    +0.000 A 
ATOM     18  C   UNL     1       1.578   8.848  18.864  0.00  0.00    +0.000 A 
BRANCH  16  19
ATOM     19  O   UNL     1      -0.781  10.924  20.700  0.00  0.00    +0.000 OA
BRANCH  19  20
ATOM     20  C   UNL     1      -0.885  11.865  19.624  0.00  0.00    +0.000 C 
BRANCH  20  21
ATOM     21  C   UNL     1      -2.288  11.877  19.074  0.00  0.00    +0.000 A 
ATOM     22  C   UNL     1      -2.559  11.369  17.796  0.00  0.00    +0.000 A 
ATOM     23  C   UNL     1      -3.866  11.350  17.307  0.00  0.00    +0.000 A 
ATOM     24  C   UNL     1      -4.912  11.830  18.093  0.00  0.00    +0.000 A 
ATOM     25  C   UNL     1      -4.657  12.324  19.372  0.00  0.00    +0.000 A 
ATOM     26  C   UNL     1      -3.350  12.344  19.861  0.00  0.00    +0.000 A 
ENDBRANCH  20  21
ENDBRANCH  19  20
ENDBRANCH  16  19
ENDBRANCH   6  13
BRANCH   1  27
ATOM     27  O   UNL     1       7.743   4.277  16.251  0.00  0.00    +0.000 OA
ATOM     28  H   UNL     1       7.748   3.307  16.200  0.00  0.00    +0.000 HD
ENDBRANCH   1  27
TORSDOF 5
ENDMDL
MODEL 4
REMARK VINA RESULT:      -7.7      3.448      9.379
REMARK  Name = 
REMARK  5 active torsions:
REMARK  status: ('A' for Active; 'I' for Inactive)
REMARK    1  A    between atoms: O_1  and  C_2
REMARK    2  A    between atoms: N_7  and  C_8
REMARK    3  A    between atoms: C_11  and  O_12
REMARK    4  A    between atoms: O_12  and  C_13
REMARK    5  A    between atoms: C_13  and  C_14
REMARK                            x       y       z     vdW  Elec       q    Type
REMARK                         _______ _______ _______ _____ _____    ______ ____
ROOT
ATOM      1  C   UNL     1      -5.941  12.450  18.657  0.00  0.00    +0.000 A 
ATOM      2  C   UNL     1      -4.973  12.710  19.612  0.00  0.00    +0.000 A 
ATOM      3  C   UNL     1      -3.676  12.249  19.390  0.00  0.00    +0.000 A 
ATOM      4  C   UNL     1      -3.350  11.530  18.209  0.00  0.00    +0.000 A 
ATOM      5  C   UNL     1      -2.095  10.955  17.930  0.00  0.00    +0.000 A 
ATOM      6  N   UNL     1      -1.056  11.089  18.874  0.00  0.00    +0.000 N 
ATOM      7  N   UNL     1      -1.847  10.282  16.792  0.00  0.00    +0.000 NA
ATOM      8  C   UNL     1      -2.853  10.190  15.922  0.00  0.00    +0.000 A 
ATOM      9  N   UNL     1      -4.092  10.665  16.093  0.00  0.00    +0.000 NA
ATOM     10  C   UNL     1      -4.336  11.312  17.237  0.00  0.00    +0.000 A 
ATOM     11  C   UNL     1      -5.622  11.774  17.483  0.00  0.00    +0.000 A 
ATOM     12  H   UNL     1      -0.834  12.064  19.030  0.00  0.00    +0.000 HD
ENDROOT
BRANCH   6  13
ATOM     13  C   UNL     1       0.011  10.207  19.124  0.00  0.00    +0.000 A 
ATOM     14  C   UNL     1       0.150   9.653  20.400  0.00  0.00    +0.000 A 
ATOM     15  C   UNL     1       1.082   8.646  20.648  0.00  0.00    +0.000 A 
ATOM     16  C   UNL     1       1.861   8.145  19.603  0.00  0.00    +0.000 A 
ATOM     17  C   UNL     1       1.805   8.755  18.352  0.00  0.00    +0.000 A 
ATOM     18  C   UNL     1       0.886   9.785  18.114  0.00  0.00    +0.000 A 
BRANCH  16  19
ATOM     19  O   UNL     1       2.677   7.050  19.714  0.00  0.00    +0.000 OA
BRANCH  19  20
ATOM     20  C   UNL     1       2.682   6.211  18.552  0.00  0.00    +0.000 C 
BRANCH  20  21
ATOM     21  C   UNL     1       2.301   4.801  18.924  0.00  0.00    +0.000 A 
ATOM     22  C   UNL     1       1.432   4.059  18.113  0.00  0.00    +0.000 A 
ATOM     23  C   UNL     1       1.112   2.741  18.445  0.00  0.00    +0.000 A 
ATOM     24  C   UNL     1       1.662   2.154  19.583  0.00  0.00    +0.000 A 
ATOM     25  C   UNL     1       2.539   2.879  20.389  0.00  0.00    +0.000 A 
ATOM     26  C   UNL     1       2.859   4.195  20.059  0.00  0.00    +0.000 A 
ENDBRANCH  20  21
ENDBRANCH  19  20
ENDBRANCH  16  19
ENDBRANCH   6  13
BRANCH   1  27
ATOM     27  O   UNL     1      -7.237  12.834  18.838  0.00  0.00    +0.000 OA
ATOM     28  H   UNL     1      -7.517  12.599  19.738  0.00  0.00    +0.000 HD
ENDBRANCH   1  27
TORSDOF 5
ENDMDL
MODEL 5
REMARK VINA RESULT:      -7.7      2.383      3.110
REMARK  Name = 
REMARK  5 active torsions:
REMARK  status: ('A' for Active; 'I' for Inactive)
REMARK    1  A    between atoms: O_1  and  C_2
REMARK    2  A    between atoms: N_7  and  C_8
REMARK    3  A    between atoms: C_11  and  O_12
REMARK    4  A    between atoms: O_12  and  C_13
REMARK    5  A    between atoms: C_13  and  C_14
REMARK                            x       y       z     vdW  Elec       q    Type
REMARK                         _______ _______ _______ _____ _____    ______ ____
ROOT
ATOM      1  C   UNL     1       6.449   4.929  16.138  0.00  0.00    +0.000 A 
ATOM      2  C   UNL     1       6.560   6.053  16.939  0.00  0.00    +0.000 A 
ATOM      3  C   UNL     1       5.485   6.399  17.756  0.00  0.00    +0.000 A 
ATOM      4  C   UNL     1       4.300   5.617  17.772  0.00  0.00    +0.000 A 
ATOM      5  C   UNL     1       3.134   5.926  18.498  0.00  0.00    +0.000 A 
ATOM      6  N   UNL     1       3.108   7.096  19.285  0.00  0.00    +0.000 N 
ATOM      7  N   UNL     1       2.039   5.145  18.471  0.00  0.00    +0.000 NA
ATOM      8  C   UNL     1       2.110   4.044  17.723  0.00  0.00    +0.000 A 
ATOM      9  N   UNL     1       3.149   3.666  16.969  0.00  0.00    +0.000 NA
ATOM     10  C   UNL     1       4.223   4.461  16.983  0.00  0.00    +0.000 A 
ATOM     11  C   UNL     1       5.303   4.139  16.172  0.00  0.00    +0.000 A 
ATOM     12  H   UNL     1       3.824   7.065  20.000  0.00  0.00    +0.000 HD
ENDROOT
BRANCH   6  13
ATOM     13  C   UNL     1       2.001   7.901  19.611  0.00  0.00    +0.000 A 
ATOM     14  C   UNL     1       1.408   7.764  20.870  0.00  0.00    +0.000 A 
ATOM     15  C   UNL     1       0.425   8.654  21.300  0.00  0.00    +0.000 A 
ATOM     16  C   UNL     1       0.053   9.727  20.489  0.00  0.00    +0.000 A 
ATOM     17  C   UNL     1       0.561   9.818  19.195  0.00  0.00    +0.000 A 
ATOM     18  C   UNL     1       1.529   8.905  18.756  0.00  0.00    +0.000 A 
BRANCH  16  19
ATOM     19  O   UNL     1      -0.776  10.741  20.893  0.00  0.00    +0.000 OA
BRANCH  19  20
ATOM     20  C   UNL     1      -0.135  11.715  21.728  0.00  0.00    +0.000 C 
BRANCH  20  21
ATOM     21  C   UNL     1      -1.160  12.454  22.549  0.00  0.00    +0.000 A 
ATOM     22  C   UNL     1      -2.362  11.836  22.916  0.00  0.00    +0.000 A 
ATOM     23  C   UNL     1      -3.291  12.514  23.707  0.00  0.00    +0.000 A 
ATOM     24  C   UNL     1      -3.022  13.810  24.144  0.00  0.00    +0.000 A 
ATOM     25  C   UNL     1      -1.822  14.430  23.797  0.00  0.00    +0.000 A 
ATOM     26  C   UNL     1      -0.894  13.753  23.006  0.00  0.00    +0.000 A 
ENDBRANCH  20  21
ENDBRANCH  19  20
ENDBRANCH  16  19
ENDBRANCH   6  13
BRANCH   1  27
ATOM     27  O   UNL     1       7.448   4.565  15.284  0.00  0.00    +0.000 OA
ATOM     28  H   UNL     1       8.305   4.693  15.723  0.00  0.00    +0.000 HD
ENDBRANCH   1  27
TORSDOF 5
ENDMDL
MODEL 6
REMARK VINA RESULT:      -7.7      2.170      2.849
REMARK  Name = 
REMARK  5 active torsions:
REMARK  status: ('A' for Active; 'I' for Inactive)
REMARK    1  A    between atoms: O_1  and  C_2
REMARK    2  A    between atoms: N_7  and  C_8
REMARK    3  A    between atoms: C_11  and  O_12
REMARK    4  A    between atoms: O_12  and  C_13
REMARK    5  A    between atoms: C_13  and  C_14
REMARK                            x       y       z     vdW  Elec       q    Type
REMARK                         _______ _______ _______ _____ _____    ______ ____
ROOT
ATOM      1  C   UNL     1       5.593   4.236  15.468  0.00  0.00    +0.000 A 
ATOM      2  C   UNL     1       5.687   5.614  15.570  0.00  0.00    +0.000 A 
ATOM      3  C   UNL     1       4.898   6.268  16.515  0.00  0.00    +0.000 A 
ATOM      4  C   UNL     1       4.017   5.541  17.359  0.00  0.00    +0.000 A 
ATOM      5  C   UNL     1       3.123   6.114  18.284  0.00  0.00    +0.000 A 
ATOM      6  N   UNL     1       3.076   7.517  18.412  0.00  0.00    +0.000 N 
ATOM      7  N   UNL     1       2.309   5.370  19.056  0.00  0.00    +0.000 NA
ATOM      8  C   UNL     1       2.394   4.048  18.912  0.00  0.00    +0.000 A 
ATOM      9  N   UNL     1       3.178   3.396  18.046  0.00  0.00    +0.000 NA
ATOM     10  C   UNL     1       3.966   4.143  17.266  0.00  0.00    +0.000 A 
ATOM     11  C   UNL     1       4.756   3.513  16.314  0.00  0.00    +0.000 A 
ATOM     12  H   UNL     1       3.974   7.883  18.701  0.00  0.00    +0.000 HD
ENDROOT
BRANCH   6  13
ATOM     13  C   UNL     1       1.981   8.321  18.776  0.00  0.00    +0.000 A 
ATOM     14  C   UNL     1       1.599   8.382  20.120  0.00  0.00    +0.000 A 
ATOM     15  C   UNL     1       0.636   9.293  20.552  0.00  0.00    +0.000 A 
ATOM     16  C   UNL     1       0.072  10.193  19.646  0.00  0.00    +0.000 A 
ATOM     17  C   UNL     1       0.368  10.078  18.290  0.00  0.00    +0.000 A 
ATOM     18  C   UNL     1       1.317   9.142  17.856  0.00  0.00    +0.000 A 
BRANCH  16  19
ATOM     19  O   UNL     1      -0.751  11.228  20.007  0.00  0.00    +0.000 OA
BRANCH  19  20
ATOM     20  C   UNL     1      -0.633  11.607  21.384  0.00  0.00    +0.000 C 
BRANCH  20  21
ATOM     21  C   UNL     1      -1.957  12.109  21.902  0.00  0.00    +0.000 A 
ATOM     22  C   UNL     1      -2.913  12.638  21.025  0.00  0.00    +0.000 A 
ATOM     23  C   UNL     1      -4.151  13.068  21.507  0.00  0.00    +0.000 A 
ATOM     24  C   UNL     1      -4.444  12.966  22.865  0.00  0.00    +0.000 A 
ATOM     25  C   UNL     1      -3.506  12.427  23.745  0.00  0.00    +0.000 A 
ATOM     26  C   UNL     1      -2.269  11.998  23.265  0.00  0.00    +0.000 A 
ENDBRANCH  20  21
ENDBRANCH  19  20
ENDBRANCH  16  19
ENDBRANCH   6  13
BRANCH   1  27
ATOM     27  O   UNL     1       6.304   3.544  14.533  0.00  0.00    +0.000 OA
ATOM     28  H   UNL     1       6.904   2.926  14.982  0.00  0.00    +0.000 HD
ENDBRANCH   1  27
TORSDOF 5
ENDMDL
MODEL 7
REMARK VINA RESULT:      -7.6      3.637      9.489
REMARK  Name = 
REMARK  5 active torsions:
REMARK  status: ('A' for Active; 'I' for Inactive)
REMARK    1  A    between atoms: O_1  and  C_2
REMARK    2  A    between atoms: N_7  and  C_8
REMARK    3  A    between atoms: C_11  and  O_12
REMARK    4  A    between atoms: O_12  and  C_13
REMARK    5  A    between atoms: C_13  and  C_14
REMARK                            x       y       z     vdW  Elec       q    Type
REMARK                         _______ _______ _______ _____ _____    ______ ____
ROOT
ATOM      1  C   UNL     1      -6.137  12.692  18.873  0.00  0.00    +0.000 A 
ATOM      2  C   UNL     1      -5.218  12.848  19.897  0.00  0.00    +0.000 A 
ATOM      3  C   UNL     1      -3.914  12.399  19.696  0.00  0.00    +0.000 A 
ATOM      4  C   UNL     1      -3.530  11.797  18.468  0.00  0.00    +0.000 A 
ATOM      5  C   UNL     1      -2.265  11.240  18.198  0.00  0.00    +0.000 A 
ATOM      6  N   UNL     1      -1.275  11.270  19.201  0.00  0.00    +0.000 N 
ATOM      7  N   UNL     1      -1.962  10.680  17.013  0.00  0.00    +0.000 NA
ATOM      8  C   UNL     1      -2.923  10.684  16.088  0.00  0.00    +0.000 A 
ATOM      9  N   UNL     1      -4.166  11.153  16.242  0.00  0.00    +0.000 NA
ATOM     10  C   UNL     1      -4.466  11.685  17.430  0.00  0.00    +0.000 A 
ATOM     11  C   UNL     1      -5.761  12.133  17.655  0.00  0.00    +0.000 A 
ATOM     12  H   UNL     1      -1.057  12.223  19.465  0.00  0.00    +0.000 HD
ENDROOT
BRANCH   6  13
ATOM     13  C   UNL     1      -0.227  10.358  19.416  0.00  0.00    +0.000 A 
ATOM     14  C   UNL     1      -0.104   9.746  20.668  0.00  0.00    +0.000 A 
ATOM     15  C   UNL     1       0.808   8.711  20.875  0.00  0.00    +0.000 A 
ATOM     16  C   UNL     1       1.581   8.241  19.813  0.00  0.00    +0.000 A 
ATOM     17  C   UNL     1       1.542   8.905  18.589  0.00  0.00    +0.000 A 
ATOM     18  C   UNL     1       0.643   9.962  18.393  0.00  0.00    +0.000 A 
BRANCH  16  19
ATOM     19  O   UNL     1       2.375   7.126  19.879  0.00  0.00    +0.000 OA
BRANCH  19  20
ATOM     20  C   UNL     1       1.766   6.021  20.560  0.00  0.00    +0.000 C 
BRANCH  20  21
ATOM     21  C   UNL     1       1.912   4.762  19.745  0.00  0.00    +0.000 A 
ATOM     22  C   UNL     1       1.993   3.511  20.372  0.00  0.00    +0.000 A 
ATOM     23  C   UNL     1       2.092   2.345  19.610  0.00  0.00    +0.000 A 
ATOM     24  C   UNL     1       2.103   2.420  18.219  0.00  0.00    +0.000 A 
ATOM     25  C   UNL     1       2.008   3.658  17.584  0.00  0.00    +0.000 A 
ATOM     26  C   UNL     1       1.910   4.823  18.344  0.00  0.00    +0.000 A 
ENDBRANCH  20  21
ENDBRANCH  19  20
ENDBRANCH  16  19
ENDBRANCH   6  13
BRANCH   1  27
ATOM     27  O   UNL     1      -7.438  13.070  19.025  0.00  0.00    +0.000 OA
ATOM     28  H   UNL     1      -8.014  12.303  18.867  0.00  0.00    +0.000 HD
ENDBRANCH   1  27
TORSDOF 5
ENDMDL
MODEL 8
REMARK VINA RESULT:      -7.6      2.822      3.578
REMARK  Name = 
REMARK  5 active torsions:
REMARK  status: ('A' for Active; 'I' for Inactive)
REMARK    1  A    between atoms: O_1  and  C_2
REMARK    2  A    between atoms: N_7  and  C_8
REMARK    3  A    between atoms: C_11  and  O_12
REMARK    4  A    between atoms: O_12  and  C_13
REMARK    5  A    between atoms: C_13  and  C_14
REMARK                            x       y       z     vdW  Elec       q    Type
REMARK                         _______ _______ _______ _____ _____    ______ ____
ROOT
ATOM      1  C   UNL     1       5.016   4.047  16.932  0.00  0.00    +0.000 A 
ATOM      2  C   UNL     1       5.156   5.422  17.019  0.00  0.00    +0.000 A 
ATOM      3  C   UNL     1       4.369   6.115  17.938  0.00  0.00    +0.000 A 
ATOM      4  C   UNL     1       3.444   5.429  18.769  0.00  0.00    +0.000 A 
ATOM      5  C   UNL     1       2.550   6.044  19.667  0.00  0.00    +0.000 A 
ATOM      6  N   UNL     1       2.549   7.450  19.777  0.00  0.00    +0.000 N 
ATOM      7  N   UNL     1       1.693   5.339  20.428  0.00  0.00    +0.000 NA
ATOM      8  C   UNL     1       1.735   4.013  20.302  0.00  0.00    +0.000 A 
ATOM      9  N   UNL     1       2.516   3.324  19.463  0.00  0.00    +0.000 NA
ATOM     10  C   UNL     1       3.347   4.033  18.692  0.00  0.00    +0.000 A 
ATOM     11  C   UNL     1       4.136   3.364  17.766  0.00  0.00    +0.000 A 
ATOM     12  H   UNL     1       3.452   7.788  20.083  0.00  0.00    +0.000 HD
ENDROOT
BRANCH   6  13
ATOM     13  C   UNL     1       1.475   8.296  20.106  0.00  0.00    +0.000 A 
ATOM     14  C   UNL     1       0.962   8.270  21.407  0.00  0.00    +0.000 A 
ATOM     15  C   UNL     1       0.018   9.207  21.825  0.00  0.00    +0.000 A 
ATOM     16  C   UNL     1      -0.394  10.218  20.955  0.00  0.00    +0.000 A 
ATOM     17  C   UNL     1       0.031  10.197  19.629  0.00  0.00    +0.000 A 
ATOM     18  C   UNL     1       0.960   9.237  19.204  0.00  0.00    +0.000 A 
BRANCH  16  19
ATOM     19  O   UNL     1      -1.183  11.274  21.328  0.00  0.00    +0.000 OA
BRANCH  19  20
ATOM     20  C   UNL     1      -0.552  12.171  22.251  0.00  0.00    +0.000 C 
BRANCH  20  21
ATOM     21  C   UNL     1      -1.590  12.878  23.084  0.00  0.00    +0.000 A 
ATOM     22  C   UNL     1      -2.835  12.284  23.332  0.00  0.00    +0.000 A 
ATOM     23  C   UNL     1      -3.778  12.929  24.134  0.00  0.00    +0.000 A 
ATOM     24  C   UNL     1      -3.482  14.167  24.700  0.00  0.00    +0.000 A 
ATOM     25  C   UNL     1      -2.241  14.762  24.472  0.00  0.00    +0.000 A 
ATOM     26  C   UNL     1      -1.299  14.119  23.670  0.00  0.00    +0.000 A 
ENDBRANCH  20  21
ENDBRANCH  19  20
ENDBRANCH  16  19
ENDBRANCH   6  13
BRANCH   1  27
ATOM     27  O   UNL     1       5.725   3.319  16.022  0.00  0.00    +0.000 OA
ATOM     28  H   UNL     1       5.454   3.577  15.125  0.00  0.00    +0.000 HD
ENDBRANCH   1  27
TORSDOF 5
ENDMDL
MODEL 9
REMARK VINA RESULT:      -7.6      2.800      3.573
REMARK  Name = 
REMARK  5 active torsions:
REMARK  status: ('A' for Active; 'I' for Inactive)
REMARK    1  A    between atoms: O_1  and  C_2
REMARK    2  A    between atoms: N_7  and  C_8
REMARK    3  A    between atoms: C_11  and  O_12
REMARK    4  A    between atoms: O_12  and  C_13
REMARK    5  A    between atoms: C_13  and  C_14
REMARK                            x       y       z     vdW  Elec       q    Type
REMARK                         _______ _______ _______ _____ _____    ______ ____
ROOT
ATOM      1  C   UNL     1       4.915   3.998  17.051  0.00  0.00    +0.000 A 
ATOM      2  C   UNL     1       5.137   5.347  17.270  0.00  0.00    +0.000 A 
ATOM      3  C   UNL     1       4.339   6.012  18.199  0.00  0.00    +0.000 A 
ATOM      4  C   UNL     1       3.321   5.324  18.910  0.00  0.00    +0.000 A 
ATOM      5  C   UNL     1       2.412   5.920  19.806  0.00  0.00    +0.000 A 
ATOM      6  N   UNL     1       2.495   7.308  20.043  0.00  0.00    +0.000 N 
ATOM      7  N   UNL     1       1.465   5.214  20.450  0.00  0.00    +0.000 NA
ATOM      8  C   UNL     1       1.430   3.904  20.207  0.00  0.00    +0.000 A 
ATOM      9  N   UNL     1       2.217   3.236  19.356  0.00  0.00    +0.000 NA
ATOM     10  C   UNL     1       3.139   3.949  18.703  0.00  0.00    +0.000 A 
ATOM     11  C   UNL     1       3.941   3.309  17.768  0.00  0.00    +0.000 A 
ATOM     12  H   UNL     1       3.397   7.555  20.429  0.00  0.00    +0.000 HD
ENDROOT
BRANCH   6  13
ATOM     13  C   UNL     1       1.459   8.195  20.383  0.00  0.00    +0.000 A 
ATOM     14  C   UNL     1       0.913   8.142  21.669  0.00  0.00    +0.000 A 
ATOM     15  C   UNL     1       0.009   9.110  22.106  0.00  0.00    +0.000 A 
ATOM     16  C   UNL     1      -0.327  10.177  21.272  0.00  0.00    +0.000 A 
ATOM     17  C   UNL     1       0.130  10.189  19.956  0.00  0.00    +0.000 A 
ATOM     18  C   UNL     1       1.017   9.199  19.512  0.00  0.00    +0.000 A 
BRANCH  16  19
ATOM     19  O   UNL     1      -1.069  11.257  21.673  0.00  0.00    +0.000 OA
BRANCH  19  20
ATOM     20  C   UNL     1      -1.367  11.267  23.075  0.00  0.00    +0.000 C 
BRANCH  20  21
ATOM     21  C   UNL     1      -2.162  12.497  23.431  0.00  0.00    +0.000 A 
ATOM     22  C   UNL     1      -1.554  13.759  23.453  0.00  0.00    +0.000 A 
ATOM     23  C   UNL     1      -2.305  14.899  23.748  0.00  0.00    +0.000 A 
ATOM     24  C   UNL     1      -3.668  14.786  24.015  0.00  0.00    +0.000 A 
ATOM     25  C   UNL     1      -4.287  13.537  23.981  0.00  0.00    +0.000 A 
ATOM     26  C   UNL     1      -3.537  12.398  23.687  0.00  0.00    +0.000 A 
ENDBRANCH  20  21
ENDBRANCH  19  20
ENDBRANCH  16  19
ENDBRANCH   6  13
BRANCH   1  27
ATOM     27  O   UNL     1       5.632   3.303  16.122  0.00  0.00    +0.000 OA
ATOM     28  H   UNL     1       6.520   3.124  16.472  0.00  0.00    +0.000 HD
ENDBRANCH   1  27
TORSDOF 5
ENDMDL
