MODEL 1
REMARK VINA RESULT:      -7.6      0.000      0.000
REMARK  Name = 
REMARK  10 active torsions:
REMARK  status: ('A' for Active; 'I' for Inactive)
REMARK    1  A    between atoms: C_1  and  O_2
REMARK    2  A    between atoms: O_2  and  C_3
REMARK    3  A    between atoms: C_3  and  C_5
REMARK    4  A    between atoms: C_5  and  C_6
REMARK    5  A    between atoms: C_9  and  C_10
REMARK    6  A    between atoms: C_12  and  C_13
REMARK    7  A    between atoms: C_18  and  C_19
REMARK    8  A    between atoms: C_22  and  C_23
REMARK    9  A    between atoms: C_29  and  C_30
REMARK   10  A    between atoms: C_32  and  C_33
REMARK                            x       y       z     vdW  Elec       q    Type
REMARK                         _______ _______ _______ _____ _____    ______ ____
ROOT
ATOM      1  C   UNL     1       2.047   6.799  18.172  0.00  0.00    +0.000 A 
ATOM      2  C   UNL     1       1.000   7.696  18.538  0.00  0.00    +0.000 A 
ATOM      3  C   UNL     1       1.109   9.087  18.366  0.00  0.00    +0.000 A 
ATOM      4  C   UNL     1       2.339   9.602  17.943  0.00  0.00    +0.000 A 
ATOM      5  C   UNL     1       2.703  11.056  17.827  0.00  0.00    +0.000 C 
ATOM      6  C   UNL     1       3.353   8.701  17.543  0.00  0.00    +0.000 A 
ATOM      7  C   UNL     1       3.245   7.292  17.595  0.00  0.00    +0.000 A 
ENDROOT
BRANCH   3   8
ATOM      8  C   UNL     1      -0.071   9.942  18.725  0.00  0.00    +0.000 C 
ATOM      9  O   UNL     1      -1.095   9.860  18.047  0.00  0.00    +0.000 OA
ATOM     10  N   UNL     1       0.021  10.877  19.777  0.00  0.00    +0.000 N 
ATOM     11  C   UNL     1      -1.076  11.831  19.884  0.00  0.00    +0.000 C 
ATOM     12  C   UNL     1      -0.766  12.865  20.968  0.00  0.00    +0.000 C 
ATOM     13  C   UNL     1      -1.106  12.175  22.299  0.00  0.00    +0.000 C 
ATOM     14  C   UNL     1      -0.333  10.777  22.266  0.00  0.00    +0.000 C 
ATOM     15  C   UNL     1       0.681  10.607  21.061  0.00  0.00    +0.000 C 
BRANCH  13  16
ATOM     16  C   UNL     1      -2.639  12.373  22.551  0.00  0.00    +0.000 A 
ATOM     17  C   UNL     1      -3.615  12.687  21.599  0.00  0.00    +0.000 A 
ATOM     18  C   UNL     1      -4.986  12.855  21.962  0.00  0.00    +0.000 A 
ATOM     19  C   UNL     1      -5.417  12.732  23.298  0.00  0.00    +0.000 A 
ATOM     20  C   UNL     1      -4.452  12.457  24.264  0.00  0.00    +0.000 A 
ATOM     21  C   UNL     1      -3.097  12.286  23.898  0.00  0.00    +0.000 A 
BRANCH  19  22
ATOM     22  C   UNL     1      -6.808  12.847  23.669  0.00  0.00    +0.000 C 
ATOM     23  N   UNL     1      -7.917  12.917  23.944  0.00  0.00    +0.000 NA
ENDBRANCH  19  22
ENDBRANCH  13  16
ENDBRANCH   3   8
BRANCH   1  27
ATOM     24  C   UNL     1       1.663   3.372  19.272  0.00  0.00    +0.000 A 
ATOM     25  N   UNL     1       1.050   3.318  18.101  0.00  0.00    +0.000 NA
ATOM     26  N   UNL     1       1.151   4.561  17.516  0.00  0.00    +0.000 NA
ATOM     27  C   UNL     1       1.805   5.361  18.332  0.00  0.00    +0.000 A 
ATOM     28  N   UNL     1       2.203   4.615  19.422  0.00  0.00    +0.000 N 
ATOM     29  H   UNL     1       2.752   4.942  20.208  0.00  0.00    +0.000 HD
BRANCH  24  30
ATOM     30  C   UNL     1       1.740   2.298  20.284  0.00  0.00    +0.000 C 
BRANCH  30  31
ATOM     31  C   UNL     1       2.586   2.751  21.436  0.00  0.00    +0.000 C 
ATOM     32  O   UNL     1       2.262   3.661  22.214  0.00  0.00    +0.000 OA
BRANCH  31  34
ATOM     33  C   UNL     1       4.536   1.980  20.367  0.00  0.00    +0.000 C 
ATOM     34  O   UNL     1       3.720   2.012  21.532  0.00  0.00    +0.000 OA
ENDBRANCH  31  34
ENDBRANCH  30  31
ENDBRANCH  24  30
ENDBRANCH   1  27
BRANCH   7  35
ATOM     35  C   UNL     1       4.435   6.364  17.007  0.00  0.00    +0.000 C 
ATOM     36  C   UNL     1       5.229   6.815  15.740  0.00  0.00    +0.000 C 
ATOM     37  C   UNL     1       6.520   6.320  16.397  0.00  0.00    +0.000 C 
ATOM     38  C   UNL     1       5.795   6.325  17.754  0.00  0.00    +0.000 C 
ENDBRANCH   7  35
TORSDOF 8
ENDMDL
MODEL 2
REMARK VINA RESULT:      -7.3      1.359      1.629
REMARK  Name = 
REMARK  10 active torsions:
REMARK  status: ('A' for Active; 'I' for Inactive)
REMARK    1  A    between atoms: C_1  and  O_2
REMARK    2  A    between atoms: O_2  and  C_3
REMARK    3  A    between atoms: C_3  and  C_5
REMARK    4  A    between atoms: C_5  and  C_6
REMARK    5  A    between atoms: C_9  and  C_10
REMARK    6  A    between atoms: C_12  and  C_13
REMARK    7  A    between atoms: C_18  and  C_19
REMARK    8  A    between atoms: C_22  and  C_23
REMARK    9  A    between atoms: C_29  and  C_30
REMARK   10  A    between atoms: C_32  and  C_33
REMARK                            x       y       z     vdW  Elec       q    Type
REMARK                         _______ _______ _______ _____ _____    ______ ____
ROOT
ATOM      1  C   UNL     1       1.976   7.224  19.052  0.00  0.00    +0.000 A 
ATOM      2  C   UNL     1       1.041   8.251  19.380  0.00  0.00    +0.000 A 
ATOM      3  C   UNL     1       1.112   9.537  18.818  0.00  0.00    +0.000 A 
ATOM      4  C   UNL     1       2.215   9.843  18.015  0.00  0.00    +0.000 A 
ATOM      5  C   UNL     1       2.548  11.189  17.433  0.00  0.00    +0.000 C 
ATOM      6  C   UNL     1       3.110   8.806  17.662  0.00  0.00    +0.000 A 
ATOM      7  C   UNL     1       3.013   7.471  18.117  0.00  0.00    +0.000 A 
ENDROOT
BRANCH   3   8
ATOM      8  C   UNL     1       0.046  10.530  19.180  0.00  0.00    +0.000 C 
ATOM      9  O   UNL     1      -0.876  10.729  18.390  0.00  0.00    +0.000 OA
ATOM     10  N   UNL     1       0.143  11.275  20.373  0.00  0.00    +0.000 N 
ATOM     11  C   UNL     1      -0.791  12.385  20.514  0.00  0.00    +0.000 C 
ATOM     12  C   UNL     1      -0.470  13.183  21.779  0.00  0.00    +0.000 C 
ATOM     13  C   UNL     1      -1.093  12.384  22.935  0.00  0.00    +0.000 C 
ATOM     14  C   UNL     1      -0.556  10.889  22.760  0.00  0.00    +0.000 C 
ATOM     15  C   UNL     1       0.571  10.713  21.661  0.00  0.00    +0.000 C 
BRANCH  13  16
ATOM     16  C   UNL     1      -2.594  12.815  23.047  0.00  0.00    +0.000 A 
ATOM     17  C   UNL     1      -3.653  12.395  22.234  0.00  0.00    +0.000 A 
ATOM     18  C   UNL     1      -4.983  12.877  22.433  0.00  0.00    +0.000 A 
ATOM     19  C   UNL     1      -5.289  13.810  23.443  0.00  0.00    +0.000 A 
ATOM     20  C   UNL     1      -4.239  14.266  24.238  0.00  0.00    +0.000 A 
ATOM     21  C   UNL     1      -2.925  13.782  24.040  0.00  0.00    +0.000 A 
BRANCH  19  22
ATOM     22  C   UNL     1      -6.638  14.262  23.689  0.00  0.00    +0.000 C 
ATOM     23  N   UNL     1      -7.697  14.646  23.892  0.00  0.00    +0.000 NA
ENDBRANCH  19  22
ENDBRANCH  13  16
ENDBRANCH   3   8
BRANCH   1  27
ATOM     24  C   UNL     1       1.639   3.705  19.826  0.00  0.00    +0.000 A 
ATOM     25  N   UNL     1       1.631   4.220  21.044  0.00  0.00    +0.000 NA
ATOM     26  N   UNL     1       1.706   5.589  20.922  0.00  0.00    +0.000 NA
ATOM     27  C   UNL     1       1.773   5.897  19.643  0.00  0.00    +0.000 A 
ATOM     28  N   UNL     1       1.662   4.726  18.924  0.00  0.00    +0.000 N 
ATOM     29  H   UNL     1       1.648   4.638  17.914  0.00  0.00    +0.000 HD
BRANCH  24  30
ATOM     30  C   UNL     1       1.656   2.271  19.469  0.00  0.00    +0.000 C 
BRANCH  30  31
ATOM     31  C   UNL     1       2.529   2.061  18.268  0.00  0.00    +0.000 C 
ATOM     32  O   UNL     1       2.251   2.473  17.132  0.00  0.00    +0.000 OA
BRANCH  31  34
ATOM     33  C   UNL     1       4.378   1.918  19.719  0.00  0.00    +0.000 C 
ATOM     34  O   UNL     1       3.667   1.401  18.600  0.00  0.00    +0.000 OA
ENDBRANCH  31  34
ENDBRANCH  30  31
ENDBRANCH  24  30
ENDBRANCH   1  27
BRANCH   7  35
ATOM     35  C   UNL     1       4.037   6.347  17.557  0.00  0.00    +0.000 C 
ATOM     36  C   UNL     1       5.173   6.745  16.562  0.00  0.00    +0.000 C 
ATOM     37  C   UNL     1       6.128   5.810  17.310  0.00  0.00    +0.000 C 
ATOM     38  C   UNL     1       5.149   5.811  18.497  0.00  0.00    +0.000 C 
ENDBRANCH   7  35
TORSDOF 8
ENDMDL
MODEL 3
REMARK VINA RESULT:      -7.2      3.636     10.613
REMARK  Name = 
REMARK  10 active torsions:
REMARK  status: ('A' for Active; 'I' for Inactive)
REMARK    1  A    between atoms: C_1  and  O_2
REMARK    2  A    between atoms: O_2  and  C_3
REMARK    3  A    between atoms: C_3  and  C_5
REMARK    4  A    between atoms: C_5  and  C_6
REMARK    5  A    between atoms: C_9  and  C_10
REMARK    6  A    between atoms: C_12  and  C_13
REMARK    7  A    between atoms: C_18  and  C_19
REMARK    8  A    between atoms: C_22  and  C_23
REMARK    9  A    between atoms: C_29  and  C_30
REMARK   10  A    between atoms: C_32  and  C_33
REMARK                            x       y       z     vdW  Elec       q    Type
REMARK                         _______ _______ _______ _____ _____    ______ ____
ROOT
ATOM      1  C   UNL     1      -1.418  13.310  20.949  0.00  0.00    +0.000 A 
ATOM      2  C   UNL     1      -0.630  12.504  20.073  0.00  0.00    +0.000 A 
ATOM      3  C   UNL     1       0.773  12.582  20.042  0.00  0.00    +0.000 A 
ATOM      4  C   UNL     1       1.393  13.576  20.804  0.00  0.00    +0.000 A 
ATOM      5  C   UNL     1       2.859  13.912  20.807  0.00  0.00    +0.000 C 
ATOM      6  C   UNL     1       0.607  14.338  21.699  0.00  0.00    +0.000 A 
ATOM      7  C   UNL     1      -0.794  14.216  21.844  0.00  0.00    +0.000 A 
ENDROOT
BRANCH   3   8
ATOM      8  C   UNL     1       1.515  11.648  19.129  0.00  0.00    +0.000 C 
ATOM      9  O   UNL     1       2.397  12.103  18.401  0.00  0.00    +0.000 OA
ATOM     10  N   UNL     1       1.153  10.287  19.056  0.00  0.00    +0.000 N 
ATOM     11  C   UNL     1       1.750   9.523  17.967  0.00  0.00    +0.000 C 
ATOM     12  C   UNL     1       1.154   8.115  17.928  0.00  0.00    +0.000 C 
ATOM     13  C   UNL     1       1.896   7.327  19.019  0.00  0.00    +0.000 C 
ATOM     14  C   UNL     1       1.786   8.219  20.341  0.00  0.00    +0.000 C 
ATOM     15  C   UNL     1       0.813   9.463  20.223  0.00  0.00    +0.000 C 
BRANCH  13  16
ATOM     16  C   UNL     1       3.221   6.782  18.385  0.00  0.00    +0.000 A 
ATOM     17  C   UNL     1       3.937   7.342  17.321  0.00  0.00    +0.000 A 
ATOM     18  C   UNL     1       5.131   6.736  16.823  0.00  0.00    +0.000 A 
ATOM     19  C   UNL     1       5.634   5.538  17.368  0.00  0.00    +0.000 A 
ATOM     20  C   UNL     1       4.913   4.947  18.404  0.00  0.00    +0.000 A 
ATOM     21  C   UNL     1       3.734   5.555  18.896  0.00  0.00    +0.000 A 
BRANCH  19  22
ATOM     22  C   UNL     1       6.868   4.945  16.910  0.00  0.00    +0.000 C 
ATOM     23  N   UNL     1       7.862   4.497  16.559  0.00  0.00    +0.000 NA
ENDBRANCH  19  22
ENDBRANCH  13  16
ENDBRANCH   3   8
BRANCH   1  27
ATOM     24  C   UNL     1      -4.954  13.020  20.239  0.00  0.00    +0.000 A 
ATOM     25  N   UNL     1      -4.892  12.394  21.403  0.00  0.00    +0.000 NA
ATOM     26  N   UNL     1      -3.590  12.459  21.845  0.00  0.00    +0.000 NA
ATOM     27  C   UNL     1      -2.870  13.104  20.950  0.00  0.00    +0.000 A 
ATOM     28  N   UNL     1      -3.724  13.532  19.955  0.00  0.00    +0.000 N 
ATOM     29  H   UNL     1      -3.473  14.083  19.142  0.00  0.00    +0.000 HD
BRANCH  24  30
ATOM     30  C   UNL     1      -6.133  13.134  19.355  0.00  0.00    +0.000 C 
BRANCH  30  31
ATOM     31  C   UNL     1      -5.772  12.680  17.972  0.00  0.00    +0.000 C 
ATOM     32  O   UNL     1      -6.296  13.127  16.941  0.00  0.00    +0.000 OA
BRANCH  31  34
ATOM     33  C   UNL     1      -4.465  11.144  16.758  0.00  0.00    +0.000 C 
ATOM     34  O   UNL     1      -4.780  11.756  18.004  0.00  0.00    +0.000 OA
ENDBRANCH  31  34
ENDBRANCH  30  31
ENDBRANCH  24  30
ENDBRANCH   1  27
BRANCH   7  35
ATOM     35  C   UNL     1      -1.570  15.070  22.981  0.00  0.00    +0.000 C 
ATOM     36  C   UNL     1      -1.998  14.389  24.319  0.00  0.00    +0.000 C 
ATOM     37  C   UNL     1      -1.575  15.652  25.074  0.00  0.00    +0.000 C 
ATOM     38  C   UNL     1      -0.765  16.081  23.840  0.00  0.00    +0.000 C 
ENDBRANCH   7  35
TORSDOF 8
ENDMDL
MODEL 4
REMARK VINA RESULT:      -7.1      0.908      1.065
REMARK  Name = 
REMARK  10 active torsions:
REMARK  status: ('A' for Active; 'I' for Inactive)
REMARK    1  A    between atoms: C_1  and  O_2
REMARK    2  A    between atoms: O_2  and  C_3
REMARK    3  A    between atoms: C_3  and  C_5
REMARK    4  A    between atoms: C_5  and  C_6
REMARK    5  A    between atoms: C_9  and  C_10
REMARK    6  A    between atoms: C_12  and  C_13
REMARK    7  A    between atoms: C_18  and  C_19
REMARK    8  A    between atoms: C_22  and  C_23
REMARK    9  A    between atoms: C_29  and  C_30
REMARK   10  A    between atoms: C_32  and  C_33
REMARK                            x       y       z     vdW  Elec       q    Type
REMARK                         _______ _______ _______ _____ _____    ______ ____
ROOT
ATOM      1  C   UNL     1       2.216   6.834  18.796  0.00  0.00    +0.000 A 
ATOM      2  C   UNL     1       1.175   7.752  19.127  0.00  0.00    +0.000 A 
ATOM      3  C   UNL     1       1.177   9.083  18.672  0.00  0.00    +0.000 A 
ATOM      4  C   UNL     1       2.305   9.541  17.985  0.00  0.00    +0.000 A 
ATOM      5  C   UNL     1       2.562  10.952  17.536  0.00  0.00    +0.000 C 
ATOM      6  C   UNL     1       3.308   8.611  17.626  0.00  0.00    +0.000 A 
ATOM      7  C   UNL     1       3.293   7.239  17.968  0.00  0.00    +0.000 A 
ENDROOT
BRANCH   3   8
ATOM      8  C   UNL     1       0.006   9.954  19.024  0.00  0.00    +0.000 C 
ATOM      9  O   UNL     1      -0.997   9.920  18.313  0.00  0.00    +0.000 OA
ATOM     10  N   UNL     1       0.087  10.852  20.109  0.00  0.00    +0.000 N 
ATOM     11  C   UNL     1      -0.989  11.829  20.214  0.00  0.00    +0.000 C 
ATOM     12  C   UNL     1      -0.689  12.818  21.341  0.00  0.00    +0.000 C 
ATOM     13  C   UNL     1      -1.086  12.094  22.638  0.00  0.00    +0.000 C 
ATOM     14  C   UNL     1      -0.346  10.679  22.582  0.00  0.00    +0.000 C 
ATOM     15  C   UNL     1       0.701  10.524  21.402  0.00  0.00    +0.000 C 
BRANCH  13  16
ATOM     16  C   UNL     1      -2.622  12.321  22.850  0.00  0.00    +0.000 A 
ATOM     17  C   UNL     1      -3.559  12.692  21.880  0.00  0.00    +0.000 A 
ATOM     18  C   UNL     1      -4.937  12.882  22.207  0.00  0.00    +0.000 A 
ATOM     19  C   UNL     1      -5.413  12.723  23.523  0.00  0.00    +0.000 A 
ATOM     20  C   UNL     1      -4.486  12.390  24.508  0.00  0.00    +0.000 A 
ATOM     21  C   UNL     1      -3.124  12.198  24.178  0.00  0.00    +0.000 A 
BRANCH  19  22
ATOM     22  C   UNL     1      -6.811  12.859  23.855  0.00  0.00    +0.000 C 
ATOM     23  N   UNL     1      -7.916  12.996  24.122  0.00  0.00    +0.000 NA
ENDBRANCH  19  22
ENDBRANCH  13  16
ENDBRANCH   3   8
BRANCH   1  27
ATOM     24  C   UNL     1       2.473   3.595  20.390  0.00  0.00    +0.000 A 
ATOM     25  N   UNL     1       1.298   3.477  19.796  0.00  0.00    +0.000 NA
ATOM     26  N   UNL     1       1.066   4.635  19.088  0.00  0.00    +0.000 NA
ATOM     27  C   UNL     1       2.084   5.451  19.266  0.00  0.00    +0.000 A 
ATOM     28  N   UNL     1       3.023   4.790  20.030  0.00  0.00    +0.000 N 
ATOM     29  H   UNL     1       3.930   5.144  20.311  0.00  0.00    +0.000 HD
BRANCH  24  30
ATOM     30  C   UNL     1       3.099   2.632  21.320  0.00  0.00    +0.000 C 
BRANCH  30  31
ATOM     31  C   UNL     1       4.407   2.164  20.757  0.00  0.00    +0.000 C 
ATOM     32  O   UNL     1       4.779   2.391  19.596  0.00  0.00    +0.000 OA
BRANCH  31  34
ATOM     33  C   UNL     1       5.731   0.284  21.261  0.00  0.00    +0.000 C 
ATOM     34  O   UNL     1       5.134   1.502  21.691  0.00  0.00    +0.000 OA
ENDBRANCH  31  34
ENDBRANCH  30  31
ENDBRANCH  24  30
ENDBRANCH   1  27
BRANCH   7  35
ATOM     35  C   UNL     1       4.447   6.250  17.406  0.00  0.00    +0.000 C 
ATOM     36  C   UNL     1       5.158   6.562  16.051  0.00  0.00    +0.000 C 
ATOM     37  C   UNL     1       6.489   6.135  16.674  0.00  0.00    +0.000 C 
ATOM     38  C   UNL     1       5.851   6.285  18.065  0.00  0.00    +0.000 C 
ENDBRANCH   7  35
TORSDOF 8
ENDMDL
MODEL 5
REMARK VINA RESULT:      -7.1      3.265     10.913
REMARK  Name = 
REMARK  10 active torsions:
REMARK  status: ('A' for Active; 'I' for Inactive)
REMARK    1  A    between atoms: C_1  and  O_2
REMARK    2  A    between atoms: O_2  and  C_3
REMARK    3  A    between atoms: C_3  and  C_5
REMARK    4  A    between atoms: C_5  and  C_6
REMARK    5  A    between atoms: C_9  and  C_10
REMARK    6  A    between atoms: C_12  and  C_13
REMARK    7  A    between atoms: C_18  and  C_19
REMARK    8  A    between atoms: C_22  and  C_23
REMARK    9  A    between atoms: C_29  and  C_30
REMARK   10  A    between atoms: C_32  and  C_33
REMARK                            x       y       z     vdW  Elec       q    Type
REMARK                         _______ _______ _______ _____ _____    ______ ____
ROOT
ATOM      1  C   UNL     1      -2.937  13.778  21.224  0.00  0.00    +0.000 A 
ATOM      2  C   UNL     1      -1.831  12.910  20.978  0.00  0.00    +0.000 A 
ATOM      3  C   UNL     1      -0.524  13.394  20.791  0.00  0.00    +0.000 A 
ATOM      4  C   UNL     1      -0.341  14.778  20.717  0.00  0.00    +0.000 A 
ATOM      5  C   UNL     1       0.942  15.491  20.391  0.00  0.00    +0.000 C 
ATOM      6  C   UNL     1      -1.436  15.627  21.005  0.00  0.00    +0.000 A 
ATOM      7  C   UNL     1      -2.743  15.180  21.307  0.00  0.00    +0.000 A 
ENDROOT
BRANCH   3   8
ATOM      8  C   UNL     1       0.582  12.397  20.599  0.00  0.00    +0.000 C 
ATOM      9  O   UNL     1       1.365  12.190  21.525  0.00  0.00    +0.000 OA
ATOM     10  N   UNL     1       0.761  11.765  19.352  0.00  0.00    +0.000 N 
ATOM     11  C   UNL     1       2.001  11.017  19.185  0.00  0.00    +0.000 C 
ATOM     12  C   UNL     1       2.121  10.517  17.745  0.00  0.00    +0.000 C 
ATOM     13  C   UNL     1       1.238   9.261  17.673  0.00  0.00    +0.000 C 
ATOM     14  C   UNL     1      -0.180   9.700  18.264  0.00  0.00    +0.000 C 
ATOM     15  C   UNL     1      -0.339  11.255  18.523  0.00  0.00    +0.000 C 
BRANCH  13  16
ATOM     16  C   UNL     1       2.104   8.051  18.163  0.00  0.00    +0.000 A 
ATOM     17  C   UNL     1       1.921   7.304  19.332  0.00  0.00    +0.000 A 
ATOM     18  C   UNL     1       2.795   6.227  19.674  0.00  0.00    +0.000 A 
ATOM     19  C   UNL     1       3.890   5.876  18.860  0.00  0.00    +0.000 A 
ATOM     20  C   UNL     1       4.108   6.633  17.711  0.00  0.00    +0.000 A 
ATOM     21  C   UNL     1       3.237   7.696  17.375  0.00  0.00    +0.000 A 
BRANCH  19  22
ATOM     22  C   UNL     1       4.747   4.755  19.167  0.00  0.00    +0.000 C 
ATOM     23  N   UNL     1       5.422   3.856  19.384  0.00  0.00    +0.000 NA
ENDBRANCH  19  22
ENDBRANCH  13  16
ENDBRANCH   3   8
BRANCH   1  27
ATOM     24  C   UNL     1      -6.208  12.236  21.087  0.00  0.00    +0.000 A 
ATOM     25  N   UNL     1      -5.928  12.090  22.372  0.00  0.00    +0.000 NA
ATOM     26  N   UNL     1      -4.707  12.682  22.605  0.00  0.00    +0.000 NA
ATOM     27  C   UNL     1      -4.247  13.166  21.470  0.00  0.00    +0.000 A 
ATOM     28  N   UNL     1      -5.210  12.959  20.505  0.00  0.00    +0.000 N 
ATOM     29  H   UNL     1      -5.163  13.249  19.535  0.00  0.00    +0.000 HD
BRANCH  24  30
ATOM     30  C   UNL     1      -7.376  11.690  20.366  0.00  0.00    +0.000 C 
BRANCH  30  31
ATOM     31  C   UNL     1      -7.379  12.195  18.954  0.00  0.00    +0.000 C 
ATOM     32  O   UNL     1      -6.974  11.536  17.985  0.00  0.00    +0.000 OA
BRANCH  31  34
ATOM     33  C   UNL     1      -7.862  14.059  17.600  0.00  0.00    +0.000 C 
ATOM     34  O   UNL     1      -7.914  13.439  18.880  0.00  0.00    +0.000 OA
ENDBRANCH  31  34
ENDBRANCH  30  31
ENDBRANCH  24  30
ENDBRANCH   1  27
BRANCH   7  35
ATOM     35  C   UNL     1      -3.888  16.246  21.726  0.00  0.00    +0.000 C 
ATOM     36  C   UNL     1      -4.201  16.512  23.233  0.00  0.00    +0.000 C 
ATOM     37  C   UNL     1      -4.329  18.005  22.922  0.00  0.00    +0.000 C 
ATOM     38  C   UNL     1      -3.584  17.762  21.598  0.00  0.00    +0.000 C 
ENDBRANCH   7  35
TORSDOF 8
ENDMDL
MODEL 6
REMARK VINA RESULT:      -7.0      6.079     11.050
REMARK  Name = 
REMARK  10 active torsions:
REMARK  status: ('A' for Active; 'I' for Inactive)
REMARK    1  A    between atoms: C_1  and  O_2
REMARK    2  A    between atoms: O_2  and  C_3
REMARK    3  A    between atoms: C_3  and  C_5
REMARK    4  A    between atoms: C_5  and  C_6
REMARK    5  A    between atoms: C_9  and  C_10
REMARK    6  A    between atoms: C_12  and  C_13
REMARK    7  A    between atoms: C_18  and  C_19
REMARK    8  A    between atoms: C_22  and  C_23
REMARK    9  A    between atoms: C_29  and  C_30
REMARK   10  A    between atoms: C_32  and  C_33
REMARK                            x       y       z     vdW  Elec       q    Type
REMARK                         _______ _______ _______ _____ _____    ______ ____
ROOT
ATOM      1  C   UNL     1      -0.630  13.100  20.539  0.00  0.00    +0.000 A 
ATOM      2  C   UNL     1       0.788  13.255  20.469  0.00  0.00    +0.000 A 
ATOM      3  C   UNL     1       1.481  14.183  21.266  0.00  0.00    +0.000 A 
ATOM      4  C   UNL     1       0.731  15.064  22.051  0.00  0.00    +0.000 A 
ATOM      5  C   UNL     1       1.268  16.209  22.865  0.00  0.00    +0.000 C 
ATOM      6  C   UNL     1      -0.667  14.871  22.145  0.00  0.00    +0.000 A 
ATOM      7  C   UNL     1      -1.392  13.879  21.446  0.00  0.00    +0.000 A 
ENDROOT
BRANCH   3   8
ATOM      8  C   UNL     1       2.978  14.228  21.163  0.00  0.00    +0.000 C 
ATOM      9  O   UNL     1       3.650  13.568  21.954  0.00  0.00    +0.000 OA
ATOM     10  N   UNL     1       3.601  15.073  20.221  0.00  0.00    +0.000 N 
ATOM     11  C   UNL     1       5.042  15.242  20.367  0.00  0.00    +0.000 C 
ATOM     12  C   UNL     1       5.548  16.292  19.377  0.00  0.00    +0.000 C 
ATOM     13  C   UNL     1       5.671  15.559  18.032  0.00  0.00    +0.000 C 
ATOM     14  C   UNL     1       4.261  14.843  17.804  0.00  0.00    +0.000 C 
ATOM     15  C   UNL     1       3.134  15.251  18.840  0.00  0.00    +0.000 C 
BRANCH  13  16
ATOM     16  C   UNL     1       7.073  14.861  18.005  0.00  0.00    +0.000 A 
ATOM     17  C   UNL     1       8.301  15.426  18.367  0.00  0.00    +0.000 A 
ATOM     18  C   UNL     1       9.518  14.683  18.284  0.00  0.00    +0.000 A 
ATOM     19  C   UNL     1       9.542  13.354  17.816  0.00  0.00    +0.000 A 
ATOM     20  C   UNL     1       8.333  12.789  17.416  0.00  0.00    +0.000 A 
ATOM     21  C   UNL     1       7.130  13.528  17.505  0.00  0.00    +0.000 A 
BRANCH  19  22
ATOM     22  C   UNL     1      10.758  12.576  17.778  0.00  0.00    +0.000 C 
ATOM     23  N   UNL     1      11.731  11.973  17.771  0.00  0.00    +0.000 NA
ENDBRANCH  19  22
ENDBRANCH  13  16
ENDBRANCH   3   8
BRANCH   1  27
ATOM     24  C   UNL     1      -2.496  11.101  18.169  0.00  0.00    +0.000 A 
ATOM     25  N   UNL     1      -1.646  10.198  18.627  0.00  0.00    +0.000 NA
ATOM     26  N   UNL     1      -0.876  10.799  19.597  0.00  0.00    +0.000 NA
ATOM     27  C   UNL     1      -1.247  12.057  19.713  0.00  0.00    +0.000 A 
ATOM     28  N   UNL     1      -2.319  12.257  18.869  0.00  0.00    +0.000 N 
ATOM     29  H   UNL     1      -2.845  13.117  18.757  0.00  0.00    +0.000 HD
BRANCH  24  30
ATOM     30  C   UNL     1      -3.463  10.931  17.064  0.00  0.00    +0.000 C 
BRANCH  30  31
ATOM     31  C   UNL     1      -4.830  11.341  17.523  0.00  0.00    +0.000 C 
ATOM     32  O   UNL     1      -5.366  10.918  18.559  0.00  0.00    +0.000 OA
BRANCH  31  34
ATOM     33  C   UNL     1      -6.497  12.969  17.188  0.00  0.00    +0.000 C 
ATOM     34  O   UNL     1      -5.376  12.255  16.682  0.00  0.00    +0.000 OA
ENDBRANCH  31  34
ENDBRANCH  30  31
ENDBRANCH  24  30
ENDBRANCH   1  27
BRANCH   7  35
ATOM     35  C   UNL     1      -2.977  13.688  21.719  0.00  0.00    +0.000 C 
ATOM     36  C   UNL     1      -3.469  12.794  22.901  0.00  0.00    +0.000 C 
ATOM     37  C   UNL     1      -4.555  13.828  23.205  0.00  0.00    +0.000 C 
ATOM     38  C   UNL     1      -3.772  14.853  22.367  0.00  0.00    +0.000 C 
ENDBRANCH   7  35
TORSDOF 8
ENDMDL
MODEL 7
REMARK VINA RESULT:      -6.9      6.135     10.989
REMARK  Name = 
REMARK  10 active torsions:
REMARK  status: ('A' for Active; 'I' for Inactive)
REMARK    1  A    between atoms: C_1  and  O_2
REMARK    2  A    between atoms: O_2  and  C_3
REMARK    3  A    between atoms: C_3  and  C_5
REMARK    4  A    between atoms: C_5  and  C_6
REMARK    5  A    between atoms: C_9  and  C_10
REMARK    6  A    between atoms: C_12  and  C_13
REMARK    7  A    between atoms: C_18  and  C_19
REMARK    8  A    between atoms: C_22  and  C_23
REMARK    9  A    between atoms: C_29  and  C_30
REMARK   10  A    between atoms: C_32  and  C_33
REMARK                            x       y       z     vdW  Elec       q    Type
REMARK                         _______ _______ _______ _____ _____    ______ ____
ROOT
ATOM      1  C   UNL     1      -0.983  12.977  20.194  0.00  0.00    +0.000 A 
ATOM      2  C   UNL     1       0.437  13.113  20.148  0.00  0.00    +0.000 A 
ATOM      3  C   UNL     1       1.131  14.010  20.978  0.00  0.00    +0.000 A 
ATOM      4  C   UNL     1       0.383  14.883  21.774  0.00  0.00    +0.000 A 
ATOM      5  C   UNL     1       0.923  15.999  22.623  0.00  0.00    +0.000 C 
ATOM      6  C   UNL     1      -1.019  14.708  21.843  0.00  0.00    +0.000 A 
ATOM      7  C   UNL     1      -1.747  13.744  21.108  0.00  0.00    +0.000 A 
ENDROOT
BRANCH   3   8
ATOM      8  C   UNL     1       2.631  14.036  20.898  0.00  0.00    +0.000 C 
ATOM      9  O   UNL     1       3.280  13.303  21.642  0.00  0.00    +0.000 OA
ATOM     10  N   UNL     1       3.281  14.942  20.034  0.00  0.00    +0.000 N 
ATOM     11  C   UNL     1       4.722  15.073  20.212  0.00  0.00    +0.000 C 
ATOM     12  C   UNL     1       5.260  16.189  19.315  0.00  0.00    +0.000 C 
ATOM     13  C   UNL     1       5.390  15.563  17.917  0.00  0.00    +0.000 C 
ATOM     14  C   UNL     1       3.971  14.892  17.615  0.00  0.00    +0.000 C 
ATOM     15  C   UNL     1       2.837  15.237  18.666  0.00  0.00    +0.000 C 
BRANCH  13  16
ATOM     16  C   UNL     1       6.780  14.844  17.852  0.00  0.00    +0.000 A 
ATOM     17  C   UNL     1       7.020  13.507  17.517  0.00  0.00    +0.000 A 
ATOM     18  C   UNL     1       8.343  12.965  17.509  0.00  0.00    +0.000 A 
ATOM     19  C   UNL     1       9.463  13.746  17.854  0.00  0.00    +0.000 A 
ATOM     20  C   UNL     1       9.237  15.070  18.226  0.00  0.00    +0.000 A 
ATOM     21  C   UNL     1       7.927  15.602  18.228  0.00  0.00    +0.000 A 
BRANCH  19  22
ATOM     22  C   UNL     1      10.809  13.226  17.797  0.00  0.00    +0.000 C 
ATOM     23  N   UNL     1      11.877  12.822  17.724  0.00  0.00    +0.000 NA
ENDBRANCH  19  22
ENDBRANCH  13  16
ENDBRANCH   3   8
BRANCH   1  27
ATOM     24  C   UNL     1      -2.909  11.053  17.810  0.00  0.00    +0.000 A 
ATOM     25  N   UNL     1      -1.980  10.170  18.135  0.00  0.00    +0.000 NA
ATOM     26  N   UNL     1      -1.174  10.742  19.093  0.00  0.00    +0.000 NA
ATOM     27  C   UNL     1      -1.602  11.964  19.333  0.00  0.00    +0.000 A 
ATOM     28  N   UNL     1      -2.744  12.162  18.584  0.00  0.00    +0.000 N 
ATOM     29  H   UNL     1      -3.322  12.994  18.577  0.00  0.00    +0.000 HD
BRANCH  24  30
ATOM     30  C   UNL     1      -3.945  10.908  16.765  0.00  0.00    +0.000 C 
BRANCH  30  31
ATOM     31  C   UNL     1      -5.228  11.522  17.239  0.00  0.00    +0.000 C 
ATOM     32  O   UNL     1      -5.656  12.617  16.844  0.00  0.00    +0.000 OA
BRANCH  31  34
ATOM     33  C   UNL     1      -6.920  11.306  18.862  0.00  0.00    +0.000 C 
ATOM     34  O   UNL     1      -5.866  10.707  18.117  0.00  0.00    +0.000 OA
ENDBRANCH  31  34
ENDBRANCH  30  31
ENDBRANCH  24  30
ENDBRANCH   1  27
BRANCH   7  35
ATOM     35  C   UNL     1      -3.339  13.570  21.354  0.00  0.00    +0.000 C 
ATOM     36  C   UNL     1      -3.861  12.738  22.568  0.00  0.00    +0.000 C 
ATOM     37  C   UNL     1      -4.952  13.788  22.793  0.00  0.00    +0.000 C 
ATOM     38  C   UNL     1      -4.146  14.767  21.922  0.00  0.00    +0.000 C 
ENDBRANCH   7  35
TORSDOF 8
ENDMDL
MODEL 8
REMARK VINA RESULT:      -6.9      5.445      8.794
REMARK  Name = 
REMARK  10 active torsions:
REMARK  status: ('A' for Active; 'I' for Inactive)
REMARK    1  A    between atoms: C_1  and  O_2
REMARK    2  A    between atoms: O_2  and  C_3
REMARK    3  A    between atoms: C_3  and  C_5
REMARK    4  A    between atoms: C_5  and  C_6
REMARK    5  A    between atoms: C_9  and  C_10
REMARK    6  A    between atoms: C_12  and  C_13
REMARK    7  A    between atoms: C_18  and  C_19
REMARK    8  A    between atoms: C_22  and  C_23
REMARK    9  A    between atoms: C_29  and  C_30
REMARK   10  A    between atoms: C_32  and  C_33
REMARK                            x       y       z     vdW  Elec       q    Type
REMARK                         _______ _______ _______ _____ _____    ______ ____
ROOT
ATOM      1  C   UNL     1       0.825  11.159  19.177  0.00  0.00    +0.000 A 
ATOM      2  C   UNL     1       1.750  12.155  19.615  0.00  0.00    +0.000 A 
ATOM      3  C   UNL     1       1.422  13.522  19.643  0.00  0.00    +0.000 A 
ATOM      4  C   UNL     1       0.196  13.915  19.098  0.00  0.00    +0.000 A 
ATOM      5  C   UNL     1      -0.283  15.327  18.909  0.00  0.00    +0.000 C 
ATOM      6  C   UNL     1      -0.727  12.917  18.708  0.00  0.00    +0.000 A 
ATOM      7  C   UNL     1      -0.481  11.526  18.767  0.00  0.00    +0.000 A 
ENDROOT
BRANCH   3   8
ATOM      8  C   UNL     1       2.442  14.485  20.178  0.00  0.00    +0.000 C 
ATOM      9  O   UNL     1       2.466  14.717  21.386  0.00  0.00    +0.000 OA
ATOM     10  N   UNL     1       3.308  15.167  19.298  0.00  0.00    +0.000 N 
ATOM     11  C   UNL     1       4.079  16.260  19.876  0.00  0.00    +0.000 C 
ATOM     12  C   UNL     1       4.852  16.993  18.779  0.00  0.00    +0.000 C 
ATOM     13  C   UNL     1       6.095  16.129  18.508  0.00  0.00    +0.000 C 
ATOM     14  C   UNL     1       5.542  14.650  18.262  0.00  0.00    +0.000 C 
ATOM     15  C   UNL     1       3.966  14.541  18.143  0.00  0.00    +0.000 C 
BRANCH  13  16
ATOM     16  C   UNL     1       7.188  16.541  19.551  0.00  0.00    +0.000 A 
ATOM     17  C   UNL     1       7.756  17.809  19.719  0.00  0.00    +0.000 A 
ATOM     18  C   UNL     1       8.761  18.053  20.704  0.00  0.00    +0.000 A 
ATOM     19  C   UNL     1       9.242  17.025  21.540  0.00  0.00    +0.000 A 
ATOM     20  C   UNL     1       8.714  15.749  21.361  0.00  0.00    +0.000 A 
ATOM     21  C   UNL     1       7.715  15.514  20.388  0.00  0.00    +0.000 A 
BRANCH  19  22
ATOM     22  C   UNL     1      10.218  17.271  22.575  0.00  0.00    +0.000 C 
ATOM     23  N   UNL     1      11.010  17.476  23.375  0.00  0.00    +0.000 NA
ENDBRANCH  19  22
ENDBRANCH  13  16
ENDBRANCH   3   8
BRANCH   1  27
ATOM     24  C   UNL     1       2.248   7.861  18.743  0.00  0.00    +0.000 A 
ATOM     25  N   UNL     1       1.752   7.748  19.964  0.00  0.00    +0.000 NA
ATOM     26  N   UNL     1       1.119   8.932  20.270  0.00  0.00    +0.000 NA
ATOM     27  C   UNL     1       1.244   9.756  19.251  0.00  0.00    +0.000 A 
ATOM     28  N   UNL     1       1.895   9.077  18.242  0.00  0.00    +0.000 N 
ATOM     29  H   UNL     1       2.111   9.434  17.318  0.00  0.00    +0.000 HD
BRANCH  24  30
ATOM     30  C   UNL     1       3.077   6.868  18.028  0.00  0.00    +0.000 C 
BRANCH  30  31
ATOM     31  C   UNL     1       2.685   5.484  18.451  0.00  0.00    +0.000 C 
ATOM     32  O   UNL     1       1.747   4.849  17.946  0.00  0.00    +0.000 OA
BRANCH  31  34
ATOM     33  C   UNL     1       4.901   5.225  19.201  0.00  0.00    +0.000 C 
ATOM     34  O   UNL     1       3.510   5.016  19.420  0.00  0.00    +0.000 OA
ENDBRANCH  31  34
ENDBRANCH  30  31
ENDBRANCH  24  30
ENDBRANCH   1  27
BRANCH   7  35
ATOM     35  C   UNL     1      -1.658  10.477  18.393  0.00  0.00    +0.000 C 
ATOM     36  C   UNL     1      -3.110  10.988  18.126  0.00  0.00    +0.000 C 
ATOM     37  C   UNL     1      -3.224   9.995  16.966  0.00  0.00    +0.000 C 
ATOM     38  C   UNL     1      -1.692   9.864  16.968  0.00  0.00    +0.000 C 
ENDBRANCH   7  35
TORSDOF 8
ENDMDL
MODEL 9
REMARK VINA RESULT:      -6.9      6.151     10.237
REMARK  Name = 
REMARK  10 active torsions:
REMARK  status: ('A' for Active; 'I' for Inactive)
REMARK    1  A    between atoms: C_1  and  O_2
REMARK    2  A    between atoms: O_2  and  C_3
REMARK    3  A    between atoms: C_3  and  C_5
REMARK    4  A    between atoms: C_5  and  C_6
REMARK    5  A    between atoms: C_9  and  C_10
REMARK    6  A    between atoms: C_12  and  C_13
REMARK    7  A    between atoms: C_18  and  C_19
REMARK    8  A    between atoms: C_22  and  C_23
REMARK    9  A    between atoms: C_29  and  C_30
REMARK   10  A    between atoms: C_32  and  C_33
REMARK                            x       y       z     vdW  Elec       q    Type
REMARK                         _______ _______ _______ _____ _____    ______ ____
ROOT
ATOM      1  C   UNL     1      -2.558  11.560  18.145  0.00  0.00    +0.000 A 
ATOM      2  C   UNL     1      -1.185  11.785  18.466  0.00  0.00    +0.000 A 
ATOM      3  C   UNL     1      -0.790  12.465  19.631  0.00  0.00    +0.000 A 
ATOM      4  C   UNL     1      -1.785  13.045  20.423  0.00  0.00    +0.000 A 
ATOM      5  C   UNL     1      -1.569  13.920  21.626  0.00  0.00    +0.000 C 
ATOM      6  C   UNL     1      -3.140  12.777  20.119  0.00  0.00    +0.000 A 
ATOM      7  C   UNL     1      -3.581  12.006  19.018  0.00  0.00    +0.000 A 
ENDROOT
BRANCH   3   8
ATOM      8  C   UNL     1       0.679  12.598  19.911  0.00  0.00    +0.000 C 
ATOM      9  O   UNL     1       1.330  11.588  20.175  0.00  0.00    +0.000 OA
ATOM     10  N   UNL     1       1.285  13.871  19.942  0.00  0.00    +0.000 N 
ATOM     11  C   UNL     1       2.643  13.922  20.470  0.00  0.00    +0.000 C 
ATOM     12  C   UNL     1       3.107  15.375  20.579  0.00  0.00    +0.000 C 
ATOM     13  C   UNL     1       3.539  15.774  19.158  0.00  0.00    +0.000 C 
ATOM     14  C   UNL     1       2.311  15.384  18.213  0.00  0.00    +0.000 C 
ATOM     15  C   UNL     1       0.997  14.943  18.980  0.00  0.00    +0.000 C 
BRANCH  13  16
ATOM     16  C   UNL     1       5.025  15.315  18.973  0.00  0.00    +0.000 A 
ATOM     17  C   UNL     1       5.593  14.745  17.829  0.00  0.00    +0.000 A 
ATOM     18  C   UNL     1       6.967  14.355  17.792  0.00  0.00    +0.000 A 
ATOM     19  C   UNL     1       7.809  14.508  18.912  0.00  0.00    +0.000 A 
ATOM     20  C   UNL     1       7.249  15.040  20.071  0.00  0.00    +0.000 A 
ATOM     21  C   UNL     1       5.890  15.429  20.100  0.00  0.00    +0.000 A 
BRANCH  19  22
ATOM     22  C   UNL     1       9.211  14.167  18.869  0.00  0.00    +0.000 C 
ATOM     23  N   UNL     1      10.329  13.922  18.850  0.00  0.00    +0.000 NA
ENDBRANCH  19  22
ENDBRANCH  13  16
ENDBRANCH   3   8
BRANCH   1  27
ATOM     24  C   UNL     1      -3.570  10.290  14.911  0.00  0.00    +0.000 A 
ATOM     25  N   UNL     1      -2.840   9.277  15.348  0.00  0.00    +0.000 NA
ATOM     26  N   UNL     1      -2.408   9.588  16.618  0.00  0.00    +0.000 NA
ATOM     27  C   UNL     1      -2.861  10.782  16.939  0.00  0.00    +0.000 A 
ATOM     28  N   UNL     1      -3.658  11.221  15.902  0.00  0.00    +0.000 N 
ATOM     29  H   UNL     1      -4.174  12.093  15.866  0.00  0.00    +0.000 HD
BRANCH  24  30
ATOM     30  C   UNL     1      -4.173  10.436  13.569  0.00  0.00    +0.000 C 
BRANCH  30  31
ATOM     31  C   UNL     1      -3.352   9.686  12.563  0.00  0.00    +0.000 C 
ATOM     32  O   UNL     1      -2.137   9.470  12.688  0.00  0.00    +0.000 OA
BRANCH  31  34
ATOM     33  C   UNL     1      -5.483   9.650  11.566  0.00  0.00    +0.000 C 
ATOM     34  O   UNL     1      -4.118   9.251  11.532  0.00  0.00    +0.000 OA
ENDBRANCH  31  34
ENDBRANCH  30  31
ENDBRANCH  24  30
ENDBRANCH   1  27
BRANCH   7  35
ATOM     35  C   UNL     1      -5.157  11.680  18.836  0.00  0.00    +0.000 C 
ATOM     36  C   UNL     1      -6.131  11.806  20.050  0.00  0.00    +0.000 C 
ATOM     37  C   UNL     1      -7.174  12.434  19.122  0.00  0.00    +0.000 C 
ATOM     38  C   UNL     1      -6.056  12.711  18.103  0.00  0.00    +0.000 C 
ENDBRANCH   7  35
TORSDOF 8
ENDMDL
