MODEL 1
REMARK VINA RESULT:      -7.9      0.000      0.000
REMARK  Name = 
REMARK  2 active torsions:
REMARK  status: ('A' for Active; 'I' for Inactive)
REMARK    1  A    between atoms: C_7  and  C_8
REMARK    2  A    between atoms: C_14  and  C_15
REMARK                            x       y       z     vdW  Elec       q    Type
REMARK                         _______ _______ _______ _____ _____    ______ ____
ROOT
ATOM      1  C   UNL     1       4.475   3.981  18.393  0.00  0.00    +0.000 A 
ATOM      2  N   UNL     1       4.444   2.790  19.021  0.00  0.00    +0.000 NA
ATOM      3  N   UNL     1       3.574   2.962  20.031  0.00  0.00    +0.000 N 
ATOM      4  C   UNL     1       3.009   4.201  20.078  0.00  0.00    +0.000 A 
ATOM      5  C   UNL     1       2.082   4.775  20.932  0.00  0.00    +0.000 A 
ATOM      6  N   UNL     1       1.698   6.056  20.712  0.00  0.00    +0.000 NA
ATOM      7  C   UNL     1       2.209   6.760  19.667  0.00  0.00    +0.000 A 
ATOM      8  C   UNL     1       3.119   6.202  18.772  0.00  0.00    +0.000 A 
ATOM      9  C   UNL     1       3.555   4.890  19.007  0.00  0.00    +0.000 A 
ATOM     10  H   UNL     1       3.401   2.177  20.649  0.00  0.00    +0.000 HD
ENDROOT
BRANCH   1  17
ATOM     11  F   UNL     1       7.235   4.755  18.574  0.00  0.00    +0.000 F 
ATOM     12  C   UNL     1       6.664   4.629  17.366  0.00  0.00    +0.000 A 
ATOM     13  C   UNL     1       7.454   4.918  16.254  0.00  0.00    +0.000 A 
ATOM     14  C   UNL     1       6.934   4.756  14.975  0.00  0.00    +0.000 A 
ATOM     15  C   UNL     1       5.628   4.294  14.813  0.00  0.00    +0.000 A 
ATOM     16  C   UNL     1       4.833   4.023  15.933  0.00  0.00    +0.000 A 
ATOM     17  C   UNL     1       5.335   4.207  17.231  0.00  0.00    +0.000 A 
ENDBRANCH   1  17
BRANCH   7  18
ATOM     18  C   UNL     1       1.738   8.141  19.526  0.00  0.00    +0.000 A 
ATOM     19  C   UNL     1       1.114   8.855  20.539  0.00  0.00    +0.000 A 
ATOM     20  N   UNL     1       0.708  10.141  20.446  0.00  0.00    +0.000 NA
ATOM     21  C   UNL     1       0.932  10.731  19.265  0.00  0.00    +0.000 A 
ATOM     22  N   UNL     1       1.506  10.158  18.198  0.00  0.00    +0.000 NA
ATOM     23  C   UNL     1       1.888   8.869  18.358  0.00  0.00    +0.000 A 
ENDBRANCH   7  18
TORSDOF 2
ENDMDL
MODEL 2
REMARK VINA RESULT:      -7.9      0.036      1.003
REMARK  Name = 
REMARK  2 active torsions:
REMARK  status: ('A' for Active; 'I' for Inactive)
REMARK    1  A    between atoms: C_7  and  C_8
REMARK    2  A    between atoms: C_14  and  C_15
REMARK                            x       y       z     vdW  Elec       q    Type
REMARK                         _______ _______ _______ _____ _____    ______ ____
ROOT
ATOM      1  C   UNL     1       4.476   3.991  18.394  0.00  0.00    +0.000 A 
ATOM      2  N   UNL     1       4.435   2.802  19.025  0.00  0.00    +0.000 NA
ATOM      3  N   UNL     1       3.568   2.985  20.036  0.00  0.00    +0.000 N 
ATOM      4  C   UNL     1       3.014   4.230  20.080  0.00  0.00    +0.000 A 
ATOM      5  C   UNL     1       2.094   4.815  20.933  0.00  0.00    +0.000 A 
ATOM      6  N   UNL     1       1.722   6.100  20.710  0.00  0.00    +0.000 NA
ATOM      7  C   UNL     1       2.239   6.795  19.663  0.00  0.00    +0.000 A 
ATOM      8  C   UNL     1       3.142   6.226  18.769  0.00  0.00    +0.000 A 
ATOM      9  C   UNL     1       3.565   4.911  19.006  0.00  0.00    +0.000 A 
ATOM     10  H   UNL     1       3.387   2.204  20.656  0.00  0.00    +0.000 HD
ENDROOT
BRANCH   1  17
ATOM     11  F   UNL     1       7.240   4.751  18.569  0.00  0.00    +0.000 F 
ATOM     12  C   UNL     1       6.669   4.620  17.362  0.00  0.00    +0.000 A 
ATOM     13  C   UNL     1       7.459   4.898  16.248  0.00  0.00    +0.000 A 
ATOM     14  C   UNL     1       6.938   4.732  14.970  0.00  0.00    +0.000 A 
ATOM     15  C   UNL     1       5.629   4.277  14.812  0.00  0.00    +0.000 A 
ATOM     16  C   UNL     1       4.833   4.016  15.934  0.00  0.00    +0.000 A 
ATOM     17  C   UNL     1       5.337   4.206  17.230  0.00  0.00    +0.000 A 
ENDBRANCH   1  17
BRANCH   7  18
ATOM     18  C   UNL     1       1.782   8.180  19.518  0.00  0.00    +0.000 A 
ATOM     19  C   UNL     1       1.918   8.924  18.354  0.00  0.00    +0.000 A 
ATOM     20  N   UNL     1       1.469  10.187  18.184  0.00  0.00    +0.000 NA
ATOM     21  C   UNL     1       0.864  10.732  19.248  0.00  0.00    +0.000 A 
ATOM     22  N   UNL     1       0.682  10.139  20.436  0.00  0.00    +0.000 NA
ATOM     23  C   UNL     1       1.156   8.875  20.539  0.00  0.00    +0.000 A 
ENDBRANCH   7  18
TORSDOF 2
ENDMDL
MODEL 3
REMARK VINA RESULT:      -7.8      2.473      6.404
REMARK  Name = 
REMARK  2 active torsions:
REMARK  status: ('A' for Active; 'I' for Inactive)
REMARK    1  A    between atoms: C_7  and  C_8
REMARK    2  A    between atoms: C_14  and  C_15
REMARK                            x       y       z     vdW  Elec       q    Type
REMARK                         _______ _______ _______ _____ _____    ______ ____
ROOT
ATOM      1  C   UNL     1       2.295   6.451  19.807  0.00  0.00    +0.000 A 
ATOM      2  N   UNL     1       1.818   5.797  20.883  0.00  0.00    +0.000 NA
ATOM      3  N   UNL     1       2.386   4.581  20.819  0.00  0.00    +0.000 N 
ATOM      4  C   UNL     1       3.238   4.416  19.768  0.00  0.00    +0.000 A 
ATOM      5  C   UNL     1       4.015   3.347  19.352  0.00  0.00    +0.000 A 
ATOM      6  N   UNL     1       4.785   3.493  18.246  0.00  0.00    +0.000 NA
ATOM      7  C   UNL     1       4.800   4.669  17.565  0.00  0.00    +0.000 A 
ATOM      8  C   UNL     1       4.055   5.773  17.976  0.00  0.00    +0.000 A 
ATOM      9  C   UNL     1       3.224   5.628  19.096  0.00  0.00    +0.000 A 
ATOM     10  H   UNL     1       2.156   3.909  21.542  0.00  0.00    +0.000 HD
ENDROOT
BRANCH   1  17
ATOM     11  F   UNL     1       1.196   8.251  21.757  0.00  0.00    +0.000 F 
ATOM     12  C   UNL     1       1.314   8.655  20.483  0.00  0.00    +0.000 A 
ATOM     13  C   UNL     1       0.858   9.935  20.173  0.00  0.00    +0.000 A 
ATOM     14  C   UNL     1       1.001  10.426  18.881  0.00  0.00    +0.000 A 
ATOM     15  C   UNL     1       1.610   9.638  17.905  0.00  0.00    +0.000 A 
ATOM     16  C   UNL     1       2.050   8.346  18.216  0.00  0.00    +0.000 A 
ATOM     17  C   UNL     1       1.888   7.826  19.509  0.00  0.00    +0.000 A 
ENDBRANCH   1  17
BRANCH   7  18
ATOM     18  C   UNL     1       5.656   4.718  16.376  0.00  0.00    +0.000 A 
ATOM     19  C   UNL     1       5.394   4.024  15.203  0.00  0.00    +0.000 A 
ATOM     20  N   UNL     1       6.145   4.084  14.081  0.00  0.00    +0.000 NA
ATOM     21  C   UNL     1       7.224   4.875  14.153  0.00  0.00    +0.000 A 
ATOM     22  N   UNL     1       7.607   5.585  15.223  0.00  0.00    +0.000 NA
ATOM     23  C   UNL     1       6.811   5.479  16.313  0.00  0.00    +0.000 A 
ENDBRANCH   7  18
TORSDOF 2
ENDMDL
MODEL 4
REMARK VINA RESULT:      -7.8      2.485      6.409
REMARK  Name = 
REMARK  2 active torsions:
REMARK  status: ('A' for Active; 'I' for Inactive)
REMARK    1  A    between atoms: C_7  and  C_8
REMARK    2  A    between atoms: C_14  and  C_15
REMARK                            x       y       z     vdW  Elec       q    Type
REMARK                         _______ _______ _______ _____ _____    ______ ____
ROOT
ATOM      1  C   UNL     1       2.266   6.537  19.784  0.00  0.00    +0.000 A 
ATOM      2  N   UNL     1       1.786   5.879  20.855  0.00  0.00    +0.000 NA
ATOM      3  N   UNL     1       2.346   4.659  20.782  0.00  0.00    +0.000 N 
ATOM      4  C   UNL     1       3.196   4.496  19.728  0.00  0.00    +0.000 A 
ATOM      5  C   UNL     1       3.964   3.425  19.303  0.00  0.00    +0.000 A 
ATOM      6  N   UNL     1       4.734   3.573  18.197  0.00  0.00    +0.000 NA
ATOM      7  C   UNL     1       4.756   4.755  17.525  0.00  0.00    +0.000 A 
ATOM      8  C   UNL     1       4.019   5.860  17.945  0.00  0.00    +0.000 A 
ATOM      9  C   UNL     1       3.189   5.712  19.065  0.00  0.00    +0.000 A 
ATOM     10  H   UNL     1       2.113   3.983  21.501  0.00  0.00    +0.000 HD
ENDROOT
BRANCH   1  17
ATOM     11  F   UNL     1       1.093   8.300  21.725  0.00  0.00    +0.000 F 
ATOM     12  C   UNL     1       1.258   8.727  20.464  0.00  0.00    +0.000 A 
ATOM     13  C   UNL     1       0.812  10.012  20.162  0.00  0.00    +0.000 A 
ATOM     14  C   UNL     1       1.002  10.528  18.885  0.00  0.00    +0.000 A 
ATOM     15  C   UNL     1       1.648   9.759  17.918  0.00  0.00    +0.000 A 
ATOM     16  C   UNL     1       2.078   8.462  18.221  0.00  0.00    +0.000 A 
ATOM     17  C   UNL     1       1.869   7.917  19.497  0.00  0.00    +0.000 A 
ENDBRANCH   1  17
BRANCH   7  18
ATOM     18  C   UNL     1       5.611   4.806  16.335  0.00  0.00    +0.000 A 
ATOM     19  C   UNL     1       6.793   5.529  16.261  0.00  0.00    +0.000 A 
ATOM     20  N   UNL     1       7.618   5.559  15.191  0.00  0.00    +0.000 NA
ATOM     21  C   UNL     1       7.220   4.834  14.137  0.00  0.00    +0.000 A 
ATOM     22  N   UNL     1       6.097   4.107  14.063  0.00  0.00    +0.000 NA
ATOM     23  C   UNL     1       5.316   4.120  15.169  0.00  0.00    +0.000 A 
ENDBRANCH   7  18
TORSDOF 2
ENDMDL
MODEL 5
REMARK VINA RESULT:      -7.7      3.537      6.940
REMARK  Name = 
REMARK  2 active torsions:
REMARK  status: ('A' for Active; 'I' for Inactive)
REMARK    1  A    between atoms: C_7  and  C_8
REMARK    2  A    between atoms: C_14  and  C_15
REMARK                            x       y       z     vdW  Elec       q    Type
REMARK                         _______ _______ _______ _____ _____    ______ ____
ROOT
ATOM      1  C   UNL     1       4.444   4.524  18.748  0.00  0.00    +0.000 A 
ATOM      2  N   UNL     1       4.892   5.166  19.844  0.00  0.00    +0.000 NA
ATOM      3  N   UNL     1       6.037   5.749  19.450  0.00  0.00    +0.000 N 
ATOM      4  C   UNL     1       6.347   5.545  18.138  0.00  0.00    +0.000 A 
ATOM      5  C   UNL     1       7.406   5.966  17.351  0.00  0.00    +0.000 A 
ATOM      6  N   UNL     1       7.433   5.600  16.046  0.00  0.00    +0.000 NA
ATOM      7  C   UNL     1       6.435   4.843  15.520  0.00  0.00    +0.000 A 
ATOM      8  C   UNL     1       5.340   4.431  16.278  0.00  0.00    +0.000 A 
ATOM      9  C   UNL     1       5.315   4.768  17.638  0.00  0.00    +0.000 A 
ATOM     10  H   UNL     1       6.556   6.290  20.133  0.00  0.00    +0.000 HD
ENDROOT
BRANCH   1  17
ATOM     11  F   UNL     1       1.956   5.422  17.630  0.00  0.00    +0.000 F 
ATOM     12  C   UNL     1       2.005   4.237  18.258  0.00  0.00    +0.000 A 
ATOM     13  C   UNL     1       0.816   3.518  18.358  0.00  0.00    +0.000 A 
ATOM     14  C   UNL     1       0.815   2.261  18.953  0.00  0.00    +0.000 A 
ATOM     15  C   UNL     1       2.009   1.725  19.436  0.00  0.00    +0.000 A 
ATOM     16  C   UNL     1       3.197   2.459  19.349  0.00  0.00    +0.000 A 
ATOM     17  C   UNL     1       3.208   3.740  18.776  0.00  0.00    +0.000 A 
ENDBRANCH   1  17
BRANCH   7  18
ATOM     18  C   UNL     1       6.566   4.492  14.103  0.00  0.00    +0.000 A 
ATOM     19  C   UNL     1       7.520   5.037  13.255  0.00  0.00    +0.000 A 
ATOM     20  N   UNL     1       7.687   4.700  11.957  0.00  0.00    +0.000 NA
ATOM     21  C   UNL     1       6.839   3.776  11.488  0.00  0.00    +0.000 A 
ATOM     22  N   UNL     1       5.861   3.182  12.187  0.00  0.00    +0.000 NA
ATOM     23  C   UNL     1       5.748   3.565  13.480  0.00  0.00    +0.000 A 
ENDBRANCH   7  18
TORSDOF 2
ENDMDL
MODEL 6
REMARK VINA RESULT:      -7.7      3.496      6.928
REMARK  Name = 
REMARK  2 active torsions:
REMARK  status: ('A' for Active; 'I' for Inactive)
REMARK    1  A    between atoms: C_7  and  C_8
REMARK    2  A    between atoms: C_14  and  C_15
REMARK                            x       y       z     vdW  Elec       q    Type
REMARK                         _______ _______ _______ _____ _____    ______ ____
ROOT
ATOM      1  C   UNL     1       4.674   4.173  18.952  0.00  0.00    +0.000 A 
ATOM      2  N   UNL     1       5.388   4.634  19.995  0.00  0.00    +0.000 NA
ATOM      3  N   UNL     1       6.567   5.001  19.463  0.00  0.00    +0.000 N 
ATOM      4  C   UNL     1       6.649   4.829  18.113  0.00  0.00    +0.000 A 
ATOM      5  C   UNL     1       7.657   5.081  17.198  0.00  0.00    +0.000 A 
ATOM      6  N   UNL     1       7.432   4.809  15.889  0.00  0.00    +0.000 NA
ATOM      7  C   UNL     1       6.236   4.306  15.485  0.00  0.00    +0.000 A 
ATOM      8  C   UNL     1       5.192   4.071  16.376  0.00  0.00    +0.000 A 
ATOM      9  C   UNL     1       5.420   4.312  17.738  0.00  0.00    +0.000 A 
ATOM     10  H   UNL     1       7.273   5.378  20.085  0.00  0.00    +0.000 HD
ENDROOT
BRANCH   1  17
ATOM     11  F   UNL     1       3.833   1.569  18.077  0.00  0.00    +0.000 F 
ATOM     12  C   UNL     1       2.939   2.393  18.645  0.00  0.00    +0.000 A 
ATOM     13  C   UNL     1       1.626   1.937  18.746  0.00  0.00    +0.000 A 
ATOM     14  C   UNL     1       0.666   2.726  19.371  0.00  0.00    +0.000 A 
ATOM     15  C   UNL     1       1.027   3.964  19.900  0.00  0.00    +0.000 A 
ATOM     16  C   UNL     1       2.343   4.426  19.779  0.00  0.00    +0.000 A 
ATOM     17  C   UNL     1       3.317   3.653  19.128  0.00  0.00    +0.000 A 
ENDBRANCH   1  17
BRANCH   7  18
ATOM     18  C   UNL     1       6.101   4.033  14.051  0.00  0.00    +0.000 A 
ATOM     19  C   UNL     1       7.139   4.153  13.137  0.00  0.00    +0.000 A 
ATOM     20  N   UNL     1       7.049   3.869  11.819  0.00  0.00    +0.000 NA
ATOM     21  C   UNL     1       5.846   3.457  11.399  0.00  0.00    +0.000 A 
ATOM     22  N   UNL     1       4.754   3.315  12.164  0.00  0.00    +0.000 NA
ATOM     23  C   UNL     1       4.913   3.616  13.474  0.00  0.00    +0.000 A 
ENDBRANCH   7  18
TORSDOF 2
ENDMDL
MODEL 7
REMARK VINA RESULT:      -7.7      3.464      6.865
REMARK  Name = 
REMARK  2 active torsions:
REMARK  status: ('A' for Active; 'I' for Inactive)
REMARK    1  A    between atoms: C_7  and  C_8
REMARK    2  A    between atoms: C_14  and  C_15
REMARK                            x       y       z     vdW  Elec       q    Type
REMARK                         _______ _______ _______ _____ _____    ______ ____
ROOT
ATOM      1  C   UNL     1       4.481   4.585  18.748  0.00  0.00    +0.000 A 
ATOM      2  N   UNL     1       4.958   5.214  19.839  0.00  0.00    +0.000 NA
ATOM      3  N   UNL     1       6.116   5.763  19.433  0.00  0.00    +0.000 N 
ATOM      4  C   UNL     1       6.406   5.549  18.118  0.00  0.00    +0.000 A 
ATOM      5  C   UNL     1       7.469   5.938  17.320  0.00  0.00    +0.000 A 
ATOM      6  N   UNL     1       7.472   5.571  16.015  0.00  0.00    +0.000 NA
ATOM      7  C   UNL     1       6.446   4.843  15.500  0.00  0.00    +0.000 A 
ATOM      8  C   UNL     1       5.348   4.463  16.269  0.00  0.00    +0.000 A 
ATOM      9  C   UNL     1       5.347   4.802  17.629  0.00  0.00    +0.000 A 
ATOM     10  H   UNL     1       6.657   6.288  20.110  0.00  0.00    +0.000 HD
ENDROOT
BRANCH   1  17
ATOM     11  F   UNL     1       4.134   2.118  20.178  0.00  0.00    +0.000 F 
ATOM     12  C   UNL     1       3.111   2.614  19.464  0.00  0.00    +0.000 A 
ATOM     13  C   UNL     1       1.933   1.870  19.434  0.00  0.00    +0.000 A 
ATOM     14  C   UNL     1       0.824   2.357  18.752  0.00  0.00    +0.000 A 
ATOM     15  C   UNL     1       0.895   3.594  18.111  0.00  0.00    +0.000 A 
ATOM     16  C   UNL     1       2.086   4.329  18.129  0.00  0.00    +0.000 A 
ATOM     17  C   UNL     1       3.222   3.837  18.790  0.00  0.00    +0.000 A 
ENDBRANCH   1  17
BRANCH   7  18
ATOM     18  C   UNL     1       6.553   4.487  14.082  0.00  0.00    +0.000 A 
ATOM     19  C   UNL     1       7.498   5.022  13.218  0.00  0.00    +0.000 A 
ATOM     20  N   UNL     1       7.642   4.680  11.918  0.00  0.00    +0.000 NA
ATOM     21  C   UNL     1       6.779   3.762  11.465  0.00  0.00    +0.000 A 
ATOM     22  N   UNL     1       5.807   3.178  12.180  0.00  0.00    +0.000 NA
ATOM     23  C   UNL     1       5.717   3.566  13.474  0.00  0.00    +0.000 A 
ENDBRANCH   7  18
TORSDOF 2
ENDMDL
MODEL 8
REMARK VINA RESULT:      -7.7      3.489      6.898
REMARK  Name = 
REMARK  2 active torsions:
REMARK  status: ('A' for Active; 'I' for Inactive)
REMARK    1  A    between atoms: C_7  and  C_8
REMARK    2  A    between atoms: C_14  and  C_15
REMARK                            x       y       z     vdW  Elec       q    Type
REMARK                         _______ _______ _______ _____ _____    ______ ____
ROOT
ATOM      1  C   UNL     1       4.663   4.170  18.957  0.00  0.00    +0.000 A 
ATOM      2  N   UNL     1       5.380   4.635  19.997  0.00  0.00    +0.000 NA
ATOM      3  N   UNL     1       6.561   4.989  19.462  0.00  0.00    +0.000 N 
ATOM      4  C   UNL     1       6.643   4.806  18.113  0.00  0.00    +0.000 A 
ATOM      5  C   UNL     1       7.653   5.043  17.196  0.00  0.00    +0.000 A 
ATOM      6  N   UNL     1       7.426   4.761  15.890  0.00  0.00    +0.000 NA
ATOM      7  C   UNL     1       6.227   4.263  15.489  0.00  0.00    +0.000 A 
ATOM      8  C   UNL     1       5.181   4.043  16.382  0.00  0.00    +0.000 A 
ATOM      9  C   UNL     1       5.410   4.294  17.742  0.00  0.00    +0.000 A 
ATOM     10  H   UNL     1       7.270   5.367  20.080  0.00  0.00    +0.000 HD
ENDROOT
BRANCH   1  17
ATOM     11  F   UNL     1       3.805   1.564  18.105  0.00  0.00    +0.000 F 
ATOM     12  C   UNL     1       2.916   2.399  18.665  0.00  0.00    +0.000 A 
ATOM     13  C   UNL     1       1.600   1.953  18.770  0.00  0.00    +0.000 A 
ATOM     14  C   UNL     1       0.645   2.754  19.386  0.00  0.00    +0.000 A 
ATOM     15  C   UNL     1       1.014   3.994  19.905  0.00  0.00    +0.000 A 
ATOM     16  C   UNL     1       2.333   4.446  19.780  0.00  0.00    +0.000 A 
ATOM     17  C   UNL     1       3.302   3.661  19.137  0.00  0.00    +0.000 A 
ENDBRANCH   1  17
BRANCH   7  18
ATOM     18  C   UNL     1       6.090   3.980  14.057  0.00  0.00    +0.000 A 
ATOM     19  C   UNL     1       4.908   3.565  13.459  0.00  0.00    +0.000 A 
ATOM     20  N   UNL     1       4.747   3.337  12.136  0.00  0.00    +0.000 NA
ATOM     21  C   UNL     1       5.838   3.524  11.382  0.00  0.00    +0.000 A 
ATOM     22  N   UNL     1       7.044   3.903  11.828  0.00  0.00    +0.000 NA
ATOM     23  C   UNL     1       7.138   4.114  13.162  0.00  0.00    +0.000 A 
ENDBRANCH   7  18
TORSDOF 2
ENDMDL
MODEL 9
REMARK VINA RESULT:      -7.7      3.469      5.007
REMARK  Name = 
REMARK  2 active torsions:
REMARK  status: ('A' for Active; 'I' for Inactive)
REMARK    1  A    between atoms: C_7  and  C_8
REMARK    2  A    between atoms: C_14  and  C_15
REMARK                            x       y       z     vdW  Elec       q    Type
REMARK                         _______ _______ _______ _____ _____    ______ ____
ROOT
ATOM      1  C   UNL     1       2.389   6.271  18.886  0.00  0.00    +0.000 A 
ATOM      2  N   UNL     1       3.201   6.300  17.813  0.00  0.00    +0.000 NA
ATOM      3  N   UNL     1       3.208   7.588  17.428  0.00  0.00    +0.000 N 
ATOM      4  C   UNL     1       2.461   8.412  18.217  0.00  0.00    +0.000 A 
ATOM      5  C   UNL     1       2.212   9.773  18.175  0.00  0.00    +0.000 A 
ATOM      6  N   UNL     1       1.416  10.319  19.127  0.00  0.00    +0.000 NA
ATOM      7  C   UNL     1       0.881   9.544  20.107  0.00  0.00    +0.000 A 
ATOM      8  C   UNL     1       1.138   8.178  20.195  0.00  0.00    +0.000 A 
ATOM      9  C   UNL     1       1.929   7.590  19.198  0.00  0.00    +0.000 A 
ATOM     10  H   UNL     1       3.762   7.840  16.617  0.00  0.00    +0.000 HD
ENDROOT
BRANCH   1  17
ATOM     11  F   UNL     1       1.045   4.031  17.692  0.00  0.00    +0.000 F 
ATOM     12  C   UNL     1       1.405   3.970  18.983  0.00  0.00    +0.000 A 
ATOM     13  C   UNL     1       1.069   2.815  19.686  0.00  0.00    +0.000 A 
ATOM     14  C   UNL     1       1.460   2.673  21.012  0.00  0.00    +0.000 A 
ATOM     15  C   UNL     1       2.196   3.685  21.628  0.00  0.00    +0.000 A 
ATOM     16  C   UNL     1       2.515   4.852  20.923  0.00  0.00    +0.000 A 
ATOM     17  C   UNL     1       2.104   5.021  19.592  0.00  0.00    +0.000 A 
ENDBRANCH   1  17
BRANCH   7  18
ATOM     18  C   UNL     1       0.024  10.230  21.079  0.00  0.00    +0.000 A 
ATOM     19  C   UNL     1      -0.029   9.909  22.428  0.00  0.00    +0.000 A 
ATOM     20  N   UNL     1      -0.780  10.553  23.349  0.00  0.00    +0.000 NA
ATOM     21  C   UNL     1      -1.526  11.563  22.881  0.00  0.00    +0.000 A 
ATOM     22  N   UNL     1      -1.587  11.967  21.605  0.00  0.00    +0.000 NA
ATOM     23  C   UNL     1      -0.811  11.280  20.734  0.00  0.00    +0.000 A 
ENDBRANCH   7  18
TORSDOF 2
ENDMDL
