MODEL 1
REMARK VINA RESULT:      -8.7      0.000      0.000
REMARK  Name = 
REMARK  6 active torsions:
REMARK  status: ('A' for Active; 'I' for Inactive)
REMARK    1  A    between atoms: C_1  and  C_2
REMARK    2  A    between atoms: C_2  and  C_3
REMARK    3  A    between atoms: C_5  and  C_6
REMARK    4  A    between atoms: C_9  and  S_10
REMARK    5  A    between atoms: S_10  and  N_11
REMARK    6  A    between atoms: C_17  and  C_18
REMARK                            x       y       z     vdW  Elec       q    Type
REMARK                         _______ _______ _______ _____ _____    ______ ____
ROOT
ATOM      1  C   UNL     1       5.481   6.127  15.099  0.00  0.00    +0.000 C 
ATOM      2  C   UNL     1       5.486   6.100  16.622  0.00  0.00    +0.000 C 
ATOM      3  C   UNL     1       6.892   6.214  17.195  0.00  0.00    +0.000 C 
ATOM      4  O   UNL     1       4.686   7.191  17.122  0.00  0.00    +0.000 OA
ATOM      5  C   UNL     1       3.641   6.605  17.829  0.00  0.00    +0.000 C 
ATOM      6  C   UNL     1       3.586   5.271  17.900  0.00  0.00    +0.000 C 
ATOM      7  C   UNL     1       4.776   4.873  17.149  0.00  0.00    +0.000 C 
ATOM      8  O   UNL     1       5.131   3.715  16.989  0.00  0.00    +0.000 OA
ENDROOT
BRANCH   5   9
ATOM      9  C   UNL     1       2.698   7.536  18.438  0.00  0.00    +0.000 A 
ATOM     10  C   UNL     1       2.147   8.578  17.680  0.00  0.00    +0.000 A 
ATOM     11  C   UNL     1       1.296   9.509  18.277  0.00  0.00    +0.000 A 
ATOM     12  C   UNL     1       0.998   9.394  19.637  0.00  0.00    +0.000 A 
ATOM     13  C   UNL     1       1.517   8.348  20.386  0.00  0.00    +0.000 A 
ATOM     14  F   UNL     1       1.225   8.208  21.687  0.00  0.00    +0.000 F 
ATOM     15  C   UNL     1       2.362   7.413  19.791  0.00  0.00    +0.000 A 
BRANCH  12  16
ATOM     16  S   UNL     1      -0.008  10.601  20.418  0.00  0.00    +0.000 S 
ATOM     17  O   UNL     1      -0.654  11.409  19.414  0.00  0.00    +0.000 OA
ATOM     18  O   UNL     1      -0.751   9.968  21.484  0.00  0.00    +0.000 OA
BRANCH  16  19
ATOM     19  N   UNL     1       1.117  11.573  21.193  0.00  0.00    +0.000 NA
ATOM     20  H   UNL     1       1.400  11.138  22.072  0.00  0.00    +0.000 HD
ATOM     21  H   UNL     1       1.886  11.793  20.561  0.00  0.00    +0.000 HD
ENDBRANCH  16  19
ENDBRANCH  12  16
ENDBRANCH   5   9
BRANCH   6  22
ATOM     22  C   UNL     1       2.618   4.409  18.551  0.00  0.00    +0.000 A 
ATOM     23  C   UNL     1       1.478   3.978  17.860  0.00  0.00    +0.000 A 
ATOM     24  C   UNL     1       0.574   3.103  18.466  0.00  0.00    +0.000 A 
ATOM     25  C   UNL     1       0.804   2.655  19.767  0.00  0.00    +0.000 A 
ATOM     26  C   UNL     1       1.935   3.089  20.459  0.00  0.00    +0.000 A 
ATOM     27 CL   UNL     1       2.219   2.532  22.061  0.00  0.00    +0.000 Cl
ATOM     28  C   UNL     1       2.840   3.963  19.860  0.00  0.00    +0.000 A 
ENDBRANCH   6  22
TORSDOF 4
ENDMDL
MODEL 2
REMARK VINA RESULT:      -8.6      2.635      4.666
REMARK  Name = 
REMARK  6 active torsions:
REMARK  status: ('A' for Active; 'I' for Inactive)
REMARK    1  A    between atoms: C_1  and  C_2
REMARK    2  A    between atoms: C_2  and  C_3
REMARK    3  A    between atoms: C_5  and  C_6
REMARK    4  A    between atoms: C_9  and  S_10
REMARK    5  A    between atoms: S_10  and  N_11
REMARK    6  A    between atoms: C_17  and  C_18
REMARK                            x       y       z     vdW  Elec       q    Type
REMARK                         _______ _______ _______ _____ _____    ______ ____
ROOT
ATOM      1  C   UNL     1       2.064   2.437  21.620  0.00  0.00    +0.000 C 
ATOM      2  C   UNL     1       1.907   2.931  20.187  0.00  0.00    +0.000 C 
ATOM      3  C   UNL     1       0.922   2.088  19.391  0.00  0.00    +0.000 C 
ATOM      4  O   UNL     1       1.449   4.300  20.201  0.00  0.00    +0.000 OA
ATOM      5  C   UNL     1       2.452   5.044  19.590  0.00  0.00    +0.000 C 
ATOM      6  C   UNL     1       3.543   4.408  19.151  0.00  0.00    +0.000 C 
ATOM      7  C   UNL     1       3.246   3.017  19.490  0.00  0.00    +0.000 C 
ATOM      8  O   UNL     1       3.982   2.076  19.232  0.00  0.00    +0.000 OA
ENDROOT
BRANCH   5   9
ATOM      9  C   UNL     1       2.193   6.476  19.486  0.00  0.00    +0.000 A 
ATOM     10  C   UNL     1       1.726   7.190  20.597  0.00  0.00    +0.000 A 
ATOM     11  C   UNL     1       1.415   8.545  20.482  0.00  0.00    +0.000 A 
ATOM     12  C   UNL     1       1.572   9.185  19.250  0.00  0.00    +0.000 A 
ATOM     13  C   UNL     1       2.062   8.490  18.154  0.00  0.00    +0.000 A 
ATOM     14  F   UNL     1       2.242   9.091  16.969  0.00  0.00    +0.000 F 
ATOM     15  C   UNL     1       2.380   7.138  18.267  0.00  0.00    +0.000 A 
BRANCH  12  16
ATOM     16  S   UNL     1       1.113  10.868  19.072  0.00  0.00    +0.000 S 
ATOM     17  O   UNL     1       0.609  11.364  20.329  0.00  0.00    +0.000 OA
ATOM     18  O   UNL     1       2.150  11.558  18.339  0.00  0.00    +0.000 OA
BRANCH  16  19
ATOM     19  N   UNL     1      -0.185  10.786  18.013  0.00  0.00    +0.000 NA
ATOM     20  H   UNL     1      -0.263   9.840  17.638  0.00  0.00    +0.000 HD
ATOM     21  H   UNL     1      -1.029  11.136  18.463  0.00  0.00    +0.000 HD
ENDBRANCH  16  19
ENDBRANCH  12  16
ENDBRANCH   5   9
BRANCH   6  22
ATOM     22  C   UNL     1       4.728   4.929  18.497  0.00  0.00    +0.000 A 
ATOM     23  C   UNL     1       5.787   5.441  19.256  0.00  0.00    +0.000 A 
ATOM     24  C   UNL     1       6.953   5.890  18.631  0.00  0.00    +0.000 A 
ATOM     25  C   UNL     1       7.064   5.832  17.241  0.00  0.00    +0.000 A 
ATOM     26  C   UNL     1       6.007   5.330  16.483  0.00  0.00    +0.000 A 
ATOM     27 CL   UNL     1       6.147   5.254  14.770  0.00  0.00    +0.000 Cl
ATOM     28  C   UNL     1       4.842   4.880  17.102  0.00  0.00    +0.000 A 
ENDBRANCH   6  22
TORSDOF 4
ENDMDL
MODEL 3
REMARK VINA RESULT:      -8.6      2.487      4.460
REMARK  Name = 
REMARK  6 active torsions:
REMARK  status: ('A' for Active; 'I' for Inactive)
REMARK    1  A    between atoms: C_1  and  C_2
REMARK    2  A    between atoms: C_2  and  C_3
REMARK    3  A    between atoms: C_5  and  C_6
REMARK    4  A    between atoms: C_9  and  S_10
REMARK    5  A    between atoms: S_10  and  N_11
REMARK    6  A    between atoms: C_17  and  C_18
REMARK                            x       y       z     vdW  Elec       q    Type
REMARK                         _______ _______ _______ _____ _____    ______ ____
ROOT
ATOM      1  C   UNL     1       2.252   2.529  21.553  0.00  0.00    +0.000 C 
ATOM      2  C   UNL     1       1.928   3.046  20.157  0.00  0.00    +0.000 C 
ATOM      3  C   UNL     1       0.855   2.215  19.469  0.00  0.00    +0.000 C 
ATOM      4  O   UNL     1       1.477   4.414  20.247  0.00  0.00    +0.000 OA
ATOM      5  C   UNL     1       2.402   5.168  19.534  0.00  0.00    +0.000 C 
ATOM      6  C   UNL     1       3.433   4.540  18.960  0.00  0.00    +0.000 C 
ATOM      7  C   UNL     1       3.176   3.143  19.308  0.00  0.00    +0.000 C 
ATOM      8  O   UNL     1       3.875   2.207  18.950  0.00  0.00    +0.000 OA
ENDROOT
BRANCH   5   9
ATOM      9  C   UNL     1       2.135   6.601  19.484  0.00  0.00    +0.000 A 
ATOM     10  C   UNL     1       1.691   7.275  20.630  0.00  0.00    +0.000 A 
ATOM     11  C   UNL     1       1.371   8.632  20.569  0.00  0.00    +0.000 A 
ATOM     12  C   UNL     1       1.497   9.314  19.355  0.00  0.00    +0.000 A 
ATOM     13  C   UNL     1       1.964   8.658  18.225  0.00  0.00    +0.000 A 
ATOM     14  F   UNL     1       2.114   9.301  17.058  0.00  0.00    +0.000 F 
ATOM     15  C   UNL     1       2.290   7.305  18.285  0.00  0.00    +0.000 A 
BRANCH  12  16
ATOM     16  S   UNL     1       1.027  11.000  19.245  0.00  0.00    +0.000 S 
ATOM     17  O   UNL     1       0.526  11.443  20.523  0.00  0.00    +0.000 OA
ATOM     18  O   UNL     1       2.056  11.725  18.535  0.00  0.00    +0.000 OA
BRANCH  16  19
ATOM     19  N   UNL     1      -0.275  10.951  18.189  0.00  0.00    +0.000 NA
ATOM     20  H   UNL     1      -0.881  10.164  18.426  0.00  0.00    +0.000 HD
ATOM     21  H   UNL     1      -0.744  11.856  18.166  0.00  0.00    +0.000 HD
ENDBRANCH  16  19
ENDBRANCH  12  16
ENDBRANCH   5   9
BRANCH   6  22
ATOM     22  C   UNL     1       4.533   5.073  18.178  0.00  0.00    +0.000 A 
ATOM     23  C   UNL     1       4.432   5.160  16.784  0.00  0.00    +0.000 A 
ATOM     24  C   UNL     1       5.466   5.725  16.035  0.00  0.00    +0.000 A 
ATOM     25  C   UNL     1       6.609   6.204  16.676  0.00  0.00    +0.000 A 
ATOM     26  C   UNL     1       6.714   6.111  18.064  0.00  0.00    +0.000 A 
ATOM     27 CL   UNL     1       8.121   6.708  18.854  0.00  0.00    +0.000 Cl
ATOM     28  C   UNL     1       5.685   5.549  18.817  0.00  0.00    +0.000 A 
ENDBRANCH   6  22
TORSDOF 4
ENDMDL
MODEL 4
REMARK VINA RESULT:      -8.5      2.403      4.261
REMARK  Name = 
REMARK  6 active torsions:
REMARK  status: ('A' for Active; 'I' for Inactive)
REMARK    1  A    between atoms: C_1  and  C_2
REMARK    2  A    between atoms: C_2  and  C_3
REMARK    3  A    between atoms: C_5  and  C_6
REMARK    4  A    between atoms: C_9  and  S_10
REMARK    5  A    between atoms: S_10  and  N_11
REMARK    6  A    between atoms: C_17  and  C_18
REMARK                            x       y       z     vdW  Elec       q    Type
REMARK                         _______ _______ _______ _____ _____    ______ ____
ROOT
ATOM      1  C   UNL     1       2.494   2.745  21.624  0.00  0.00    +0.000 C 
ATOM      2  C   UNL     1       2.157   3.148  20.194  0.00  0.00    +0.000 C 
ATOM      3  C   UNL     1       1.162   2.196  19.546  0.00  0.00    +0.000 C 
ATOM      4  O   UNL     1       1.603   4.480  20.191  0.00  0.00    +0.000 OA
ATOM      5  C   UNL     1       2.482   5.257  19.444  0.00  0.00    +0.000 C 
ATOM      6  C   UNL     1       3.567   4.675  18.924  0.00  0.00    +0.000 C 
ATOM      7  C   UNL     1       3.409   3.287  19.358  0.00  0.00    +0.000 C 
ATOM      8  O   UNL     1       4.183   2.386  19.069  0.00  0.00    +0.000 OA
ENDROOT
BRANCH   5   9
ATOM      9  C   UNL     1       2.108   6.660  19.299  0.00  0.00    +0.000 A 
ATOM     10  C   UNL     1       2.237   7.298  18.058  0.00  0.00    +0.000 A 
ATOM     11  C   UNL     1       1.942   8.657  17.932  0.00  0.00    +0.000 A 
ATOM     12  C   UNL     1       1.519   9.376  19.053  0.00  0.00    +0.000 A 
ATOM     13  C   UNL     1       1.362   8.741  20.277  0.00  0.00    +0.000 A 
ATOM     14  F   UNL     1       0.935   9.409  21.359  0.00  0.00    +0.000 F 
ATOM     15  C   UNL     1       1.649   7.384  20.405  0.00  0.00    +0.000 A 
BRANCH  12  16
ATOM     16  S   UNL     1       1.219  11.099  18.926  0.00  0.00    +0.000 S 
ATOM     17  O   UNL     1      -0.127  11.319  18.459  0.00  0.00    +0.000 OA
ATOM     18  O   UNL     1       1.733  11.748  20.111  0.00  0.00    +0.000 OA
BRANCH  16  19
ATOM     19  N   UNL     1       2.258  11.564  17.694  0.00  0.00    +0.000 NA
ATOM     20  H   UNL     1       2.970  12.194  18.064  0.00  0.00    +0.000 HD
ATOM     21  H   UNL     1       2.625  10.742  17.216  0.00  0.00    +0.000 HD
ENDBRANCH  16  19
ENDBRANCH  12  16
ENDBRANCH   5   9
BRANCH   6  22
ATOM     22  C   UNL     1       4.638   5.240  18.125  0.00  0.00    +0.000 A 
ATOM     23  C   UNL     1       4.513   5.323  16.733  0.00  0.00    +0.000 A 
ATOM     24  C   UNL     1       5.517   5.918  15.967  0.00  0.00    +0.000 A 
ATOM     25  C   UNL     1       6.655   6.432  16.591  0.00  0.00    +0.000 A 
ATOM     26  C   UNL     1       6.785   6.343  17.976  0.00  0.00    +0.000 A 
ATOM     27 CL   UNL     1       8.186   6.982  18.744  0.00  0.00    +0.000 Cl
ATOM     28  C   UNL     1       5.785   5.750  18.745  0.00  0.00    +0.000 A 
ENDBRANCH   6  22
TORSDOF 4
ENDMDL
MODEL 5
REMARK VINA RESULT:      -8.5      0.964      1.351
REMARK  Name = 
REMARK  6 active torsions:
REMARK  status: ('A' for Active; 'I' for Inactive)
REMARK    1  A    between atoms: C_1  and  C_2
REMARK    2  A    between atoms: C_2  and  C_3
REMARK    3  A    between atoms: C_5  and  C_6
REMARK    4  A    between atoms: C_9  and  S_10
REMARK    5  A    between atoms: S_10  and  N_11
REMARK    6  A    between atoms: C_17  and  C_18
REMARK                            x       y       z     vdW  Elec       q    Type
REMARK                         _______ _______ _______ _____ _____    ______ ____
ROOT
ATOM      1  C   UNL     1       5.500   5.964  15.057  0.00  0.00    +0.000 C 
ATOM      2  C   UNL     1       5.536   5.910  16.579  0.00  0.00    +0.000 C 
ATOM      3  C   UNL     1       6.956   5.956  17.124  0.00  0.00    +0.000 C 
ATOM      4  O   UNL     1       4.791   7.023  17.115  0.00  0.00    +0.000 OA
ATOM      5  C   UNL     1       3.738   6.467  17.833  0.00  0.00    +0.000 C 
ATOM      6  C   UNL     1       3.629   5.136  17.882  0.00  0.00    +0.000 C 
ATOM      7  C   UNL     1       4.787   4.704  17.100  0.00  0.00    +0.000 C 
ATOM      8  O   UNL     1       5.090   3.534  16.912  0.00  0.00    +0.000 OA
ENDROOT
BRANCH   5   9
ATOM      9  C   UNL     1       2.847   7.425  18.478  0.00  0.00    +0.000 A 
ATOM     10  C   UNL     1       2.442   7.227  19.805  0.00  0.00    +0.000 A 
ATOM     11  C   UNL     1       1.538   8.106  20.404  0.00  0.00    +0.000 A 
ATOM     12  C   UNL     1       1.040   9.186  19.669  0.00  0.00    +0.000 A 
ATOM     13  C   UNL     1       1.461   9.403  18.365  0.00  0.00    +0.000 A 
ATOM     14  F   UNL     1       1.012  10.446  17.652  0.00  0.00    +0.000 F 
ATOM     15  C   UNL     1       2.368   8.531  17.767  0.00  0.00    +0.000 A 
BRANCH  12  16
ATOM     16  S   UNL     1      -0.155  10.253  20.383  0.00  0.00    +0.000 S 
ATOM     17  O   UNL     1      -1.222  10.478  19.439  0.00  0.00    +0.000 OA
ATOM     18  O   UNL     1      -0.411   9.824  21.739  0.00  0.00    +0.000 OA
BRANCH  16  19
ATOM     19  N   UNL     1       0.686  11.696  20.538  0.00  0.00    +0.000 NA
ATOM     20  H   UNL     1       1.672  11.544  20.324  0.00  0.00    +0.000 HD
ATOM     21  H   UNL     1       0.239  12.425  19.983  0.00  0.00    +0.000 HD
ENDBRANCH  16  19
ENDBRANCH  12  16
ENDBRANCH   5   9
BRANCH   6  22
ATOM     22  C   UNL     1       2.640   4.303  18.539  0.00  0.00    +0.000 A 
ATOM     23  C   UNL     1       1.484   3.906  17.855  0.00  0.00    +0.000 A 
ATOM     24  C   UNL     1       0.558   3.057  18.465  0.00  0.00    +0.000 A 
ATOM     25  C   UNL     1       0.782   2.602  19.765  0.00  0.00    +0.000 A 
ATOM     26  C   UNL     1       1.929   3.002  20.450  0.00  0.00    +0.000 A 
ATOM     27 CL   UNL     1       2.207   2.435  22.050  0.00  0.00    +0.000 Cl
ATOM     28  C   UNL     1       2.857   3.849  19.846  0.00  0.00    +0.000 A 
ENDBRANCH   6  22
TORSDOF 4
ENDMDL
MODEL 6
REMARK VINA RESULT:      -8.3      2.505      4.526
REMARK  Name = 
REMARK  6 active torsions:
REMARK  status: ('A' for Active; 'I' for Inactive)
REMARK    1  A    between atoms: C_1  and  C_2
REMARK    2  A    between atoms: C_2  and  C_3
REMARK    3  A    between atoms: C_5  and  C_6
REMARK    4  A    between atoms: C_9  and  S_10
REMARK    5  A    between atoms: S_10  and  N_11
REMARK    6  A    between atoms: C_17  and  C_18
REMARK                            x       y       z     vdW  Elec       q    Type
REMARK                         _______ _______ _______ _____ _____    ______ ____
ROOT
ATOM      1  C   UNL     1       2.200   2.548  21.600  0.00  0.00    +0.000 C 
ATOM      2  C   UNL     1       2.043   2.964  20.144  0.00  0.00    +0.000 C 
ATOM      3  C   UNL     1       1.103   2.043  19.379  0.00  0.00    +0.000 C 
ATOM      4  O   UNL     1       1.532   4.312  20.084  0.00  0.00    +0.000 OA
ATOM      5  C   UNL     1       2.514   5.064  19.448  0.00  0.00    +0.000 C 
ATOM      6  C   UNL     1       3.634   4.451  19.054  0.00  0.00    +0.000 C 
ATOM      7  C   UNL     1       3.387   3.068  19.458  0.00  0.00    +0.000 C 
ATOM      8  O   UNL     1       4.163   2.145  19.255  0.00  0.00    +0.000 OA
ENDROOT
BRANCH   5   9
ATOM      9  C   UNL     1       2.200   6.478  19.269  0.00  0.00    +0.000 A 
ATOM     10  C   UNL     1       2.451   7.105  18.042  0.00  0.00    +0.000 A 
ATOM     11  C   UNL     1       2.213   8.471  17.888  0.00  0.00    +0.000 A 
ATOM     12  C   UNL     1       1.724   9.210  18.969  0.00  0.00    +0.000 A 
ATOM     13  C   UNL     1       1.446   8.588  20.178  0.00  0.00    +0.000 A 
ATOM     14  F   UNL     1       0.955   9.275  21.219  0.00  0.00    +0.000 F 
ATOM     15  C   UNL     1       1.676   7.223  20.332  0.00  0.00    +0.000 A 
BRANCH  12  16
ATOM     16  S   UNL     1       1.493  10.942  18.813  0.00  0.00    +0.000 S 
ATOM     17  O   UNL     1       1.328  11.523  20.122  0.00  0.00    +0.000 OA
ATOM     18  O   UNL     1       2.455  11.455  17.864  0.00  0.00    +0.000 OA
BRANCH  16  19
ATOM     19  N   UNL     1       0.014  11.048  18.030  0.00  0.00    +0.000 NA
ATOM     20  H   UNL     1      -0.720  10.673  18.631  0.00  0.00    +0.000 HD
ATOM     21  H   UNL     1      -0.146  12.002  17.709  0.00  0.00    +0.000 HD
ENDBRANCH  16  19
ENDBRANCH  12  16
ENDBRANCH   5   9
BRANCH   6  22
ATOM     22  C   UNL     1       4.807   4.986  18.388  0.00  0.00    +0.000 A 
ATOM     23  C   UNL     1       5.839   5.568  19.134  0.00  0.00    +0.000 A 
ATOM     24  C   UNL     1       6.994   6.032  18.500  0.00  0.00    +0.000 A 
ATOM     25  C   UNL     1       7.122   5.918  17.115  0.00  0.00    +0.000 A 
ATOM     26  C   UNL     1       6.092   5.345  16.370  0.00  0.00    +0.000 A 
ATOM     27 CL   UNL     1       6.253   5.200  14.664  0.00  0.00    +0.000 Cl
ATOM     28  C   UNL     1       4.937   4.880  16.997  0.00  0.00    +0.000 A 
ENDBRANCH   6  22
TORSDOF 4
ENDMDL
MODEL 7
REMARK VINA RESULT:      -7.8      1.389      1.703
REMARK  Name = 
REMARK  6 active torsions:
REMARK  status: ('A' for Active; 'I' for Inactive)
REMARK    1  A    between atoms: C_1  and  C_2
REMARK    2  A    between atoms: C_2  and  C_3
REMARK    3  A    between atoms: C_5  and  C_6
REMARK    4  A    between atoms: C_9  and  S_10
REMARK    5  A    between atoms: S_10  and  N_11
REMARK    6  A    between atoms: C_17  and  C_18
REMARK                            x       y       z     vdW  Elec       q    Type
REMARK                         _______ _______ _______ _____ _____    ______ ____
ROOT
ATOM      1  C   UNL     1       6.381   5.641  16.027  0.00  0.00    +0.000 C 
ATOM      2  C   UNL     1       6.155   5.985  17.493  0.00  0.00    +0.000 C 
ATOM      3  C   UNL     1       7.441   6.403  18.192  0.00  0.00    +0.000 C 
ATOM      4  O   UNL     1       5.197   7.059  17.591  0.00  0.00    +0.000 OA
ATOM      5  C   UNL     1       4.111   6.540  18.285  0.00  0.00    +0.000 C 
ATOM      6  C   UNL     1       4.158   5.266  18.688  0.00  0.00    +0.000 C 
ATOM      7  C   UNL     1       5.479   4.845  18.223  0.00  0.00    +0.000 C 
ATOM      8  O   UNL     1       5.951   3.734  18.412  0.00  0.00    +0.000 OA
ENDROOT
BRANCH   5   9
ATOM      9  C   UNL     1       3.009   7.470  18.510  0.00  0.00    +0.000 A 
ATOM     10  C   UNL     1       2.659   8.398  17.521  0.00  0.00    +0.000 A 
ATOM     11  C   UNL     1       1.649   9.332  17.758  0.00  0.00    +0.000 A 
ATOM     12  C   UNL     1       0.991   9.335  18.991  0.00  0.00    +0.000 A 
ATOM     13  C   UNL     1       1.314   8.399  19.963  0.00  0.00    +0.000 A 
ATOM     14  F   UNL     1       0.679   8.370  21.143  0.00  0.00    +0.000 F 
ATOM     15  C   UNL     1       2.317   7.461  19.726  0.00  0.00    +0.000 A 
BRANCH  12  16
ATOM     16  S   UNL     1      -0.226  10.551  19.331  0.00  0.00    +0.000 S 
ATOM     17  O   UNL     1      -1.529  10.032  18.999  0.00  0.00    +0.000 OA
ATOM     18  O   UNL     1       0.056  11.143  20.619  0.00  0.00    +0.000 OA
BRANCH  16  19
ATOM     19  N   UNL     1       0.132  11.752  18.217  0.00  0.00    +0.000 NA
ATOM     20  H   UNL     1       0.442  12.593  18.705  0.00  0.00    +0.000 HD
ATOM     21  H   UNL     1       0.786  11.401  17.519  0.00  0.00    +0.000 HD
ENDBRANCH  16  19
ENDBRANCH  12  16
ENDBRANCH   5   9
BRANCH   6  22
ATOM     22  C   UNL     1       3.178   4.477  19.410  0.00  0.00    +0.000 A 
ATOM     23  C   UNL     1       3.067   4.590  20.802  0.00  0.00    +0.000 A 
ATOM     24  C   UNL     1       2.086   3.875  21.493  0.00  0.00    +0.000 A 
ATOM     25  C   UNL     1       1.212   3.041  20.795  0.00  0.00    +0.000 A 
ATOM     26  C   UNL     1       1.326   2.922  19.410  0.00  0.00    +0.000 A 
ATOM     27 CL   UNL     1       0.244   1.897  18.550  0.00  0.00    +0.000 Cl
ATOM     28  C   UNL     1       2.303   3.633  18.716  0.00  0.00    +0.000 A 
ENDBRANCH   6  22
TORSDOF 4
ENDMDL
MODEL 8
REMARK VINA RESULT:      -7.6      0.976      1.350
REMARK  Name = 
REMARK  6 active torsions:
REMARK  status: ('A' for Active; 'I' for Inactive)
REMARK    1  A    between atoms: C_1  and  C_2
REMARK    2  A    between atoms: C_2  and  C_3
REMARK    3  A    between atoms: C_5  and  C_6
REMARK    4  A    between atoms: C_9  and  S_10
REMARK    5  A    between atoms: S_10  and  N_11
REMARK    6  A    between atoms: C_17  and  C_18
REMARK                            x       y       z     vdW  Elec       q    Type
REMARK                         _______ _______ _______ _____ _____    ______ ____
ROOT
ATOM      1  C   UNL     1       5.545   5.733  15.172  0.00  0.00    +0.000 C 
ATOM      2  C   UNL     1       5.639   6.008  16.667  0.00  0.00    +0.000 C 
ATOM      3  C   UNL     1       7.061   6.327  17.106  0.00  0.00    +0.000 C 
ATOM      4  O   UNL     1       4.784   7.120  17.004  0.00  0.00    +0.000 OA
ATOM      5  C   UNL     1       3.831   6.616  17.883  0.00  0.00    +0.000 C 
ATOM      6  C   UNL     1       3.887   5.322  18.213  0.00  0.00    +0.000 C 
ATOM      7  C   UNL     1       5.060   4.865  17.470  0.00  0.00    +0.000 C 
ATOM      8  O   UNL     1       5.496   3.724  17.512  0.00  0.00    +0.000 OA
ENDROOT
BRANCH   5   9
ATOM      9  C   UNL     1       2.853   7.584  18.367  0.00  0.00    +0.000 A 
ATOM     10  C   UNL     1       2.436   8.637  17.543  0.00  0.00    +0.000 A 
ATOM     11  C   UNL     1       1.551   9.602  18.026  0.00  0.00    +0.000 A 
ATOM     12  C   UNL     1       1.083   9.509  19.339  0.00  0.00    +0.000 A 
ATOM     13  C   UNL     1       1.470   8.452  20.151  0.00  0.00    +0.000 A 
ATOM     14  F   UNL     1       1.015   8.333  21.406  0.00  0.00    +0.000 F 
ATOM     15  C   UNL     1       2.349   7.484  19.669  0.00  0.00    +0.000 A 
BRANCH  12  16
ATOM     16  S   UNL     1       0.031  10.755  19.984  0.00  0.00    +0.000 S 
ATOM     17  O   UNL     1      -0.089  11.825  19.025  0.00  0.00    +0.000 OA
ATOM     18  O   UNL     1      -1.127  10.125  20.576  0.00  0.00    +0.000 OA
BRANCH  16  19
ATOM     19  N   UNL     1       0.913  11.346  21.283  0.00  0.00    +0.000 NA
ATOM     20  H   UNL     1       1.847  10.936  21.279  0.00  0.00    +0.000 HD
ATOM     21  H   UNL     1       0.896  12.365  21.285  0.00  0.00    +0.000 HD
ENDBRANCH  16  19
ENDBRANCH  12  16
ENDBRANCH   5   9
BRANCH   6  22
ATOM     22  C   UNL     1       3.029   4.543  19.086  0.00  0.00    +0.000 A 
ATOM     23  C   UNL     1       3.085   4.721  20.474  0.00  0.00    +0.000 A 
ATOM     24  C   UNL     1       2.220   4.014  21.312  0.00  0.00    +0.000 A 
ATOM     25  C   UNL     1       1.295   3.123  20.767  0.00  0.00    +0.000 A 
ATOM     26  C   UNL     1       1.244   2.939  19.385  0.00  0.00    +0.000 A 
ATOM     27 CL   UNL     1       0.100   1.844  18.713  0.00  0.00    +0.000 Cl
ATOM     28  C   UNL     1       2.104   3.642  18.544  0.00  0.00    +0.000 A 
ENDBRANCH   6  22
TORSDOF 4
ENDMDL
MODEL 9
REMARK VINA RESULT:      -7.2      1.378      1.916
REMARK  Name = 
REMARK  6 active torsions:
REMARK  status: ('A' for Active; 'I' for Inactive)
REMARK    1  A    between atoms: C_1  and  C_2
REMARK    2  A    between atoms: C_2  and  C_3
REMARK    3  A    between atoms: C_5  and  C_6
REMARK    4  A    between atoms: C_9  and  S_10
REMARK    5  A    between atoms: S_10  and  N_11
REMARK    6  A    between atoms: C_17  and  C_18
REMARK                            x       y       z     vdW  Elec       q    Type
REMARK                         _______ _______ _______ _____ _____    ______ ____
ROOT
ATOM      1  C   UNL     1       5.445   5.908  15.216  0.00  0.00    +0.000 C 
ATOM      2  C   UNL     1       5.566   6.111  16.720  0.00  0.00    +0.000 C 
ATOM      3  C   UNL     1       6.995   6.410  17.148  0.00  0.00    +0.000 C 
ATOM      4  O   UNL     1       4.716   7.206  17.124  0.00  0.00    +0.000 OA
ATOM      5  C   UNL     1       3.780   6.659  17.995  0.00  0.00    +0.000 C 
ATOM      6  C   UNL     1       3.841   5.351  18.262  0.00  0.00    +0.000 C 
ATOM      7  C   UNL     1       5.001   4.931  17.478  0.00  0.00    +0.000 C 
ATOM      8  O   UNL     1       5.438   3.789  17.457  0.00  0.00    +0.000 OA
ENDROOT
BRANCH   5   9
ATOM      9  C   UNL     1       2.810   7.603  18.542  0.00  0.00    +0.000 A 
ATOM     10  C   UNL     1       2.375   7.476  19.868  0.00  0.00    +0.000 A 
ATOM     11  C   UNL     1       1.400   8.336  20.374  0.00  0.00    +0.000 A 
ATOM     12  C   UNL     1       0.859   9.325  19.547  0.00  0.00    +0.000 A 
ATOM     13  C   UNL     1       1.307   9.473  18.242  0.00  0.00    +0.000 A 
ATOM     14  F   UNL     1       0.818  10.430  17.441  0.00  0.00    +0.000 F 
ATOM     15  C   UNL     1       2.286   8.620  17.737  0.00  0.00    +0.000 A 
BRANCH  12  16
ATOM     16  S   UNL     1      -0.422  10.362  20.146  0.00  0.00    +0.000 S 
ATOM     17  O   UNL     1      -1.498  10.398  19.187  0.00  0.00    +0.000 OA
ATOM     18  O   UNL     1      -0.650  10.062  21.541  0.00  0.00    +0.000 OA
BRANCH  16  19
ATOM     19  N   UNL     1       0.299  11.877  20.142  0.00  0.00    +0.000 NA
ATOM     20  H   UNL     1       0.915  11.962  19.333  0.00  0.00    +0.000 HD
ATOM     21  H   UNL     1      -0.412  12.605  20.214  0.00  0.00    +0.000 HD
ENDBRANCH  16  19
ENDBRANCH  12  16
ENDBRANCH   5   9
BRANCH   6  22
ATOM     22  C   UNL     1       2.998   4.531  19.112  0.00  0.00    +0.000 A 
ATOM     23  C   UNL     1       3.058   4.663  20.505  0.00  0.00    +0.000 A 
ATOM     24  C   UNL     1       2.208   3.916  21.323  0.00  0.00    +0.000 A 
ATOM     25  C   UNL     1       1.293   3.030  20.751  0.00  0.00    +0.000 A 
ATOM     26  C   UNL     1       1.238   2.892  19.365  0.00  0.00    +0.000 A 
ATOM     27 CL   UNL     1       0.106   1.804  18.661  0.00  0.00    +0.000 Cl
ATOM     28  C   UNL     1       2.084   3.635  18.544  0.00  0.00    +0.000 A 
ENDBRANCH   6  22
TORSDOF 4
ENDMDL
