MODEL 1
REMARK VINA RESULT:      -8.9      0.000      0.000
REMARK  Name = 
REMARK  8 active torsions:
REMARK  status: ('A' for Active; 'I' for Inactive)
REMARK    1  A    between atoms: C_1  and  O_2
REMARK    2  A    between atoms: O_2  and  C_3
REMARK    3  A    between atoms: C_6  and  C_7
REMARK    4  A    between atoms: C_13  and  C_14
REMARK    5  A    between atoms: C_14  and  N_15
REMARK    6  A    between atoms: C_16  and  C_18
REMARK    7  A    between atoms: N_20  and  C_21
REMARK    8  A    between atoms: C_21  and  C_22
REMARK                            x       y       z     vdW  Elec       q    Type
REMARK                         _______ _______ _______ _____ _____    ______ ____
ROOT
ATOM      1  C   UNL     1       4.378   3.252  19.803  0.00  0.00    +0.000 C 
ENDROOT
BRANCH   1   8
ATOM      2  C   UNL     1       2.584   5.516  18.436  0.00  0.00    +0.000 C 
ATOM      3  O   UNL     1       3.212   5.349  17.396  0.00  0.00    +0.000 OA
ATOM      4  N   UNL     1       2.269   4.468  19.283  0.00  0.00    +0.000 N 
ATOM      5  C   UNL     1       1.340   4.417  20.381  0.00  0.00    +0.000 C 
ATOM      6  C   UNL     1       1.071   2.943  20.543  0.00  0.00    +0.000 C 
ATOM      7  O   UNL     1       2.146   2.250  19.895  0.00  0.00    +0.000 OA
ATOM      8  C   UNL     1       2.953   3.202  19.181  0.00  0.00    +0.000 C 
BRANCH   2  12
ATOM      9  C   UNL     1       1.381   9.503  19.496  0.00  0.00    +0.000 A 
ATOM     10  C   UNL     1       1.496   8.520  20.485  0.00  0.00    +0.000 A 
ATOM     11  C   UNL     1       1.920   7.222  20.159  0.00  0.00    +0.000 A 
ATOM     12  C   UNL     1       2.206   6.900  18.828  0.00  0.00    +0.000 A 
ATOM     13  C   UNL     1       2.006   7.869  17.841  0.00  0.00    +0.000 A 
ATOM     14  C   UNL     1       1.637   9.169  18.172  0.00  0.00    +0.000 A 
BRANCH   9  16
ATOM     15  C   UNL     1      -0.456  10.924  19.946  0.00  0.00    +0.000 C 
ATOM     16  O   UNL     1       0.957  10.736  19.913  0.00  0.00    +0.000 OA
ENDBRANCH   9  16
ENDBRANCH   2  12
ENDBRANCH   1   8
BRANCH   1  17
ATOM     17  N   UNL     1       5.456   3.455  18.832  0.00  0.00    +0.000 N 
ATOM     18  C   UNL     1       6.328   4.519  18.889  0.00  0.00    +0.000 C 
ATOM     19  O   UNL     1       6.408   5.347  19.781  0.00  0.00    +0.000 OA
ATOM     20  H   UNL     1       5.490   2.880  17.996  0.00  0.00    +0.000 HD
BRANCH  18  21
ATOM     21  C   UNL     1       7.266   4.630  17.660  0.00  0.00    +0.000 C 
ATOM     22  O   UNL     1       8.381   4.125  17.692  0.00  0.00    +0.000 OA
ATOM     23  N   UNL     1       6.698   5.298  16.602  0.00  0.00    +0.000 N 
ATOM     24  H   UNL     1       5.745   5.635  16.736  0.00  0.00    +0.000 HD
BRANCH  23  25
ATOM     25  C   UNL     1       7.378   5.560  15.360  0.00  0.00    +0.000 C 
BRANCH  25  26
ATOM     26  C   UNL     1       6.782   4.754  14.235  0.00  0.00    +0.000 A 
ATOM     27  C   UNL     1       7.491   4.593  13.033  0.00  0.00    +0.000 A 
ATOM     28  C   UNL     1       6.938   3.864  11.978  0.00  0.00    +0.000 A 
ATOM     29  C   UNL     1       5.676   3.303  12.119  0.00  0.00    +0.000 A 
ATOM     30  F   UNL     1       5.149   2.600  11.108  0.00  0.00    +0.000 F 
ATOM     31  C   UNL     1       4.950   3.462  13.294  0.00  0.00    +0.000 A 
ATOM     32  C   UNL     1       5.500   4.191  14.351  0.00  0.00    +0.000 A 
ENDBRANCH  25  26
ENDBRANCH  23  25
ENDBRANCH  18  21
ENDBRANCH   1  17
TORSDOF 7
ENDMDL
MODEL 2
REMARK VINA RESULT:      -8.8      0.110      1.251
REMARK  Name = 
REMARK  8 active torsions:
REMARK  status: ('A' for Active; 'I' for Inactive)
REMARK    1  A    between atoms: C_1  and  O_2
REMARK    2  A    between atoms: O_2  and  C_3
REMARK    3  A    between atoms: C_6  and  C_7
REMARK    4  A    between atoms: C_13  and  C_14
REMARK    5  A    between atoms: C_14  and  N_15
REMARK    6  A    between atoms: C_16  and  C_18
REMARK    7  A    between atoms: N_20  and  C_21
REMARK    8  A    between atoms: C_21  and  C_22
REMARK                            x       y       z     vdW  Elec       q    Type
REMARK                         _______ _______ _______ _____ _____    ______ ____
ROOT
ATOM      1  C   UNL     1       4.369   3.258  19.805  0.00  0.00    +0.000 C 
ENDROOT
BRANCH   1   8
ATOM      2  C   UNL     1       2.536   5.451  18.373  0.00  0.00    +0.000 C 
ATOM      3  O   UNL     1       3.177   5.275  17.342  0.00  0.00    +0.000 OA
ATOM      4  N   UNL     1       2.237   4.415  19.241  0.00  0.00    +0.000 N 
ATOM      5  C   UNL     1       1.301   4.368  20.332  0.00  0.00    +0.000 C 
ATOM      6  C   UNL     1       1.062   2.892  20.525  0.00  0.00    +0.000 C 
ATOM      7  O   UNL     1       2.158   2.209  19.902  0.00  0.00    +0.000 OA
ATOM      8  C   UNL     1       2.950   3.163  19.173  0.00  0.00    +0.000 C 
BRANCH   2  12
ATOM      9  C   UNL     1       1.452   9.460  19.479  0.00  0.00    +0.000 A 
ATOM     10  C   UNL     1       1.734   9.153  18.143  0.00  0.00    +0.000 A 
ATOM     11  C   UNL     1       2.056   7.841  17.761  0.00  0.00    +0.000 A 
ATOM     12  C   UNL     1       2.123   6.835  18.730  0.00  0.00    +0.000 A 
ATOM     13  C   UNL     1       1.922   7.173  20.070  0.00  0.00    +0.000 A 
ATOM     14  C   UNL     1       1.551   8.461  20.441  0.00  0.00    +0.000 A 
BRANCH   9  16
ATOM     15  C   UNL     1      -0.204  11.029  20.105  0.00  0.00    +0.000 C 
ATOM     16  O   UNL     1       1.152  10.767  19.750  0.00  0.00    +0.000 OA
ENDBRANCH   9  16
ENDBRANCH   2  12
ENDBRANCH   1   8
BRANCH   1  17
ATOM     17  N   UNL     1       5.449   3.470  18.839  0.00  0.00    +0.000 N 
ATOM     18  C   UNL     1       6.298   4.553  18.885  0.00  0.00    +0.000 C 
ATOM     19  O   UNL     1       6.353   5.396  19.765  0.00  0.00    +0.000 OA
ATOM     20  H   UNL     1       5.502   2.881  18.013  0.00  0.00    +0.000 HD
BRANCH  18  21
ATOM     21  C   UNL     1       7.243   4.664  17.661  0.00  0.00    +0.000 C 
ATOM     22  O   UNL     1       8.339   4.119  17.682  0.00  0.00    +0.000 OA
ATOM     23  N   UNL     1       6.702   5.381  16.622  0.00  0.00    +0.000 N 
ATOM     24  H   UNL     1       5.762   5.748  16.763  0.00  0.00    +0.000 HD
BRANCH  23  25
ATOM     25  C   UNL     1       7.395   5.653  15.389  0.00  0.00    +0.000 C 
BRANCH  25  26
ATOM     26  C   UNL     1       6.802   4.866  14.249  0.00  0.00    +0.000 A 
ATOM     27  C   UNL     1       5.521   4.302  14.374  0.00  0.00    +0.000 A 
ATOM     28  C   UNL     1       4.972   3.555  13.330  0.00  0.00    +0.000 A 
ATOM     29  C   UNL     1       5.704   3.363  12.166  0.00  0.00    +0.000 A 
ATOM     30  F   UNL     1       5.173   2.650  11.163  0.00  0.00    +0.000 F 
ATOM     31  C   UNL     1       6.978   3.899  12.025  0.00  0.00    +0.000 A 
ATOM     32  C   UNL     1       7.531   4.646  13.068  0.00  0.00    +0.000 A 
ENDBRANCH  25  26
ENDBRANCH  23  25
ENDBRANCH  18  21
ENDBRANCH   1  17
TORSDOF 7
ENDMDL
MODEL 3
REMARK VINA RESULT:      -8.4      3.516      8.116
REMARK  Name = 
REMARK  8 active torsions:
REMARK  status: ('A' for Active; 'I' for Inactive)
REMARK    1  A    between atoms: C_1  and  O_2
REMARK    2  A    between atoms: O_2  and  C_3
REMARK    3  A    between atoms: C_6  and  C_7
REMARK    4  A    between atoms: C_13  and  C_14
REMARK    5  A    between atoms: C_14  and  N_15
REMARK    6  A    between atoms: C_16  and  C_18
REMARK    7  A    between atoms: N_20  and  C_21
REMARK    8  A    between atoms: C_21  and  C_22
REMARK                            x       y       z     vdW  Elec       q    Type
REMARK                         _______ _______ _______ _____ _____    ______ ____
ROOT
ATOM      1  C   UNL     1       2.574   5.196  20.766  0.00  0.00    +0.000 C 
ENDROOT
BRANCH   1   8
ATOM      2  C   UNL     1       4.624   3.815  18.739  0.00  0.00    +0.000 C 
ATOM      3  O   UNL     1       5.240   3.374  19.703  0.00  0.00    +0.000 OA
ATOM      4  N   UNL     1       3.245   3.924  18.733  0.00  0.00    +0.000 N 
ATOM      5  C   UNL     1       2.343   4.159  17.636  0.00  0.00    +0.000 C 
ATOM      6  C   UNL     1       1.020   3.658  18.157  0.00  0.00    +0.000 C 
ATOM      7  O   UNL     1       1.127   3.612  19.586  0.00  0.00    +0.000 OA
ATOM      8  C   UNL     1       2.492   3.866  19.962  0.00  0.00    +0.000 C 
BRANCH   2  12
ATOM      9  C   UNL     1       6.957   5.203  15.407  0.00  0.00    +0.000 A 
ATOM     10  C   UNL     1       6.096   4.111  15.253  0.00  0.00    +0.000 A 
ATOM     11  C   UNL     1       5.302   3.667  16.323  0.00  0.00    +0.000 A 
ATOM     12  C   UNL     1       5.393   4.306  17.564  0.00  0.00    +0.000 A 
ATOM     13  C   UNL     1       6.317   5.341  17.725  0.00  0.00    +0.000 A 
ATOM     14  C   UNL     1       7.064   5.814  16.651  0.00  0.00    +0.000 A 
BRANCH   9  16
ATOM     15  C   UNL     1       7.376   4.858  13.104  0.00  0.00    +0.000 C 
ATOM     16  O   UNL     1       7.690   5.557  14.307  0.00  0.00    +0.000 OA
ENDBRANCH   9  16
ENDBRANCH   2  12
ENDBRANCH   1   8
BRANCH   1  17
ATOM     17  N   UNL     1       2.471   6.405  19.946  0.00  0.00    +0.000 N 
ATOM     18  C   UNL     1       1.765   7.521  20.336  0.00  0.00    +0.000 C 
ATOM     19  O   UNL     1       1.244   7.708  21.423  0.00  0.00    +0.000 OA
ATOM     20  H   UNL     1       2.808   6.389  18.988  0.00  0.00    +0.000 HD
BRANCH  18  21
ATOM     21  C   UNL     1       1.644   8.606  19.236  0.00  0.00    +0.000 C 
ATOM     22  O   UNL     1       2.298   8.510  18.206  0.00  0.00    +0.000 OA
ATOM     23  N   UNL     1       0.745   9.597  19.548  0.00  0.00    +0.000 N 
ATOM     24  H   UNL     1       0.265   9.511  20.443  0.00  0.00    +0.000 HD
BRANCH  23  25
ATOM     25  C   UNL     1       0.479  10.733  18.705  0.00  0.00    +0.000 C 
BRANCH  25  26
ATOM     26  C   UNL     1      -0.969  10.773  18.289  0.00  0.00    +0.000 A 
ATOM     27  C   UNL     1      -1.854  11.671  18.910  0.00  0.00    +0.000 A 
ATOM     28  C   UNL     1      -3.201  11.702  18.545  0.00  0.00    +0.000 A 
ATOM     29  C   UNL     1      -3.667  10.832  17.567  0.00  0.00    +0.000 A 
ATOM     30  F   UNL     1      -4.960  10.867  17.214  0.00  0.00    +0.000 F 
ATOM     31  C   UNL     1      -2.813   9.926  16.949  0.00  0.00    +0.000 A 
ATOM     32  C   UNL     1      -1.465   9.893  17.313  0.00  0.00    +0.000 A 
ENDBRANCH  25  26
ENDBRANCH  23  25
ENDBRANCH  18  21
ENDBRANCH   1  17
TORSDOF 7
ENDMDL
MODEL 4
REMARK VINA RESULT:      -8.3      3.521      8.118
REMARK  Name = 
REMARK  8 active torsions:
REMARK  status: ('A' for Active; 'I' for Inactive)
REMARK    1  A    between atoms: C_1  and  O_2
REMARK    2  A    between atoms: O_2  and  C_3
REMARK    3  A    between atoms: C_6  and  C_7
REMARK    4  A    between atoms: C_13  and  C_14
REMARK    5  A    between atoms: C_14  and  N_15
REMARK    6  A    between atoms: C_16  and  C_18
REMARK    7  A    between atoms: N_20  and  C_21
REMARK    8  A    between atoms: C_21  and  C_22
REMARK                            x       y       z     vdW  Elec       q    Type
REMARK                         _______ _______ _______ _____ _____    ______ ____
ROOT
ATOM      1  C   UNL     1       2.549   5.217  20.735  0.00  0.00    +0.000 C 
ENDROOT
BRANCH   1   8
ATOM      2  C   UNL     1       4.606   3.733  18.790  0.00  0.00    +0.000 C 
ATOM      3  O   UNL     1       5.166   3.271  19.778  0.00  0.00    +0.000 OA
ATOM      4  N   UNL     1       3.234   3.905  18.733  0.00  0.00    +0.000 N 
ATOM      5  C   UNL     1       2.384   4.173  17.603  0.00  0.00    +0.000 C 
ATOM      6  C   UNL     1       1.022   3.736  18.078  0.00  0.00    +0.000 C 
ATOM      7  O   UNL     1       1.075   3.693  19.510  0.00  0.00    +0.000 OA
ATOM      8  C   UNL     1       2.436   3.888  19.935  0.00  0.00    +0.000 C 
BRANCH   2  12
ATOM      9  C   UNL     1       6.902   5.081  15.416  0.00  0.00    +0.000 A 
ATOM     10  C   UNL     1       7.142   5.616  16.686  0.00  0.00    +0.000 A 
ATOM     11  C   UNL     1       6.424   5.162  17.803  0.00  0.00    +0.000 A 
ATOM     12  C   UNL     1       5.438   4.183  17.641  0.00  0.00    +0.000 A 
ATOM     13  C   UNL     1       5.152   3.718  16.356  0.00  0.00    +0.000 A 
ATOM     14  C   UNL     1       5.900   4.130  15.258  0.00  0.00    +0.000 A 
BRANCH   9  16
ATOM     15  C   UNL     1       7.530   4.916  13.141  0.00  0.00    +0.000 C 
ATOM     16  O   UNL     1       7.651   5.591  14.391  0.00  0.00    +0.000 OA
ENDBRANCH   9  16
ENDBRANCH   2  12
ENDBRANCH   1   8
BRANCH   1  17
ATOM     17  N   UNL     1       2.417   6.427  19.919  0.00  0.00    +0.000 N 
ATOM     18  C   UNL     1       1.744   7.551  20.344  0.00  0.00    +0.000 C 
ATOM     19  O   UNL     1       1.281   7.744  21.456  0.00  0.00    +0.000 OA
ATOM     20  H   UNL     1       2.705   6.406  18.946  0.00  0.00    +0.000 HD
BRANCH  18  21
ATOM     21  C   UNL     1       1.579   8.636  19.250  0.00  0.00    +0.000 C 
ATOM     22  O   UNL     1       2.193   8.542  18.195  0.00  0.00    +0.000 OA
ATOM     23  N   UNL     1       0.689   9.624  19.596  0.00  0.00    +0.000 N 
ATOM     24  H   UNL     1       0.244   9.537  20.509  0.00  0.00    +0.000 HD
BRANCH  23  25
ATOM     25  C   UNL     1       0.389  10.760  18.764  0.00  0.00    +0.000 C 
BRANCH  25  26
ATOM     26  C   UNL     1      -1.063  10.769  18.362  0.00  0.00    +0.000 A 
ATOM     27  C   UNL     1      -1.517   9.910  17.348  0.00  0.00    +0.000 A 
ATOM     28  C   UNL     1      -2.857   9.924  16.956  0.00  0.00    +0.000 A 
ATOM     29  C   UNL     1      -3.742  10.802  17.570  0.00  0.00    +0.000 A 
ATOM     30  F   UNL     1      -5.029  10.810  17.195  0.00  0.00    +0.000 F 
ATOM     31  C   UNL     1      -3.313  11.671  18.565  0.00  0.00    +0.000 A 
ATOM     32  C   UNL     1      -1.973  11.659  18.959  0.00  0.00    +0.000 A 
ENDBRANCH  25  26
ENDBRANCH  23  25
ENDBRANCH  18  21
ENDBRANCH   1  17
TORSDOF 7
ENDMDL
MODEL 5
REMARK VINA RESULT:      -8.1      4.643      5.733
REMARK  Name = 
REMARK  8 active torsions:
REMARK  status: ('A' for Active; 'I' for Inactive)
REMARK    1  A    between atoms: C_1  and  O_2
REMARK    2  A    between atoms: O_2  and  C_3
REMARK    3  A    between atoms: C_6  and  C_7
REMARK    4  A    between atoms: C_13  and  C_14
REMARK    5  A    between atoms: C_14  and  N_15
REMARK    6  A    between atoms: C_16  and  C_18
REMARK    7  A    between atoms: N_20  and  C_21
REMARK    8  A    between atoms: C_21  and  C_22
REMARK                            x       y       z     vdW  Elec       q    Type
REMARK                         _______ _______ _______ _____ _____    ______ ____
ROOT
ATOM      1  C   UNL     1       5.470   4.462  19.342  0.00  0.00    +0.000 C 
ENDROOT
BRANCH   1   8
ATOM      2  C   UNL     1       2.955   6.160  18.338  0.00  0.00    +0.000 C 
ATOM      3  O   UNL     1       3.431   6.147  17.208  0.00  0.00    +0.000 OA
ATOM      4  N   UNL     1       3.062   5.078  19.195  0.00  0.00    +0.000 N 
ATOM      5  C   UNL     1       2.366   4.803  20.423  0.00  0.00    +0.000 C 
ATOM      6  C   UNL     1       2.517   3.312  20.585  0.00  0.00    +0.000 C 
ATOM      7  O   UNL     1       3.618   2.914  19.757  0.00  0.00    +0.000 OA
ATOM      8  C   UNL     1       4.026   4.033  18.951  0.00  0.00    +0.000 C 
BRANCH   2  12
ATOM      9  C   UNL     1       0.952   9.724  19.662  0.00  0.00    +0.000 A 
ATOM     10  C   UNL     1       1.246   8.705  20.574  0.00  0.00    +0.000 A 
ATOM     11  C   UNL     1       1.930   7.550  20.164  0.00  0.00    +0.000 A 
ATOM     12  C   UNL     1       2.298   7.403  18.822  0.00  0.00    +0.000 A 
ATOM     13  C   UNL     1       1.924   8.390  17.907  0.00  0.00    +0.000 A 
ATOM     14  C   UNL     1       1.293   9.557  18.324  0.00  0.00    +0.000 A 
BRANCH   9  16
ATOM     15  C   UNL     1       0.755  12.080  19.727  0.00  0.00    +0.000 C 
ATOM     16  O   UNL     1       0.279  10.807  20.158  0.00  0.00    +0.000 OA
ENDBRANCH   9  16
ENDBRANCH   2  12
ENDBRANCH   1   8
BRANCH   1  17
ATOM     17  N   UNL     1       6.090   5.413  18.418  0.00  0.00    +0.000 N 
ATOM     18  C   UNL     1       7.292   6.036  18.673  0.00  0.00    +0.000 C 
ATOM     19  O   UNL     1       8.044   5.810  19.606  0.00  0.00    +0.000 OA
ATOM     20  H   UNL     1       5.562   5.748  17.617  0.00  0.00    +0.000 HD
BRANCH  18  21
ATOM     21  C   UNL     1       7.662   7.134  17.643  0.00  0.00    +0.000 C 
ATOM     22  O   UNL     1       7.627   6.887  16.445  0.00  0.00    +0.000 OA
ATOM     23  N   UNL     1       7.983   8.337  18.225  0.00  0.00    +0.000 N 
ATOM     24  H   UNL     1       7.939   8.376  19.242  0.00  0.00    +0.000 HD
BRANCH  23  25
ATOM     25  C   UNL     1       8.394   9.501  17.484  0.00  0.00    +0.000 C 
BRANCH  25  26
ATOM     26  C   UNL     1       9.023  10.526  18.392  0.00  0.00    +0.000 A 
ATOM     27  C   UNL     1       9.309  10.201  19.728  0.00  0.00    +0.000 A 
ATOM     28  C   UNL     1       9.875  11.151  20.581  0.00  0.00    +0.000 A 
ATOM     29  C   UNL     1      10.148  12.426  20.103  0.00  0.00    +0.000 A 
ATOM     30  F   UNL     1      10.695  13.335  20.922  0.00  0.00    +0.000 F 
ATOM     31  C   UNL     1       9.860  12.775  18.789  0.00  0.00    +0.000 A 
ATOM     32  C   UNL     1       9.293  11.827  17.934  0.00  0.00    +0.000 A 
ENDBRANCH  25  26
ENDBRANCH  23  25
ENDBRANCH  18  21
ENDBRANCH   1  17
TORSDOF 7
ENDMDL
MODEL 6
REMARK VINA RESULT:      -8.1      0.770      1.212
REMARK  Name = 
REMARK  8 active torsions:
REMARK  status: ('A' for Active; 'I' for Inactive)
REMARK    1  A    between atoms: C_1  and  O_2
REMARK    2  A    between atoms: O_2  and  C_3
REMARK    3  A    between atoms: C_6  and  C_7
REMARK    4  A    between atoms: C_13  and  C_14
REMARK    5  A    between atoms: C_14  and  N_15
REMARK    6  A    between atoms: C_16  and  C_18
REMARK    7  A    between atoms: N_20  and  C_21
REMARK    8  A    between atoms: C_21  and  C_22
REMARK                            x       y       z     vdW  Elec       q    Type
REMARK                         _______ _______ _______ _____ _____    ______ ____
ROOT
ATOM      1  C   UNL     1       4.689   3.187  19.623  0.00  0.00    +0.000 C 
ENDROOT
BRANCH   1   8
ATOM      2  C   UNL     1       2.452   5.252  18.650  0.00  0.00    +0.000 C 
ATOM      3  O   UNL     1       2.711   4.946  17.492  0.00  0.00    +0.000 OA
ATOM      4  N   UNL     1       2.477   4.328  19.680  0.00  0.00    +0.000 N 
ATOM      5  C   UNL     1       1.962   4.426  21.020  0.00  0.00    +0.000 C 
ATOM      6  C   UNL     1       1.823   2.987  21.448  0.00  0.00    +0.000 C 
ATOM      7  O   UNL     1       2.654   2.212  20.575  0.00  0.00    +0.000 OA
ATOM      8  C   UNL     1       3.142   3.058  19.519  0.00  0.00    +0.000 C 
BRANCH   2  12
ATOM      9  C   UNL     1       1.521   9.365  19.480  0.00  0.00    +0.000 A 
ATOM     10  C   UNL     1       1.440   8.409  20.498  0.00  0.00    +0.000 A 
ATOM     11  C   UNL     1       1.774   7.068  20.251  0.00  0.00    +0.000 A 
ATOM     12  C   UNL     1       2.165   6.677  18.966  0.00  0.00    +0.000 A 
ATOM     13  C   UNL     1       2.160   7.626  17.941  0.00  0.00    +0.000 A 
ATOM     14  C   UNL     1       1.881   8.964  18.198  0.00  0.00    +0.000 A 
BRANCH   9  16
ATOM     15  C   UNL     1       0.051  10.767  20.692  0.00  0.00    +0.000 C 
ATOM     16  O   UNL     1       1.172  10.643  19.819  0.00  0.00    +0.000 OA
ENDBRANCH   9  16
ENDBRANCH   2  12
ENDBRANCH   1   8
BRANCH   1  17
ATOM     17  N   UNL     1       5.311   3.919  18.518  0.00  0.00    +0.000 N 
ATOM     18  C   UNL     1       6.166   4.983  18.707  0.00  0.00    +0.000 C 
ATOM     19  O   UNL     1       6.607   5.380  19.773  0.00  0.00    +0.000 OA
ATOM     20  H   UNL     1       5.003   3.743  17.567  0.00  0.00    +0.000 HD
BRANCH  18  21
ATOM     21  C   UNL     1       6.557   5.715  17.398  0.00  0.00    +0.000 C 
ATOM     22  O   UNL     1       6.316   6.908  17.268  0.00  0.00    +0.000 OA
ATOM     23  N   UNL     1       7.189   4.901  16.490  0.00  0.00    +0.000 N 
ATOM     24  H   UNL     1       7.332   3.932  16.769  0.00  0.00    +0.000 HD
BRANCH  23  25
ATOM     25  C   UNL     1       7.620   5.337  15.187  0.00  0.00    +0.000 C 
BRANCH  25  26
ATOM     26  C   UNL     1       6.855   4.630  14.098  0.00  0.00    +0.000 A 
ATOM     27  C   UNL     1       5.521   4.245  14.312  0.00  0.00    +0.000 A 
ATOM     28  C   UNL     1       4.810   3.573  13.316  0.00  0.00    +0.000 A 
ATOM     29  C   UNL     1       5.432   3.277  12.110  0.00  0.00    +0.000 A 
ATOM     30  F   UNL     1       4.747   2.636  11.153  0.00  0.00    +0.000 F 
ATOM     31  C   UNL     1       6.755   3.635  11.881  0.00  0.00    +0.000 A 
ATOM     32  C   UNL     1       7.469   4.307  12.876  0.00  0.00    +0.000 A 
ENDBRANCH  25  26
ENDBRANCH  23  25
ENDBRANCH  18  21
ENDBRANCH   1  17
TORSDOF 7
ENDMDL
MODEL 7
REMARK VINA RESULT:      -8.0      0.988      1.036
REMARK  Name = 
REMARK  8 active torsions:
REMARK  status: ('A' for Active; 'I' for Inactive)
REMARK    1  A    between atoms: C_1  and  O_2
REMARK    2  A    between atoms: O_2  and  C_3
REMARK    3  A    between atoms: C_6  and  C_7
REMARK    4  A    between atoms: C_13  and  C_14
REMARK    5  A    between atoms: C_14  and  N_15
REMARK    6  A    between atoms: C_16  and  C_18
REMARK    7  A    between atoms: N_20  and  C_21
REMARK    8  A    between atoms: C_21  and  C_22
REMARK                            x       y       z     vdW  Elec       q    Type
REMARK                         _______ _______ _______ _____ _____    ______ ____
ROOT
ATOM      1  C   UNL     1       4.768   2.941  19.812  0.00  0.00    +0.000 C 
ENDROOT
BRANCH   1   8
ATOM      2  C   UNL     1       2.502   4.934  18.758  0.00  0.00    +0.000 C 
ATOM      3  O   UNL     1       2.703   4.520  17.621  0.00  0.00    +0.000 OA
ATOM      4  N   UNL     1       2.569   4.108  19.866  0.00  0.00    +0.000 N 
ATOM      5  C   UNL     1       2.119   4.336  21.214  0.00  0.00    +0.000 C 
ATOM      6  C   UNL     1       1.990   2.944  21.779  0.00  0.00    +0.000 C 
ATOM      7  O   UNL     1       2.773   2.081  20.944  0.00  0.00    +0.000 OA
ATOM      8  C   UNL     1       3.217   2.821  19.792  0.00  0.00    +0.000 C 
BRANCH   2  12
ATOM      9  C   UNL     1       1.649   9.119  19.235  0.00  0.00    +0.000 A 
ATOM     10  C   UNL     1       1.487   8.243  20.314  0.00  0.00    +0.000 A 
ATOM     11  C   UNL     1       1.794   6.880  20.183  0.00  0.00    +0.000 A 
ATOM     12  C   UNL     1       2.241   6.385  18.953  0.00  0.00    +0.000 A 
ATOM     13  C   UNL     1       2.317   7.255  17.863  0.00  0.00    +0.000 A 
ATOM     14  C   UNL     1       2.064   8.615  18.007  0.00  0.00    +0.000 A 
BRANCH   9  16
ATOM     15  C   UNL     1      -0.074  10.726  19.446  0.00  0.00    +0.000 C 
ATOM     16  O   UNL     1       1.320  10.428  19.461  0.00  0.00    +0.000 OA
ENDBRANCH   9  16
ENDBRANCH   2  12
ENDBRANCH   1   8
BRANCH   1  17
ATOM     17  N   UNL     1       5.333   3.662  18.670  0.00  0.00    +0.000 N 
ATOM     18  C   UNL     1       6.180   4.740  18.806  0.00  0.00    +0.000 C 
ATOM     19  O   UNL     1       6.660   5.161  19.845  0.00  0.00    +0.000 OA
ATOM     20  H   UNL     1       4.989   3.465  17.735  0.00  0.00    +0.000 HD
BRANCH  18  21
ATOM     21  C   UNL     1       6.507   5.454  17.469  0.00  0.00    +0.000 C 
ATOM     22  O   UNL     1       7.630   5.899  17.270  0.00  0.00    +0.000 OA
ATOM     23  N   UNL     1       5.444   5.488  16.599  0.00  0.00    +0.000 N 
ATOM     24  H   UNL     1       4.582   5.047  16.916  0.00  0.00    +0.000 HD
BRANCH  23  25
ATOM     25  C   UNL     1       5.485   6.124  15.308  0.00  0.00    +0.000 C 
BRANCH  25  26
ATOM     26  C   UNL     1       5.966   5.168  14.247  0.00  0.00    +0.000 A 
ATOM     27  C   UNL     1       7.247   5.321  13.691  0.00  0.00    +0.000 A 
ATOM     28  C   UNL     1       7.693   4.451  12.694  0.00  0.00    +0.000 A 
ATOM     29  C   UNL     1       6.859   3.435  12.246  0.00  0.00    +0.000 A 
ATOM     30  F   UNL     1       7.291   2.598  11.293  0.00  0.00    +0.000 F 
ATOM     31  C   UNL     1       5.582   3.274  12.771  0.00  0.00    +0.000 A 
ATOM     32  C   UNL     1       5.133   4.143  13.768  0.00  0.00    +0.000 A 
ENDBRANCH  25  26
ENDBRANCH  23  25
ENDBRANCH  18  21
ENDBRANCH   1  17
TORSDOF 7
ENDMDL
MODEL 8
REMARK VINA RESULT:      -8.0      6.467      8.451
REMARK  Name = 
REMARK  8 active torsions:
REMARK  status: ('A' for Active; 'I' for Inactive)
REMARK    1  A    between atoms: C_1  and  O_2
REMARK    2  A    between atoms: O_2  and  C_3
REMARK    3  A    between atoms: C_6  and  C_7
REMARK    4  A    between atoms: C_13  and  C_14
REMARK    5  A    between atoms: C_14  and  N_15
REMARK    6  A    between atoms: C_16  and  C_18
REMARK    7  A    between atoms: N_20  and  C_21
REMARK    8  A    between atoms: C_21  and  C_22
REMARK                            x       y       z     vdW  Elec       q    Type
REMARK                         _______ _______ _______ _____ _____    ______ ____
ROOT
ATOM      1  C   UNL     1       7.284   7.502  17.799  0.00  0.00    +0.000 C 
ENDROOT
BRANCH   1   8
ATOM      2  C   UNL     1       4.276   6.492  17.412  0.00  0.00    +0.000 C 
ATOM      3  O   UNL     1       3.963   7.631  17.084  0.00  0.00    +0.000 OA
ATOM      4  N   UNL     1       5.494   5.933  17.067  0.00  0.00    +0.000 N 
ATOM      5  C   UNL     1       5.930   4.563  17.126  0.00  0.00    +0.000 C 
ATOM      6  C   UNL     1       7.090   4.523  16.164  0.00  0.00    +0.000 C 
ATOM      7  O   UNL     1       7.528   5.877  15.984  0.00  0.00    +0.000 OA
ATOM      8  C   UNL     1       6.588   6.761  16.621  0.00  0.00    +0.000 C 
BRANCH   2  12
ATOM      9  C   UNL     1       1.630   4.127  19.836  0.00  0.00    +0.000 A 
ATOM     10  C   UNL     1       2.480   5.064  20.435  0.00  0.00    +0.000 A 
ATOM     11  C   UNL     1       3.325   5.868  19.654  0.00  0.00    +0.000 A 
ATOM     12  C   UNL     1       3.339   5.711  18.264  0.00  0.00    +0.000 A 
ATOM     13  C   UNL     1       2.547   4.715  17.688  0.00  0.00    +0.000 A 
ATOM     14  C   UNL     1       1.671   3.956  18.457  0.00  0.00    +0.000 A 
BRANCH   9  16
ATOM     15  C   UNL     1       1.548   2.570  21.616  0.00  0.00    +0.000 C 
ATOM     16  O   UNL     1       0.848   3.390  20.683  0.00  0.00    +0.000 OA
ENDBRANCH   9  16
ENDBRANCH   2  12
ENDBRANCH   1   8
BRANCH   1  17
ATOM     17  N   UNL     1       7.796   8.831  17.459  0.00  0.00    +0.000 N 
ATOM     18  C   UNL     1       8.596   9.568  18.304  0.00  0.00    +0.000 C 
ATOM     19  O   UNL     1       9.075   9.194  19.362  0.00  0.00    +0.000 OA
ATOM     20  H   UNL     1       7.445   9.305  16.633  0.00  0.00    +0.000 HD
BRANCH  18  21
ATOM     21  C   UNL     1       8.867  11.013  17.813  0.00  0.00    +0.000 C 
ATOM     22  O   UNL     1       7.945  11.701  17.394  0.00  0.00    +0.000 OA
ATOM     23  N   UNL     1      10.183  11.389  17.934  0.00  0.00    +0.000 N 
ATOM     24  H   UNL     1      10.819  10.698  18.328  0.00  0.00    +0.000 HD
BRANCH  23  25
ATOM     25  C   UNL     1      10.693  12.669  17.516  0.00  0.00    +0.000 C 
BRANCH  25  26
ATOM     26  C   UNL     1      10.422  13.726  18.556  0.00  0.00    +0.000 A 
ATOM     27  C   UNL     1       9.743  14.904  18.201  0.00  0.00    +0.000 A 
ATOM     28  C   UNL     1       9.505  15.897  19.153  0.00  0.00    +0.000 A 
ATOM     29  C   UNL     1       9.951  15.719  20.456  0.00  0.00    +0.000 A 
ATOM     30  F   UNL     1       9.717  16.671  21.370  0.00  0.00    +0.000 F 
ATOM     31  C   UNL     1      10.638  14.569  20.827  0.00  0.00    +0.000 A 
ATOM     32  C   UNL     1      10.878  13.574  19.876  0.00  0.00    +0.000 A 
ENDBRANCH  25  26
ENDBRANCH  23  25
ENDBRANCH  18  21
ENDBRANCH   1  17
TORSDOF 7
ENDMDL
MODEL 9
REMARK VINA RESULT:      -7.9      3.404      7.892
REMARK  Name = 
REMARK  8 active torsions:
REMARK  status: ('A' for Active; 'I' for Inactive)
REMARK    1  A    between atoms: C_1  and  O_2
REMARK    2  A    between atoms: O_2  and  C_3
REMARK    3  A    between atoms: C_6  and  C_7
REMARK    4  A    between atoms: C_13  and  C_14
REMARK    5  A    between atoms: C_14  and  N_15
REMARK    6  A    between atoms: C_16  and  C_18
REMARK    7  A    between atoms: N_20  and  C_21
REMARK    8  A    between atoms: C_21  and  C_22
REMARK                            x       y       z     vdW  Elec       q    Type
REMARK                         _______ _______ _______ _____ _____    ______ ____
ROOT
ATOM      1  C   UNL     1       2.521   4.679  20.921  0.00  0.00    +0.000 C 
ENDROOT
BRANCH   1   8
ATOM      2  C   UNL     1       4.617   3.516  18.807  0.00  0.00    +0.000 C 
ATOM      3  O   UNL     1       5.252   3.036  19.740  0.00  0.00    +0.000 OA
ATOM      4  N   UNL     1       3.235   3.573  18.807  0.00  0.00    +0.000 N 
ATOM      5  C   UNL     1       2.323   3.846  17.729  0.00  0.00    +0.000 C 
ATOM      6  C   UNL     1       1.021   3.261  18.214  0.00  0.00    +0.000 C 
ATOM      7  O   UNL     1       1.132   3.123  19.637  0.00  0.00    +0.000 OA
ATOM      8  C   UNL     1       2.488   3.404  20.030  0.00  0.00    +0.000 C 
BRANCH   2  12
ATOM      9  C   UNL     1       6.888   5.208  15.574  0.00  0.00    +0.000 A 
ATOM     10  C   UNL     1       6.032   4.126  15.338  0.00  0.00    +0.000 A 
ATOM     11  C   UNL     1       5.258   3.585  16.377  0.00  0.00    +0.000 A 
ATOM     12  C   UNL     1       5.365   4.114  17.668  0.00  0.00    +0.000 A 
ATOM     13  C   UNL     1       6.285   5.137  17.905  0.00  0.00    +0.000 A 
ATOM     14  C   UNL     1       7.011   5.708  16.865  0.00  0.00    +0.000 A 
BRANCH   9  16
ATOM     15  C   UNL     1       7.397   4.953  13.278  0.00  0.00    +0.000 C 
ATOM     16  O   UNL     1       7.602   5.661  14.498  0.00  0.00    +0.000 OA
ENDBRANCH   9  16
ENDBRANCH   2  12
ENDBRANCH   1   8
BRANCH   1  17
ATOM     17  N   UNL     1       2.603   5.936  20.174  0.00  0.00    +0.000 N 
ATOM     18  C   UNL     1       1.797   7.021  20.436  0.00  0.00    +0.000 C 
ATOM     19  O   UNL     1       1.012   7.137  21.363  0.00  0.00    +0.000 OA
ATOM     20  H   UNL     1       3.173   5.982  19.335  0.00  0.00    +0.000 HD
BRANCH  18  21
ATOM     21  C   UNL     1       1.936   8.172  19.407  0.00  0.00    +0.000 C 
ATOM     22  O   UNL     1       2.716   8.064  18.469  0.00  0.00    +0.000 OA
ATOM     23  N   UNL     1       1.102   9.233  19.663  0.00  0.00    +0.000 N 
ATOM     24  H   UNL     1       0.495   9.148  20.478  0.00  0.00    +0.000 HD
BRANCH  23  25
ATOM     25  C   UNL     1       1.067  10.435  18.872  0.00  0.00    +0.000 C 
BRANCH  25  26
ATOM     26  C   UNL     1      -0.333  10.736  18.403  0.00  0.00    +0.000 A 
ATOM     27  C   UNL     1      -0.984   9.855  17.522  0.00  0.00    +0.000 A 
ATOM     28  C   UNL     1      -2.274  10.135  17.068  0.00  0.00    +0.000 A 
ATOM     29  C   UNL     1      -2.911  11.297  17.484  0.00  0.00    +0.000 A 
ATOM     30  F   UNL     1      -4.151  11.561  17.051  0.00  0.00    +0.000 F 
ATOM     31  C   UNL     1      -2.282  12.189  18.344  0.00  0.00    +0.000 A 
ATOM     32  C   UNL     1      -0.991  11.912  18.800  0.00  0.00    +0.000 A 
ENDBRANCH  25  26
ENDBRANCH  23  25
ENDBRANCH  18  21
ENDBRANCH   1  17
TORSDOF 7
ENDMDL
