MODEL 1
REMARK VINA RESULT:      -7.0      0.000      0.000
REMARK  Name = 
REMARK  3 active torsions:
REMARK  status: ('A' for Active; 'I' for Inactive)
REMARK    1  A    between atoms: C_1  and  C_2
REMARK    2  A    between atoms: CA_4  and  C_5
REMARK    3  A    between atoms: N_15  and  C_16
REMARK                            x       y       z     vdW  Elec       q    Type
REMARK                         _______ _______ _______ _____ _____    ______ ____
ROOT
ATOM      1  C   UNL     1       1.467   3.256  20.831  0.00  0.00    +0.000 C 
ATOM      2  C   UNL     1       1.921   4.547  20.224  0.00  0.00    +0.000 A 
ATOM      3  N   UNL     1       1.467   5.687  20.816  0.00  0.00    +0.000 NA
ATOM      4  CA  UNL     1       1.832   6.893  20.325  0.00  0.00    +0.000 A 
ATOM      5  C   UNL     1       2.659   7.084  19.231  0.00  0.00    +0.000 A 
ATOM      6  C   UNL     1       3.142   5.926  18.603  0.00  0.00    +0.000 A 
ATOM      7  C   UNL     1       3.996   5.714  17.475  0.00  0.00    +0.000 A 
ATOM      8  C   UNL     1       4.667   6.579  16.582  0.00  0.00    +0.000 A 
ATOM      9  C   UNL     1       5.448   6.043  15.552  0.00  0.00    +0.000 A 
ATOM     10  C   UNL     1       5.570   4.669  15.401  0.00  0.00    +0.000 A 
ATOM     11  C   UNL     1       4.917   3.793  16.271  0.00  0.00    +0.000 A 
ATOM     12  C   UNL     1       4.132   4.336  17.305  0.00  0.00    +0.000 A 
ATOM     13  N   UNL     1       3.386   3.730  18.296  0.00  0.00    +0.000 N 
ATOM     14  C   UNL     1       3.270   2.296  18.458  0.00  0.00    +0.000 C 
ATOM     15  C   UNL     1       2.769   4.674  19.104  0.00  0.00    +0.000 A 
ENDROOT
BRANCH   4  16
ATOM     16  C   UNL     1       1.278   8.062  21.046  0.00  0.00    +0.000 C 
ATOM     17  O   UNL     1       0.899   9.079  20.478  0.00  0.00    +0.000 OA
ENDBRANCH   4  16
TORSDOF 1
ENDMDL
MODEL 2
REMARK VINA RESULT:      -7.0      2.060      3.380
REMARK  Name = 
REMARK  3 active torsions:
REMARK  status: ('A' for Active; 'I' for Inactive)
REMARK    1  A    between atoms: C_1  and  C_2
REMARK    2  A    between atoms: CA_4  and  C_5
REMARK    3  A    between atoms: N_15  and  C_16
REMARK                            x       y       z     vdW  Elec       q    Type
REMARK                         _______ _______ _______ _____ _____    ______ ____
ROOT
ATOM      1  C   UNL     1       1.666   7.581  20.332  0.00  0.00    +0.000 C 
ATOM      2  C   UNL     1       2.201   6.231  19.971  0.00  0.00    +0.000 A 
ATOM      3  N   UNL     1       1.850   5.201  20.791  0.00  0.00    +0.000 NA
ATOM      4  CA  UNL     1       2.295   3.951  20.532  0.00  0.00    +0.000 A 
ATOM      5  C   UNL     1       3.107   3.606  19.465  0.00  0.00    +0.000 A 
ATOM      6  C   UNL     1       3.482   4.647  18.603  0.00  0.00    +0.000 A 
ATOM      7  C   UNL     1       4.291   4.691  17.423  0.00  0.00    +0.000 A 
ATOM      8  C   UNL     1       5.005   3.716  16.691  0.00  0.00    +0.000 A 
ATOM      9  C   UNL     1       5.719   4.091  15.548  0.00  0.00    +0.000 A 
ATOM     10  C   UNL     1       5.731   5.414  15.127  0.00  0.00    +0.000 A 
ATOM     11  C   UNL     1       5.032   6.396  15.832  0.00  0.00    +0.000 A 
ATOM     12  C   UNL     1       4.316   6.014  16.982  0.00  0.00    +0.000 A 
ATOM     13  N   UNL     1       3.549   6.750  17.863  0.00  0.00    +0.000 N 
ATOM     14  C   UNL     1       3.329   8.176  17.747  0.00  0.00    +0.000 C 
ATOM     15  C   UNL     1       3.027   5.944  18.864  0.00  0.00    +0.000 A 
ENDROOT
BRANCH   4  16
ATOM     16  C   UNL     1       1.853   2.912  21.490  0.00  0.00    +0.000 C 
ATOM     17  O   UNL     1       2.622   2.326  22.243  0.00  0.00    +0.000 OA
ENDBRANCH   4  16
TORSDOF 1
ENDMDL
MODEL 3
REMARK VINA RESULT:      -6.8      2.590      4.987
REMARK  Name = 
REMARK  3 active torsions:
REMARK  status: ('A' for Active; 'I' for Inactive)
REMARK    1  A    between atoms: C_1  and  C_2
REMARK    2  A    between atoms: CA_4  and  C_5
REMARK    3  A    between atoms: N_15  and  C_16
REMARK                            x       y       z     vdW  Elec       q    Type
REMARK                         _______ _______ _______ _____ _____    ______ ____
ROOT
ATOM      1  C   UNL     1       4.439   2.967  19.504  0.00  0.00    +0.000 C 
ATOM      2  C   UNL     1       4.465   4.145  18.581  0.00  0.00    +0.000 A 
ATOM      3  N   UNL     1       5.283   4.046  17.496  0.00  0.00    +0.000 NA
ATOM      4  CA  UNL     1       5.362   5.070  16.616  0.00  0.00    +0.000 A 
ATOM      5  C   UNL     1       4.660   6.259  16.720  0.00  0.00    +0.000 A 
ATOM      6  C   UNL     1       3.809   6.386  17.828  0.00  0.00    +0.000 A 
ATOM      7  C   UNL     1       2.941   7.433  18.274  0.00  0.00    +0.000 A 
ATOM      8  C   UNL     1       2.617   8.714  17.773  0.00  0.00    +0.000 A 
ATOM      9  C   UNL     1       1.705   9.519  18.463  0.00  0.00    +0.000 A 
ATOM     10  C   UNL     1       1.115   9.070  19.636  0.00  0.00    +0.000 A 
ATOM     11  C   UNL     1       1.417   7.807  20.152  0.00  0.00    +0.000 A 
ATOM     12  C   UNL     1       2.335   7.001  19.455  0.00  0.00    +0.000 A 
ATOM     13  N   UNL     1       2.819   5.735  19.718  0.00  0.00    +0.000 N 
ATOM     14  C   UNL     1       2.429   4.943  20.866  0.00  0.00    +0.000 C 
ATOM     15  C   UNL     1       3.721   5.332  18.744  0.00  0.00    +0.000 A 
ENDROOT
BRANCH   4  16
ATOM     16  C   UNL     1       6.283   4.854  15.477  0.00  0.00    +0.000 C 
ATOM     17  O   UNL     1       7.265   5.556  15.268  0.00  0.00    +0.000 OA
ENDBRANCH   4  16
TORSDOF 1
ENDMDL
MODEL 4
REMARK VINA RESULT:      -6.8      1.270      1.400
REMARK  Name = 
REMARK  3 active torsions:
REMARK  status: ('A' for Active; 'I' for Inactive)
REMARK    1  A    between atoms: C_1  and  C_2
REMARK    2  A    between atoms: CA_4  and  C_5
REMARK    3  A    between atoms: N_15  and  C_16
REMARK                            x       y       z     vdW  Elec       q    Type
REMARK                         _______ _______ _______ _____ _____    ______ ____
ROOT
ATOM      1  C   UNL     1       2.214   4.726  20.960  0.00  0.00    +0.000 C 
ATOM      2  C   UNL     1       2.551   5.672  19.852  0.00  0.00    +0.000 A 
ATOM      3  N   UNL     1       1.977   6.906  19.913  0.00  0.00    +0.000 NA
ATOM      4  CA  UNL     1       2.233   7.818  18.947  0.00  0.00    +0.000 A 
ATOM      5  C   UNL     1       3.057   7.604  17.856  0.00  0.00    +0.000 A 
ATOM      6  C   UNL     1       3.662   6.341  17.768  0.00  0.00    +0.000 A 
ATOM      7  C   UNL     1       4.554   5.752  16.817  0.00  0.00    +0.000 A 
ATOM      8  C   UNL     1       5.154   6.215  15.624  0.00  0.00    +0.000 A 
ATOM      9  C   UNL     1       6.002   5.370  14.901  0.00  0.00    +0.000 A 
ATOM     10  C   UNL     1       6.260   4.080  15.345  0.00  0.00    +0.000 A 
ATOM     11  C   UNL     1       5.680   3.600  16.522  0.00  0.00    +0.000 A 
ATOM     12  C   UNL     1       4.827   4.453  17.245  0.00  0.00    +0.000 A 
ATOM     13  N   UNL     1       4.124   4.258  18.418  0.00  0.00    +0.000 N 
ATOM     14  C   UNL     1       4.145   3.025  19.177  0.00  0.00    +0.000 C 
ATOM     15  C   UNL     1       3.403   5.392  18.763  0.00  0.00    +0.000 A 
ENDROOT
BRANCH   4  16
ATOM     16  C   UNL     1       1.554   9.124  19.116  0.00  0.00    +0.000 C 
ATOM     17  O   UNL     1       1.225   9.832  18.173  0.00  0.00    +0.000 OA
ENDBRANCH   4  16
TORSDOF 1
ENDMDL
MODEL 5
REMARK VINA RESULT:      -6.8      2.808      5.632
REMARK  Name = 
REMARK  3 active torsions:
REMARK  status: ('A' for Active; 'I' for Inactive)
REMARK    1  A    between atoms: C_1  and  C_2
REMARK    2  A    between atoms: CA_4  and  C_5
REMARK    3  A    between atoms: N_15  and  C_16
REMARK                            x       y       z     vdW  Elec       q    Type
REMARK                         _______ _______ _______ _____ _____    ______ ____
ROOT
ATOM      1  C   UNL     1       4.845   8.077  17.358  0.00  0.00    +0.000 C 
ATOM      2  C   UNL     1       4.816   6.627  16.989  0.00  0.00    +0.000 A 
ATOM      3  N   UNL     1       5.721   6.222  16.054  0.00  0.00    +0.000 NA
ATOM      4  CA  UNL     1       5.757   4.927  15.667  0.00  0.00    +0.000 A 
ATOM      5  C   UNL     1       4.924   3.933  16.151  0.00  0.00    +0.000 A 
ATOM      6  C   UNL     1       3.982   4.323  17.116  0.00  0.00    +0.000 A 
ATOM      7  C   UNL     1       2.974   3.609  17.837  0.00  0.00    +0.000 A 
ATOM      8  C   UNL     1       2.552   2.260  17.849  0.00  0.00    +0.000 A 
ATOM      9  C   UNL     1       1.506   1.868  18.691  0.00  0.00    +0.000 A 
ATOM     10  C   UNL     1       0.879   2.792  19.515  0.00  0.00    +0.000 A 
ATOM     11  C   UNL     1       1.278   4.131  19.522  0.00  0.00    +0.000 A 
ATOM     12  C   UNL     1       2.330   4.521  18.673  0.00  0.00    +0.000 A 
ATOM     13  N   UNL     1       2.927   5.749  18.468  0.00  0.00    +0.000 N 
ATOM     14  C   UNL     1       2.536   6.962  19.154  0.00  0.00    +0.000 C 
ATOM     15  C   UNL     1       3.938   5.661  17.523  0.00  0.00    +0.000 A 
ENDROOT
BRANCH   4  16
ATOM     16  C   UNL     1       6.779   4.601  14.646  0.00  0.00    +0.000 C 
ATOM     17  O   UNL     1       7.676   5.372  14.329  0.00  0.00    +0.000 OA
ENDBRANCH   4  16
TORSDOF 1
ENDMDL
MODEL 6
REMARK VINA RESULT:      -6.7      1.771      4.143
REMARK  Name = 
REMARK  3 active torsions:
REMARK  status: ('A' for Active; 'I' for Inactive)
REMARK    1  A    between atoms: C_1  and  C_2
REMARK    2  A    between atoms: CA_4  and  C_5
REMARK    3  A    between atoms: N_15  and  C_16
REMARK                            x       y       z     vdW  Elec       q    Type
REMARK                         _______ _______ _______ _____ _____    ______ ____
ROOT
ATOM      1  C   UNL     1       5.119   6.688  16.077  0.00  0.00    +0.000 C 
ATOM      2  C   UNL     1       4.087   6.860  17.147  0.00  0.00    +0.000 A 
ATOM      3  N   UNL     1       3.424   8.051  17.163  0.00  0.00    +0.000 NA
ATOM      4  CA  UNL     1       2.477   8.282  18.100  0.00  0.00    +0.000 A 
ATOM      5  C   UNL     1       2.104   7.385  19.086  0.00  0.00    +0.000 A 
ATOM      6  C   UNL     1       2.770   6.150  19.092  0.00  0.00    +0.000 A 
ATOM      7  C   UNL     1       2.669   4.994  19.928  0.00  0.00    +0.000 A 
ATOM      8  C   UNL     1       1.871   4.663  21.046  0.00  0.00    +0.000 A 
ATOM      9  C   UNL     1       2.018   3.414  21.659  0.00  0.00    +0.000 A 
ATOM     10  C   UNL     1       2.941   2.496  21.176  0.00  0.00    +0.000 A 
ATOM     11  C   UNL     1       3.740   2.799  20.072  0.00  0.00    +0.000 A 
ATOM     12  C   UNL     1       3.590   4.056  19.460  0.00  0.00    +0.000 A 
ATOM     13  N   UNL     1       4.229   4.624  18.375  0.00  0.00    +0.000 N 
ATOM     14  C   UNL     1       5.263   3.961  17.609  0.00  0.00    +0.000 C 
ATOM     15  C   UNL     1       3.751   5.902  18.126  0.00  0.00    +0.000 A 
ENDROOT
BRANCH   4  16
ATOM     16  C   UNL     1       1.824   9.609  18.023  0.00  0.00    +0.000 C 
ATOM     17  O   UNL     1       0.609   9.753  17.963  0.00  0.00    +0.000 OA
ENDBRANCH   4  16
TORSDOF 1
ENDMDL
MODEL 7
REMARK VINA RESULT:      -6.5      3.588      6.125
REMARK  Name = 
REMARK  3 active torsions:
REMARK  status: ('A' for Active; 'I' for Inactive)
REMARK    1  A    between atoms: C_1  and  C_2
REMARK    2  A    between atoms: CA_4  and  C_5
REMARK    3  A    between atoms: N_15  and  C_16
REMARK                            x       y       z     vdW  Elec       q    Type
REMARK                         _______ _______ _______ _____ _____    ______ ____
ROOT
ATOM      1  C   UNL     1       7.573   6.757  17.346  0.00  0.00    +0.000 C 
ATOM      2  C   UNL     1       6.764   5.733  16.615  0.00  0.00    +0.000 A 
ATOM      3  N   UNL     1       7.123   5.484  15.325  0.00  0.00    +0.000 NA
ATOM      4  CA  UNL     1       6.438   4.572  14.598  0.00  0.00    +0.000 A 
ATOM      5  C   UNL     1       5.361   3.837  15.063  0.00  0.00    +0.000 A 
ATOM      6  C   UNL     1       4.970   4.072  16.390  0.00  0.00    +0.000 A 
ATOM      7  C   UNL     1       3.933   3.527  17.211  0.00  0.00    +0.000 A 
ATOM      8  C   UNL     1       2.926   2.559  16.999  0.00  0.00    +0.000 A 
ATOM      9  C   UNL     1       2.041   2.240  18.034  0.00  0.00    +0.000 A 
ATOM     10  C   UNL     1       2.143   2.867  19.268  0.00  0.00    +0.000 A 
ATOM     11  C   UNL     1       3.131   3.826  19.503  0.00  0.00    +0.000 A 
ATOM     12  C   UNL     1       4.019   4.145  18.459  0.00  0.00    +0.000 A 
ATOM     13  N   UNL     1       5.072   5.035  18.399  0.00  0.00    +0.000 N 
ATOM     14  C   UNL     1       5.484   5.876  19.504  0.00  0.00    +0.000 C 
ATOM     15  C   UNL     1       5.673   5.015  17.149  0.00  0.00    +0.000 A 
ENDROOT
BRANCH   4  16
ATOM     16  C   UNL     1       6.916   4.384  13.209  0.00  0.00    +0.000 C 
ATOM     17  O   UNL     1       6.452   3.541  12.451  0.00  0.00    +0.000 OA
ENDBRANCH   4  16
TORSDOF 1
ENDMDL
MODEL 8
REMARK VINA RESULT:      -6.5      2.724      5.586
REMARK  Name = 
REMARK  3 active torsions:
REMARK  status: ('A' for Active; 'I' for Inactive)
REMARK    1  A    between atoms: C_1  and  C_2
REMARK    2  A    between atoms: CA_4  and  C_5
REMARK    3  A    between atoms: N_15  and  C_16
REMARK                            x       y       z     vdW  Elec       q    Type
REMARK                         _______ _______ _______ _____ _____    ______ ____
ROOT
ATOM      1  C   UNL     1       3.807   8.097  17.160  0.00  0.00    +0.000 C 
ATOM      2  C   UNL     1       4.278   6.687  17.332  0.00  0.00    +0.000 A 
ATOM      3  N   UNL     1       5.205   6.244  16.437  0.00  0.00    +0.000 NA
ATOM      4  CA  UNL     1       5.679   4.981  16.526  0.00  0.00    +0.000 A 
ATOM      5  C   UNL     1       5.294   4.057  17.482  0.00  0.00    +0.000 A 
ATOM      6  C   UNL     1       4.340   4.487  18.418  0.00  0.00    +0.000 A 
ATOM      7  C   UNL     1       3.706   3.844  19.527  0.00  0.00    +0.000 A 
ATOM      8  C   UNL     1       3.800   2.552  20.093  0.00  0.00    +0.000 A 
ATOM      9  C   UNL     1       3.023   2.225  21.209  0.00  0.00    +0.000 A 
ATOM     10  C   UNL     1       2.160   3.158  21.766  0.00  0.00    +0.000 A 
ATOM     11  C   UNL     1       2.050   4.442  21.226  0.00  0.00    +0.000 A 
ATOM     12  C   UNL     1       2.832   4.767  20.103  0.00  0.00    +0.000 A 
ATOM     13  N   UNL     1       2.932   5.932  19.369  0.00  0.00    +0.000 N 
ATOM     14  C   UNL     1       2.176   7.133  19.653  0.00  0.00    +0.000 C 
ATOM     15  C   UNL     1       3.844   5.792  18.333  0.00  0.00    +0.000 A 
ENDROOT
BRANCH   4  16
ATOM     16  C   UNL     1       6.682   4.609  15.501  0.00  0.00    +0.000 C 
ATOM     17  O   UNL     1       7.509   5.396  15.059  0.00  0.00    +0.000 OA
ENDBRANCH   4  16
TORSDOF 1
ENDMDL
MODEL 9
REMARK VINA RESULT:      -6.4      2.251      4.645
REMARK  Name = 
REMARK  3 active torsions:
REMARK  status: ('A' for Active; 'I' for Inactive)
REMARK    1  A    between atoms: C_1  and  C_2
REMARK    2  A    between atoms: CA_4  and  C_5
REMARK    3  A    between atoms: N_15  and  C_16
REMARK                            x       y       z     vdW  Elec       q    Type
REMARK                         _______ _______ _______ _____ _____    ______ ____
ROOT
ATOM      1  C   UNL     1       4.880   3.913  17.647  0.00  0.00    +0.000 C 
ATOM      2  C   UNL     1       3.914   4.366  18.697  0.00  0.00    +0.000 A 
ATOM      3  N   UNL     1       3.597   3.457  19.660  0.00  0.00    +0.000 NA
ATOM      4  CA  UNL     1       2.730   3.791  20.644  0.00  0.00    +0.000 A 
ATOM      5  C   UNL     1       2.110   5.022  20.766  0.00  0.00    +0.000 A 
ATOM      6  C   UNL     1       2.420   5.978  19.787  0.00  0.00    +0.000 A 
ATOM      7  C   UNL     1       1.994   7.328  19.575  0.00  0.00    +0.000 A 
ATOM      8  C   UNL     1       1.115   8.195  20.262  0.00  0.00    +0.000 A 
ATOM      9  C   UNL     1       0.906   9.493  19.784  0.00  0.00    +0.000 A 
ATOM     10  C   UNL     1       1.556   9.937  18.640  0.00  0.00    +0.000 A 
ATOM     11  C   UNL     1       2.430   9.099  17.944  0.00  0.00    +0.000 A 
ATOM     12  C   UNL     1       2.637   7.794  18.428  0.00  0.00    +0.000 A 
ATOM     13  N   UNL     1       3.427   6.763  17.958  0.00  0.00    +0.000 N 
ATOM     14  C   UNL     1       4.256   6.855  16.775  0.00  0.00    +0.000 C 
ATOM     15  C   UNL     1       3.315   5.641  18.766  0.00  0.00    +0.000 A 
ENDROOT
BRANCH   4  16
ATOM     16  C   UNL     1       2.458   2.725  21.635  0.00  0.00    +0.000 C 
ATOM     17  O   UNL     1       1.372   2.582  22.182  0.00  0.00    +0.000 OA
ENDBRANCH   4  16
TORSDOF 1
ENDMDL
