MODEL 1
REMARK VINA RESULT:      -6.4      0.000      0.000
REMARK  Name = 
REMARK  9 active torsions:
REMARK  status: ('A' for Active; 'I' for Inactive)
REMARK    1  A    between atoms: C_1  and  C_2
REMARK    2  A    between atoms: N_5  and  C_6
REMARK    3  A    between atoms: C_6  and  C_7
REMARK    4  A    between atoms: C_7  and  N_8
REMARK    5  A    between atoms: N_8  and  C_9
REMARK    6  A    between atoms: C_9  and  C_10
REMARK    7  A    between atoms: C_14  and  O_15
REMARK    8  A    between atoms: O_15  and  C_16
REMARK    9  A    between atoms: C_20  and  C_21
REMARK                            x       y       z     vdW  Elec       q    Type
REMARK                         _______ _______ _______ _____ _____    ______ ____
ROOT
ATOM      1  N   UNL     1       2.680   6.557  17.935  0.00  0.00    +0.000 NA
ATOM      2  H   UNL     1       1.899   6.835  17.341  0.00  0.00    +0.000 HD
ENDROOT
BRANCH   1   3
ATOM      3  C   UNL     1       2.394   6.894  19.336  0.00  0.00    +0.000 C 
BRANCH   3   4
ATOM      4  C   UNL     1       2.154   5.624  20.158  0.00  0.00    +0.000 C 
BRANCH   4   9
ATOM      5  C   UNL     1       3.818   1.341  18.116  0.00  0.00    +0.000 C 
ATOM      6  C   UNL     1       3.667   2.639  18.812  0.00  0.00    +0.000 A 
ATOM      7  N   UNL     1       4.732   3.208  19.468  0.00  0.00    +0.000 NA
ATOM      8  C   UNL     1       4.272   4.320  19.987  0.00  0.00    +0.000 A 
ATOM      9  N   UNL     1       2.950   4.506  19.689  0.00  0.00    +0.000 N 
ATOM     10  C   UNL     1       2.540   3.438  18.924  0.00  0.00    +0.000 A 
ATOM     11  C   UNL     1       1.176   3.239  18.375  0.00  0.00    +0.000 C 
ENDBRANCH   4   9
ENDBRANCH   3   4
ENDBRANCH   1   3
BRANCH   1  12
ATOM     12  C   UNL     1       3.886   7.243  17.461  0.00  0.00    +0.000 C 
BRANCH  12  13
ATOM     13  C   UNL     1       5.056   6.303  17.253  0.00  0.00    +0.000 A 
ATOM     14  C   UNL     1       6.273   6.473  17.931  0.00  0.00    +0.000 A 
ATOM     15  C   UNL     1       7.358   5.639  17.667  0.00  0.00    +0.000 A 
ATOM     16  C   UNL     1       7.244   4.627  16.717  0.00  0.00    +0.000 A 
ATOM     17  C   UNL     1       6.042   4.433  16.036  0.00  0.00    +0.000 A 
ATOM     18  C   UNL     1       4.959   5.281  16.290  0.00  0.00    +0.000 A 
BRANCH  17  19
ATOM     19  O   UNL     1       6.055   3.417  15.120  0.00  0.00    +0.000 OA
BRANCH  19  20
ATOM     20  C   UNL     1       6.199   3.817  13.769  0.00  0.00    +0.000 C 
ATOM     21  F   UNL     1       4.971   4.048  13.244  0.00  0.00    +0.000 F 
ATOM     22  F   UNL     1       6.853   5.006  13.768  0.00  0.00    +0.000 F 
ENDBRANCH  19  20
ENDBRANCH  17  19
ENDBRANCH  12  13
ENDBRANCH   1  12
TORSDOF 7
ENDMDL
MODEL 2
REMARK VINA RESULT:      -6.4      2.183      3.519
REMARK  Name = 
REMARK  9 active torsions:
REMARK  status: ('A' for Active; 'I' for Inactive)
REMARK    1  A    between atoms: C_1  and  C_2
REMARK    2  A    between atoms: N_5  and  C_6
REMARK    3  A    between atoms: C_6  and  C_7
REMARK    4  A    between atoms: C_7  and  N_8
REMARK    5  A    between atoms: N_8  and  C_9
REMARK    6  A    between atoms: C_9  and  C_10
REMARK    7  A    between atoms: C_14  and  O_15
REMARK    8  A    between atoms: O_15  and  C_16
REMARK    9  A    between atoms: C_20  and  C_21
REMARK                            x       y       z     vdW  Elec       q    Type
REMARK                         _______ _______ _______ _____ _____    ______ ____
ROOT
ATOM      1  N   UNL     1       4.903   5.597  16.103  0.00  0.00    +0.000 NA
ATOM      2  H   UNL     1       4.961   6.573  15.809  0.00  0.00    +0.000 HD
ENDROOT
BRANCH   1   3
ATOM      3  C   UNL     1       4.474   5.518  17.505  0.00  0.00    +0.000 C 
BRANCH   3   4
ATOM      4  C   UNL     1       3.037   4.993  17.600  0.00  0.00    +0.000 C 
BRANCH   4   9
ATOM      5  C   UNL     1       1.494   2.551  21.716  0.00  0.00    +0.000 C 
ATOM      6  C   UNL     1       2.002   3.535  20.732  0.00  0.00    +0.000 A 
ATOM      7  N   UNL     1       2.286   4.823  21.117  0.00  0.00    +0.000 NA
ATOM      8  C   UNL     1       2.687   5.434  20.028  0.00  0.00    +0.000 A 
ATOM      9  N   UNL     1       2.684   4.594  18.948  0.00  0.00    +0.000 N 
ATOM     10  C   UNL     1       2.254   3.360  19.380  0.00  0.00    +0.000 A 
ATOM     11  C   UNL     1       2.106   2.149  18.535  0.00  0.00    +0.000 C 
ENDBRANCH   4   9
ENDBRANCH   3   4
ENDBRANCH   1   3
BRANCH   1  12
ATOM     12  C   UNL     1       6.222   4.983  15.918  0.00  0.00    +0.000 C 
BRANCH  12  13
ATOM     13  C   UNL     1       6.515   4.639  14.472  0.00  0.00    +0.000 A 
ATOM     14  C   UNL     1       7.608   5.191  13.786  0.00  0.00    +0.000 A 
ATOM     15  C   UNL     1       7.812   4.916  12.434  0.00  0.00    +0.000 A 
ATOM     16  C   UNL     1       6.924   4.092  11.749  0.00  0.00    +0.000 A 
ATOM     17  C   UNL     1       5.834   3.526  12.411  0.00  0.00    +0.000 A 
ATOM     18  C   UNL     1       5.620   3.815  13.763  0.00  0.00    +0.000 A 
BRANCH  17  19
ATOM     19  O   UNL     1       5.027   2.744  11.631  0.00  0.00    +0.000 OA
BRANCH  19  20
ATOM     20  C   UNL     1       3.768   3.306  11.303  0.00  0.00    +0.000 C 
ATOM     21  F   UNL     1       3.957   4.335  10.441  0.00  0.00    +0.000 F 
ATOM     22  F   UNL     1       3.066   2.359  10.631  0.00  0.00    +0.000 F 
ENDBRANCH  19  20
ENDBRANCH  17  19
ENDBRANCH  12  13
ENDBRANCH   1  12
TORSDOF 7
ENDMDL
MODEL 3
REMARK VINA RESULT:      -6.3      1.814      3.927
REMARK  Name = 
REMARK  9 active torsions:
REMARK  status: ('A' for Active; 'I' for Inactive)
REMARK    1  A    between atoms: C_1  and  C_2
REMARK    2  A    between atoms: N_5  and  C_6
REMARK    3  A    between atoms: C_6  and  C_7
REMARK    4  A    between atoms: C_7  and  N_8
REMARK    5  A    between atoms: N_8  and  C_9
REMARK    6  A    between atoms: C_9  and  C_10
REMARK    7  A    between atoms: C_14  and  O_15
REMARK    8  A    between atoms: O_15  and  C_16
REMARK    9  A    between atoms: C_20  and  C_21
REMARK                            x       y       z     vdW  Elec       q    Type
REMARK                         _______ _______ _______ _____ _____    ______ ____
ROOT
ATOM      1  N   UNL     1       3.169   3.839  18.831  0.00  0.00    +0.000 NA
ATOM      2  H   UNL     1       2.862   2.950  19.227  0.00  0.00    +0.000 HD
ENDROOT
BRANCH   1   3
ATOM      3  C   UNL     1       2.178   4.886  19.112  0.00  0.00    +0.000 C 
BRANCH   3   4
ATOM      4  C   UNL     1       2.849   6.107  19.749  0.00  0.00    +0.000 C 
BRANCH   4   9
ATOM      5  C   UNL     1       0.722  10.540  18.699  0.00  0.00    +0.000 C 
ATOM      6  C   UNL     1       1.485   9.271  18.683  0.00  0.00    +0.000 A 
ATOM      7  N   UNL     1       2.158   8.875  17.553  0.00  0.00    +0.000 NA
ATOM      8  C   UNL     1       2.703   7.721  17.855  0.00  0.00    +0.000 A 
ATOM      9  N   UNL     1       2.419   7.351  19.141  0.00  0.00    +0.000 N 
ATOM     10  C   UNL     1       1.642   8.341  19.699  0.00  0.00    +0.000 A 
ATOM     11  C   UNL     1       1.113   8.349  21.085  0.00  0.00    +0.000 C 
ENDBRANCH   4   9
ENDBRANCH   3   4
ENDBRANCH   1   3
BRANCH   1  12
ATOM     12  C   UNL     1       3.355   3.660  17.388  0.00  0.00    +0.000 C 
BRANCH  12  13
ATOM     13  C   UNL     1       4.753   4.015  16.925  0.00  0.00    +0.000 A 
ATOM     14  C   UNL     1       5.774   4.342  17.832  0.00  0.00    +0.000 A 
ATOM     15  C   UNL     1       7.030   4.738  17.378  0.00  0.00    +0.000 A 
ATOM     16  C   UNL     1       7.284   4.817  16.011  0.00  0.00    +0.000 A 
ATOM     17  C   UNL     1       6.288   4.490  15.090  0.00  0.00    +0.000 A 
ATOM     18  C   UNL     1       5.022   4.110  15.546  0.00  0.00    +0.000 A 
BRANCH  17  19
ATOM     19  O   UNL     1       6.651   4.618  13.777  0.00  0.00    +0.000 OA
BRANCH  19  20
ATOM     20  C   UNL     1       6.258   3.552  12.931  0.00  0.00    +0.000 C 
ATOM     21  F   UNL     1       4.989   3.771  12.507  0.00  0.00    +0.000 F 
ATOM     22  F   UNL     1       7.050   3.597  11.830  0.00  0.00    +0.000 F 
ENDBRANCH  19  20
ENDBRANCH  17  19
ENDBRANCH  12  13
ENDBRANCH   1  12
TORSDOF 7
ENDMDL
MODEL 4
REMARK VINA RESULT:      -6.3      4.153      5.728
REMARK  Name = 
REMARK  9 active torsions:
REMARK  status: ('A' for Active; 'I' for Inactive)
REMARK    1  A    between atoms: C_1  and  C_2
REMARK    2  A    between atoms: N_5  and  C_6
REMARK    3  A    between atoms: C_6  and  C_7
REMARK    4  A    between atoms: C_7  and  N_8
REMARK    5  A    between atoms: N_8  and  C_9
REMARK    6  A    between atoms: C_9  and  C_10
REMARK    7  A    between atoms: C_14  and  O_15
REMARK    8  A    between atoms: O_15  and  C_16
REMARK    9  A    between atoms: C_20  and  C_21
REMARK                            x       y       z     vdW  Elec       q    Type
REMARK                         _______ _______ _______ _____ _____    ______ ____
ROOT
ATOM      1  N   UNL     1       4.932   5.774  18.201  0.00  0.00    +0.000 NA
ATOM      2  H   UNL     1       5.684   6.450  18.344  0.00  0.00    +0.000 HD
ENDROOT
BRANCH   1   3
ATOM      3  C   UNL     1       5.440   4.602  17.475  0.00  0.00    +0.000 C 
BRANCH   3   4
ATOM      4  C   UNL     1       4.344   3.541  17.331  0.00  0.00    +0.000 C 
BRANCH   4   9
ATOM      5  C   UNL     1       1.257   2.808  21.233  0.00  0.00    +0.000 C 
ATOM      6  C   UNL     1       2.406   2.883  20.302  0.00  0.00    +0.000 A 
ATOM      7  N   UNL     1       3.665   2.521  20.717  0.00  0.00    +0.000 NA
ATOM      8  C   UNL     1       4.446   2.720  19.683  0.00  0.00    +0.000 A 
ATOM      9  N   UNL     1       3.746   3.189  18.605  0.00  0.00    +0.000 N 
ATOM     10  C   UNL     1       2.426   3.295  18.978  0.00  0.00    +0.000 A 
ATOM     11  C   UNL     1       1.316   3.760  18.111  0.00  0.00    +0.000 C 
ENDBRANCH   4   9
ENDBRANCH   3   4
ENDBRANCH   1   3
BRANCH   1  12
ATOM     12  C   UNL     1       3.857   6.434  17.454  0.00  0.00    +0.000 C 
BRANCH  12  13
ATOM     13  C   UNL     1       2.959   7.278  18.336  0.00  0.00    +0.000 A 
ATOM     14  C   UNL     1       2.591   6.868  19.627  0.00  0.00    +0.000 A 
ATOM     15  C   UNL     1       1.704   7.627  20.389  0.00  0.00    +0.000 A 
ATOM     16  C   UNL     1       1.170   8.803  19.870  0.00  0.00    +0.000 A 
ATOM     17  C   UNL     1       1.527   9.235  18.592  0.00  0.00    +0.000 A 
ATOM     18  C   UNL     1       2.404   8.465  17.821  0.00  0.00    +0.000 A 
BRANCH  17  19
ATOM     19  O   UNL     1       0.929  10.398  18.188  0.00  0.00    +0.000 OA
BRANCH  19  20
ATOM     20  C   UNL     1      -0.456  10.500  18.470  0.00  0.00    +0.000 C 
ATOM     21  F   UNL     1      -0.840  11.792  18.332  0.00  0.00    +0.000 F 
ATOM     22  F   UNL     1      -1.115   9.794  17.517  0.00  0.00    +0.000 F 
ENDBRANCH  19  20
ENDBRANCH  17  19
ENDBRANCH  12  13
ENDBRANCH   1  12
TORSDOF 7
ENDMDL
MODEL 5
REMARK VINA RESULT:      -6.3      1.690      3.112
REMARK  Name = 
REMARK  9 active torsions:
REMARK  status: ('A' for Active; 'I' for Inactive)
REMARK    1  A    between atoms: C_1  and  C_2
REMARK    2  A    between atoms: N_5  and  C_6
REMARK    3  A    between atoms: C_6  and  C_7
REMARK    4  A    between atoms: C_7  and  N_8
REMARK    5  A    between atoms: N_8  and  C_9
REMARK    6  A    between atoms: C_9  and  C_10
REMARK    7  A    between atoms: C_14  and  O_15
REMARK    8  A    between atoms: O_15  and  C_16
REMARK    9  A    between atoms: C_20  and  C_21
REMARK                            x       y       z     vdW  Elec       q    Type
REMARK                         _______ _______ _______ _____ _____    ______ ____
ROOT
ATOM      1  N   UNL     1       4.143   2.346  17.789  0.00  0.00    +0.000 NA
ATOM      2  H   UNL     1       3.469   2.902  17.260  0.00  0.00    +0.000 HD
ENDROOT
BRANCH   1   3
ATOM      3  C   UNL     1       3.440   1.383  18.646  0.00  0.00    +0.000 C 
BRANCH   3   4
ATOM      4  C   UNL     1       2.005   1.849  18.915  0.00  0.00    +0.000 C 
BRANCH   4   9
ATOM      5  C   UNL     1       1.725   6.618  20.484  0.00  0.00    +0.000 C 
ATOM      6  C   UNL     1       1.849   5.146  20.368  0.00  0.00    +0.000 A 
ATOM      7  N   UNL     1       2.126   4.379  21.473  0.00  0.00    +0.000 NA
ATOM      8  C   UNL     1       2.191   3.145  21.036  0.00  0.00    +0.000 A 
ATOM      9  N   UNL     1       1.959   3.074  19.690  0.00  0.00    +0.000 N 
ATOM     10  C   UNL     1       1.727   4.352  19.238  0.00  0.00    +0.000 A 
ATOM     11  C   UNL     1       1.426   4.734  17.836  0.00  0.00    +0.000 C 
ENDBRANCH   4   9
ENDBRANCH   3   4
ENDBRANCH   1   3
BRANCH   1  12
ATOM     12  C   UNL     1       4.967   3.260  18.586  0.00  0.00    +0.000 C 
BRANCH  12  13
ATOM     13  C   UNL     1       5.441   4.465  17.798  0.00  0.00    +0.000 A 
ATOM     14  C   UNL     1       4.954   5.756  18.055  0.00  0.00    +0.000 A 
ATOM     15  C   UNL     1       5.350   6.836  17.268  0.00  0.00    +0.000 A 
ATOM     16  C   UNL     1       6.234   6.640  16.210  0.00  0.00    +0.000 A 
ATOM     17  C   UNL     1       6.737   5.367  15.939  0.00  0.00    +0.000 A 
ATOM     18  C   UNL     1       6.326   4.281  16.719  0.00  0.00    +0.000 A 
BRANCH  17  19
ATOM     19  O   UNL     1       7.587   5.297  14.869  0.00  0.00    +0.000 OA
BRANCH  19  20
ATOM     20  C   UNL     1       6.981   4.966  13.632  0.00  0.00    +0.000 C 
ATOM     21  F   UNL     1       7.857   5.220  12.630  0.00  0.00    +0.000 F 
ATOM     22  F   UNL     1       6.768   3.626  13.633  0.00  0.00    +0.000 F 
ENDBRANCH  19  20
ENDBRANCH  17  19
ENDBRANCH  12  13
ENDBRANCH   1  12
TORSDOF 7
ENDMDL
MODEL 6
REMARK VINA RESULT:      -6.3      1.327      1.426
REMARK  Name = 
REMARK  9 active torsions:
REMARK  status: ('A' for Active; 'I' for Inactive)
REMARK    1  A    between atoms: C_1  and  C_2
REMARK    2  A    between atoms: N_5  and  C_6
REMARK    3  A    between atoms: C_6  and  C_7
REMARK    4  A    between atoms: C_7  and  N_8
REMARK    5  A    between atoms: N_8  and  C_9
REMARK    6  A    between atoms: C_9  and  C_10
REMARK    7  A    between atoms: C_14  and  O_15
REMARK    8  A    between atoms: O_15  and  C_16
REMARK    9  A    between atoms: C_20  and  C_21
REMARK                            x       y       z     vdW  Elec       q    Type
REMARK                         _______ _______ _______ _____ _____    ______ ____
ROOT
ATOM      1  N   UNL     1       3.156   6.132  20.235  0.00  0.00    +0.000 NA
ATOM      2  H   UNL     1       3.505   5.175  20.301  0.00  0.00    +0.000 HD
ENDROOT
BRANCH   1   3
ATOM      3  C   UNL     1       1.748   6.185  20.648  0.00  0.00    +0.000 C 
BRANCH   3   4
ATOM      4  C   UNL     1       1.072   4.827  20.431  0.00  0.00    +0.000 C 
BRANCH   4   9
ATOM      5  C   UNL     1       3.917   1.228  18.373  0.00  0.00    +0.000 C 
ATOM      6  C   UNL     1       3.255   2.200  19.273  0.00  0.00    +0.000 A 
ATOM      7  N   UNL     1       3.535   2.208  20.619  0.00  0.00    +0.000 NA
ATOM      8  C   UNL     1       2.783   3.154  21.127  0.00  0.00    +0.000 A 
ATOM      9  N   UNL     1       2.029   3.771  20.167  0.00  0.00    +0.000 N 
ATOM     10  C   UNL     1       2.323   3.178  18.960  0.00  0.00    +0.000 A 
ATOM     11  C   UNL     1       1.734   3.544  17.649  0.00  0.00    +0.000 C 
ENDBRANCH   4   9
ENDBRANCH   3   4
ENDBRANCH   1   3
BRANCH   1  12
ATOM     12  C   UNL     1       3.319   6.587  18.850  0.00  0.00    +0.000 C 
BRANCH  12  13
ATOM     13  C   UNL     1       4.498   5.940  18.153  0.00  0.00    +0.000 A 
ATOM     14  C   UNL     1       5.469   5.212  18.859  0.00  0.00    +0.000 A 
ATOM     15  C   UNL     1       6.583   4.691  18.203  0.00  0.00    +0.000 A 
ATOM     16  C   UNL     1       6.745   4.894  16.835  0.00  0.00    +0.000 A 
ATOM     17  C   UNL     1       5.790   5.608  16.111  0.00  0.00    +0.000 A 
ATOM     18  C   UNL     1       4.681   6.145  16.772  0.00  0.00    +0.000 A 
BRANCH  17  19
ATOM     19  O   UNL     1       6.065   5.751  14.778  0.00  0.00    +0.000 OA
BRANCH  19  20
ATOM     20  C   UNL     1       6.801   4.692  14.192  0.00  0.00    +0.000 C 
ATOM     21  F   UNL     1       5.953   3.898  13.494  0.00  0.00    +0.000 F 
ATOM     22  F   UNL     1       7.651   5.243  13.289  0.00  0.00    +0.000 F 
ENDBRANCH  19  20
ENDBRANCH  17  19
ENDBRANCH  12  13
ENDBRANCH   1  12
TORSDOF 7
ENDMDL
MODEL 7
REMARK VINA RESULT:      -6.2      2.302      3.629
REMARK  Name = 
REMARK  9 active torsions:
REMARK  status: ('A' for Active; 'I' for Inactive)
REMARK    1  A    between atoms: C_1  and  C_2
REMARK    2  A    between atoms: N_5  and  C_6
REMARK    3  A    between atoms: C_6  and  C_7
REMARK    4  A    between atoms: C_7  and  N_8
REMARK    5  A    between atoms: N_8  and  C_9
REMARK    6  A    between atoms: C_9  and  C_10
REMARK    7  A    between atoms: C_14  and  O_15
REMARK    8  A    between atoms: O_15  and  C_16
REMARK    9  A    between atoms: C_20  and  C_21
REMARK                            x       y       z     vdW  Elec       q    Type
REMARK                         _______ _______ _______ _____ _____    ______ ____
ROOT
ATOM      1  N   UNL     1       6.101   4.268  17.071  0.00  0.00    +0.000 NA
ATOM      2  H   UNL     1       5.806   3.433  17.577  0.00  0.00    +0.000 HD
ENDROOT
BRANCH   1   3
ATOM      3  C   UNL     1       6.035   5.442  17.952  0.00  0.00    +0.000 C 
BRANCH   3   4
ATOM      4  C   UNL     1       5.779   5.014  19.401  0.00  0.00    +0.000 C 
BRANCH   4   9
ATOM      5  C   UNL     1       0.978   3.653  20.020  0.00  0.00    +0.000 C 
ATOM      6  C   UNL     1       2.446   3.704  19.831  0.00  0.00    +0.000 A 
ATOM      7  N   UNL     1       3.190   2.549  19.826  0.00  0.00    +0.000 NA
ATOM      8  C   UNL     1       4.432   2.932  19.661  0.00  0.00    +0.000 A 
ATOM      9  N   UNL     1       4.530   4.292  19.550  0.00  0.00    +0.000 N 
ATOM     10  C   UNL     1       3.259   4.812  19.647  0.00  0.00    +0.000 A 
ATOM     11  C   UNL     1       2.903   6.250  19.571  0.00  0.00    +0.000 C 
ENDBRANCH   4   9
ENDBRANCH   3   4
ENDBRANCH   1   3
BRANCH   1  12
ATOM     12  C   UNL     1       5.227   4.432  15.905  0.00  0.00    +0.000 C 
BRANCH  12  13
ATOM     13  C   UNL     1       5.970   4.314  14.590  0.00  0.00    +0.000 A 
ATOM     14  C   UNL     1       7.009   5.192  14.244  0.00  0.00    +0.000 A 
ATOM     15  C   UNL     1       7.626   5.107  12.997  0.00  0.00    +0.000 A 
ATOM     16  C   UNL     1       7.210   4.149  12.077  0.00  0.00    +0.000 A 
ATOM     17  C   UNL     1       6.184   3.260  12.401  0.00  0.00    +0.000 A 
ATOM     18  C   UNL     1       5.554   3.356  13.646  0.00  0.00    +0.000 A 
BRANCH  17  19
ATOM     19  O   UNL     1       5.857   2.372  11.413  0.00  0.00    +0.000 OA
BRANCH  19  20
ATOM     20  C   UNL     1       6.699   1.238  11.311  0.00  0.00    +0.000 C 
ATOM     21  F   UNL     1       5.996   0.214  10.767  0.00  0.00    +0.000 F 
ATOM     22  F   UNL     1       7.685   1.545  10.430  0.00  0.00    +0.000 F 
ENDBRANCH  19  20
ENDBRANCH  17  19
ENDBRANCH  12  13
ENDBRANCH   1  12
TORSDOF 7
ENDMDL
MODEL 8
REMARK VINA RESULT:      -6.2      2.662      4.699
REMARK  Name = 
REMARK  9 active torsions:
REMARK  status: ('A' for Active; 'I' for Inactive)
REMARK    1  A    between atoms: C_1  and  C_2
REMARK    2  A    between atoms: N_5  and  C_6
REMARK    3  A    between atoms: C_6  and  C_7
REMARK    4  A    between atoms: C_7  and  N_8
REMARK    5  A    between atoms: N_8  and  C_9
REMARK    6  A    between atoms: C_9  and  C_10
REMARK    7  A    between atoms: C_14  and  O_15
REMARK    8  A    between atoms: O_15  and  C_16
REMARK    9  A    between atoms: C_20  and  C_21
REMARK                            x       y       z     vdW  Elec       q    Type
REMARK                         _______ _______ _______ _____ _____    ______ ____
ROOT
ATOM      1  N   UNL     1       2.999   3.473  19.621  0.00  0.00    +0.000 NA
ATOM      2  H   UNL     1       2.769   2.634  20.155  0.00  0.00    +0.000 HD
ENDROOT
BRANCH   1   3
ATOM      3  C   UNL     1       1.961   4.494  19.813  0.00  0.00    +0.000 C 
BRANCH   3   4
ATOM      4  C   UNL     1       2.566   5.773  20.402  0.00  0.00    +0.000 C 
BRANCH   4   9
ATOM      5  C   UNL     1       1.201  10.157  18.353  0.00  0.00    +0.000 C 
ATOM      6  C   UNL     1       1.769   8.822  18.647  0.00  0.00    +0.000 A 
ATOM      7  N   UNL     1       2.465   8.131  17.683  0.00  0.00    +0.000 NA
ATOM      8  C   UNL     1       2.809   6.998  18.244  0.00  0.00    +0.000 A 
ATOM      9  N   UNL     1       2.373   6.922  19.538  0.00  0.00    +0.000 N 
ATOM     10  C   UNL     1       1.707   8.092  19.824  0.00  0.00    +0.000 A 
ATOM     11  C   UNL     1       1.076   8.435  21.122  0.00  0.00    +0.000 C 
ENDBRANCH   4   9
ENDBRANCH   3   4
ENDBRANCH   1   3
BRANCH   1  12
ATOM     12  C   UNL     1       3.119   3.100  18.208  0.00  0.00    +0.000 C 
BRANCH  12  13
ATOM     13  C   UNL     1       4.348   3.688  17.545  0.00  0.00    +0.000 A 
ATOM     14  C   UNL     1       4.433   3.852  16.154  0.00  0.00    +0.000 A 
ATOM     15  C   UNL     1       5.603   4.326  15.563  0.00  0.00    +0.000 A 
ATOM     16  C   UNL     1       6.706   4.639  16.354  0.00  0.00    +0.000 A 
ATOM     17  C   UNL     1       6.643   4.492  17.740  0.00  0.00    +0.000 A 
ATOM     18  C   UNL     1       5.474   4.000  18.331  0.00  0.00    +0.000 A 
BRANCH  17  19
ATOM     19  O   UNL     1       7.791   4.819  18.408  0.00  0.00    +0.000 OA
BRANCH  19  20
ATOM     20  C   UNL     1       7.671   5.880  19.340  0.00  0.00    +0.000 C 
ATOM     21  F   UNL     1       8.143   5.466  20.542  0.00  0.00    +0.000 F 
ATOM     22  F   UNL     1       8.489   6.878  18.923  0.00  0.00    +0.000 F 
ENDBRANCH  19  20
ENDBRANCH  17  19
ENDBRANCH  12  13
ENDBRANCH   1  12
TORSDOF 7
ENDMDL
MODEL 9
REMARK VINA RESULT:      -6.2      1.267      1.634
REMARK  Name = 
REMARK  9 active torsions:
REMARK  status: ('A' for Active; 'I' for Inactive)
REMARK    1  A    between atoms: C_1  and  C_2
REMARK    2  A    between atoms: N_5  and  C_6
REMARK    3  A    between atoms: C_6  and  C_7
REMARK    4  A    between atoms: C_7  and  N_8
REMARK    5  A    between atoms: N_8  and  C_9
REMARK    6  A    between atoms: C_9  and  C_10
REMARK    7  A    between atoms: C_14  and  O_15
REMARK    8  A    between atoms: O_15  and  C_16
REMARK    9  A    between atoms: C_20  and  C_21
REMARK                            x       y       z     vdW  Elec       q    Type
REMARK                         _______ _______ _______ _____ _____    ______ ____
ROOT
ATOM      1  N   UNL     1       3.402   6.081  20.032  0.00  0.00    +0.000 NA
ATOM      2  H   UNL     1       3.717   5.128  20.217  0.00  0.00    +0.000 HD
ENDROOT
BRANCH   1   3
ATOM      3  C   UNL     1       1.950   6.180  20.230  0.00  0.00    +0.000 C 
BRANCH   3   4
ATOM      4  C   UNL     1       1.341   4.792  20.454  0.00  0.00    +0.000 C 
BRANCH   4   9
ATOM      5  C   UNL     1       3.802   1.107  18.079  0.00  0.00    +0.000 C 
ATOM      6  C   UNL     1       2.909   2.222  18.468  0.00  0.00    +0.000 A 
ATOM      7  N   UNL     1       2.072   2.801  17.545  0.00  0.00    +0.000 NA
ATOM      8  C   UNL     1       1.443   3.753  18.191  0.00  0.00    +0.000 A 
ATOM      9  N   UNL     1       1.830   3.815  19.501  0.00  0.00    +0.000 N 
ATOM     10  C   UNL     1       2.770   2.830  19.706  0.00  0.00    +0.000 A 
ATOM     11  C   UNL     1       3.452   2.538  20.991  0.00  0.00    +0.000 C 
ENDBRANCH   4   9
ENDBRANCH   3   4
ENDBRANCH   1   3
BRANCH   1  12
ATOM     12  C   UNL     1       3.773   6.428  18.656  0.00  0.00    +0.000 C 
BRANCH  12  13
ATOM     13  C   UNL     1       5.025   5.716  18.186  0.00  0.00    +0.000 A 
ATOM     14  C   UNL     1       6.265   5.904  18.816  0.00  0.00    +0.000 A 
ATOM     15  C   UNL     1       7.416   5.296  18.319  0.00  0.00    +0.000 A 
ATOM     16  C   UNL     1       7.345   4.495  17.182  0.00  0.00    +0.000 A 
ATOM     17  C   UNL     1       6.122   4.287  16.542  0.00  0.00    +0.000 A 
ATOM     18  C   UNL     1       4.971   4.911  17.032  0.00  0.00    +0.000 A 
BRANCH  17  19
ATOM     19  O   UNL     1       6.181   3.491  15.431  0.00  0.00    +0.000 OA
BRANCH  19  20
ATOM     20  C   UNL     1       6.137   4.176  14.190  0.00  0.00    +0.000 C 
ATOM     21  F   UNL     1       5.204   5.156  14.261  0.00  0.00    +0.000 F 
ATOM     22  F   UNL     1       7.336   4.790  14.027  0.00  0.00    +0.000 F 
ENDBRANCH  19  20
ENDBRANCH  17  19
ENDBRANCH  12  13
ENDBRANCH   1  12
TORSDOF 7
ENDMDL
