MODEL 1
REMARK VINA RESULT:      -8.9      0.000      0.000
REMARK  Name = 
REMARK  3 active torsions:
REMARK  status: ('A' for Active; 'I' for Inactive)
REMARK    1  A    between atoms: C_1  and  C_2
REMARK    2  A    between atoms: N_11  and  C_12
REMARK    3  A    between atoms: C_15  and  C_16
REMARK                            x       y       z     vdW  Elec       q    Type
REMARK                         _______ _______ _______ _____ _____    ______ ____
ROOT
ATOM      1  C   UNL     1       1.381   2.749  21.518  0.00  0.00    +0.000 C 
ATOM      2  C   UNL     1       1.479   3.908  20.563  0.00  0.00    +0.000 C 
ATOM      3  O   UNL     1       0.756   4.894  20.718  0.00  0.00    +0.000 OA
ATOM      4  N   UNL     1       2.428   3.818  19.555  0.00  0.00    +0.000 N 
ATOM      5  C   UNL     1       2.622   4.966  18.675  0.00  0.00    +0.000 C 
ATOM      6  C   UNL     1       4.101   5.325  18.623  0.00  0.00    +0.000 C 
ATOM      7  C   UNL     1       4.982   4.138  18.151  0.00  0.00    +0.000 C 
ATOM      8  C   UNL     1       4.697   3.731  16.680  0.00  0.00    +0.000 C 
ATOM      9  C   UNL     1       5.058   4.841  15.696  0.00  0.00    +0.000 C 
ATOM     10  C   UNL     1       6.507   5.302  15.867  0.00  0.00    +0.000 C 
ATOM     11  N   UNL     1       6.761   5.607  17.277  0.00  0.00    +0.000 N 
ATOM     12  C   UNL     1       6.477   4.533  18.238  0.00  0.00    +0.000 C 
ATOM     13  C   UNL     1       4.698   2.942  19.096  0.00  0.00    +0.000 C 
ATOM     14  C   UNL     1       3.204   2.623  19.216  0.00  0.00    +0.000 C 
ENDROOT
BRANCH  11  15
ATOM     15  C   UNL     1       7.378   6.782  17.666  0.00  0.00    +0.000 A 
ATOM     16  C   UNL     1       8.249   6.824  18.762  0.00  0.00    +0.000 A 
ATOM     17  C   UNL     1       8.832   8.017  19.207  0.00  0.00    +0.000 A 
ATOM     18  C   UNL     1       8.597   9.238  18.561  0.00  0.00    +0.000 A 
ATOM     19  C   UNL     1       7.740   9.201  17.453  0.00  0.00    +0.000 A 
ATOM     20  C   UNL     1       7.144   8.003  17.024  0.00  0.00    +0.000 A 
BRANCH  18  21
ATOM     21  C   UNL     1       9.221  10.491  19.042  0.00  0.00    +0.000 A 
ATOM     22  C   UNL     1       9.684  11.467  18.139  0.00  0.00    +0.000 A 
ATOM     23  C   UNL     1      10.308  12.637  18.580  0.00  0.00    +0.000 A 
ATOM     24  C   UNL     1      10.469  12.867  19.941  0.00  0.00    +0.000 A 
ATOM     25  C   UNL     1      10.006  11.929  20.859  0.00  0.00    +0.000 A 
ATOM     26  C   UNL     1       9.393  10.753  20.414  0.00  0.00    +0.000 A 
ENDBRANCH  18  21
ENDBRANCH  11  15
TORSDOF 2
ENDMDL
MODEL 2
REMARK VINA RESULT:      -8.2      4.868      7.081
REMARK  Name = 
REMARK  3 active torsions:
REMARK  status: ('A' for Active; 'I' for Inactive)
REMARK    1  A    between atoms: C_1  and  C_2
REMARK    2  A    between atoms: N_11  and  C_12
REMARK    3  A    between atoms: C_15  and  C_16
REMARK                            x       y       z     vdW  Elec       q    Type
REMARK                         _______ _______ _______ _____ _____    ______ ____
ROOT
ATOM      1  C   UNL     1       6.770   3.849  12.799  0.00  0.00    +0.000 C 
ATOM      2  C   UNL     1       7.062   4.766  13.957  0.00  0.00    +0.000 C 
ATOM      3  O   UNL     1       7.837   5.712  13.810  0.00  0.00    +0.000 OA
ATOM      4  N   UNL     1       6.396   4.511  15.146  0.00  0.00    +0.000 N 
ATOM      5  C   UNL     1       6.573   5.440  16.257  0.00  0.00    +0.000 C 
ATOM      6  C   UNL     1       5.213   5.873  16.785  0.00  0.00    +0.000 C 
ATOM      7  C   UNL     1       4.341   4.669  17.232  0.00  0.00    +0.000 C 
ATOM      8  C   UNL     1       4.938   3.922  18.456  0.00  0.00    +0.000 C 
ATOM      9  C   UNL     1       4.978   4.802  19.703  0.00  0.00    +0.000 C 
ATOM     10  C   UNL     1       3.600   5.382  20.032  0.00  0.00    +0.000 C 
ATOM     11  N   UNL     1       3.036   6.014  18.838  0.00  0.00    +0.000 N 
ATOM     12  C   UNL     1       2.934   5.169  17.640  0.00  0.00    +0.000 C 
ATOM     13  C   UNL     1       4.227   3.702  16.025  0.00  0.00    +0.000 C 
ATOM     14  C   UNL     1       5.591   3.323  15.438  0.00  0.00    +0.000 C 
ENDROOT
BRANCH  11  15
ATOM     15  C   UNL     1       2.489   7.284  18.876  0.00  0.00    +0.000 A 
ATOM     16  C   UNL     1       1.862   7.777  20.027  0.00  0.00    +0.000 A 
ATOM     17  C   UNL     1       1.249   9.036  20.062  0.00  0.00    +0.000 A 
ATOM     18  C   UNL     1       1.253   9.888  18.950  0.00  0.00    +0.000 A 
ATOM     19  C   UNL     1       1.893   9.409  17.800  0.00  0.00    +0.000 A 
ATOM     20  C   UNL     1       2.490   8.137  17.766  0.00  0.00    +0.000 A 
BRANCH  18  21
ATOM     21  C   UNL     1       0.601  11.216  19.001  0.00  0.00    +0.000 A 
ATOM     22  C   UNL     1      -0.761  11.346  19.334  0.00  0.00    +0.000 A 
ATOM     23  C   UNL     1      -1.397  12.591  19.348  0.00  0.00    +0.000 A 
ATOM     24  C   UNL     1      -0.678  13.741  19.045  0.00  0.00    +0.000 A 
ATOM     25  C   UNL     1       0.674  13.647  18.728  0.00  0.00    +0.000 A 
ATOM     26  C   UNL     1       1.304  12.398  18.702  0.00  0.00    +0.000 A 
ENDBRANCH  18  21
ENDBRANCH  11  15
TORSDOF 2
ENDMDL
MODEL 3
REMARK VINA RESULT:      -8.2      6.645      9.483
REMARK  Name = 
REMARK  3 active torsions:
REMARK  status: ('A' for Active; 'I' for Inactive)
REMARK    1  A    between atoms: C_1  and  C_2
REMARK    2  A    between atoms: N_11  and  C_12
REMARK    3  A    between atoms: C_15  and  C_16
REMARK                            x       y       z     vdW  Elec       q    Type
REMARK                         _______ _______ _______ _____ _____    ______ ____
ROOT
ATOM      1  C   UNL     1      -5.069  12.857  22.458  0.00  0.00    +0.000 C 
ATOM      2  C   UNL     1      -3.617  12.669  22.808  0.00  0.00    +0.000 C 
ATOM      3  O   UNL     1      -3.293  12.431  23.973  0.00  0.00    +0.000 OA
ATOM      4  N   UNL     1      -2.702  12.739  21.768  0.00  0.00    +0.000 N 
ATOM      5  C   UNL     1      -1.299  12.458  22.053  0.00  0.00    +0.000 C 
ATOM      6  C   UNL     1      -0.777  11.417  21.073  0.00  0.00    +0.000 C 
ATOM      7  C   UNL     1      -0.941  11.860  19.594  0.00  0.00    +0.000 C 
ATOM      8  C   UNL     1      -0.072  13.097  19.243  0.00  0.00    +0.000 C 
ATOM      9  C   UNL     1       1.422  12.801  19.350  0.00  0.00    +0.000 C 
ATOM     10  C   UNL     1       1.822  11.590  18.504  0.00  0.00    +0.000 C 
ATOM     11  N   UNL     1       0.936  10.464  18.808  0.00  0.00    +0.000 N 
ATOM     12  C   UNL     1      -0.504  10.709  18.656  0.00  0.00    +0.000 C 
ATOM     13  C   UNL     1      -2.440  12.184  19.369  0.00  0.00    +0.000 C 
ATOM     14  C   UNL     1      -2.995  13.173  20.400  0.00  0.00    +0.000 C 
ENDROOT
BRANCH  11  15
ATOM     15  C   UNL     1       1.431   9.201  19.074  0.00  0.00    +0.000 A 
ATOM     16  C   UNL     1       2.071   8.442  18.088  0.00  0.00    +0.000 A 
ATOM     17  C   UNL     1       2.522   7.137  18.325  0.00  0.00    +0.000 A 
ATOM     18  C   UNL     1       2.381   6.525  19.577  0.00  0.00    +0.000 A 
ATOM     19  C   UNL     1       1.756   7.284  20.575  0.00  0.00    +0.000 A 
ATOM     20  C   UNL     1       1.289   8.586  20.324  0.00  0.00    +0.000 A 
BRANCH  18  21
ATOM     21  C   UNL     1       2.862   5.145  19.813  0.00  0.00    +0.000 A 
ATOM     22  C   UNL     1       2.198   4.286  20.710  0.00  0.00    +0.000 A 
ATOM     23  C   UNL     1       2.665   2.995  20.970  0.00  0.00    +0.000 A 
ATOM     24  C   UNL     1       3.802   2.524  20.324  0.00  0.00    +0.000 A 
ATOM     25  C   UNL     1       4.470   3.343  19.418  0.00  0.00    +0.000 A 
ATOM     26  C   UNL     1       4.008   4.640  19.171  0.00  0.00    +0.000 A 
ENDBRANCH  18  21
ENDBRANCH  11  15
TORSDOF 2
ENDMDL
MODEL 4
REMARK VINA RESULT:      -8.1      4.813      7.053
REMARK  Name = 
REMARK  3 active torsions:
REMARK  status: ('A' for Active; 'I' for Inactive)
REMARK    1  A    between atoms: C_1  and  C_2
REMARK    2  A    between atoms: N_11  and  C_12
REMARK    3  A    between atoms: C_15  and  C_16
REMARK                            x       y       z     vdW  Elec       q    Type
REMARK                         _______ _______ _______ _____ _____    ______ ____
ROOT
ATOM      1  C   UNL     1       7.081   3.936  12.777  0.00  0.00    +0.000 C 
ATOM      2  C   UNL     1       7.304   4.877  13.930  0.00  0.00    +0.000 C 
ATOM      3  O   UNL     1       8.027   5.864  13.786  0.00  0.00    +0.000 OA
ATOM      4  N   UNL     1       6.637   4.595  15.113  0.00  0.00    +0.000 N 
ATOM      5  C   UNL     1       6.746   5.541  16.218  0.00  0.00    +0.000 C 
ATOM      6  C   UNL     1       5.356   5.901  16.723  0.00  0.00    +0.000 C 
ATOM      7  C   UNL     1       4.546   4.653  17.169  0.00  0.00    +0.000 C 
ATOM      8  C   UNL     1       5.167   3.951  18.407  0.00  0.00    +0.000 C 
ATOM      9  C   UNL     1       5.140   4.842  19.647  0.00  0.00    +0.000 C 
ATOM     10  C   UNL     1       3.728   5.345  19.952  0.00  0.00    +0.000 C 
ATOM     11  N   UNL     1       3.145   5.935  18.744  0.00  0.00    +0.000 N 
ATOM     12  C   UNL     1       3.108   5.076  17.553  0.00  0.00    +0.000 C 
ATOM     13  C   UNL     1       4.505   3.671  15.969  0.00  0.00    +0.000 C 
ATOM     14  C   UNL     1       5.896   3.365  15.404  0.00  0.00    +0.000 C 
ENDROOT
BRANCH  11  15
ATOM     15  C   UNL     1       2.528   7.172  18.764  0.00  0.00    +0.000 A 
ATOM     16  C   UNL     1       2.493   7.992  17.630  0.00  0.00    +0.000 A 
ATOM     17  C   UNL     1       1.926   9.273  17.652  0.00  0.00    +0.000 A 
ATOM     18  C   UNL     1       1.336   9.798  18.808  0.00  0.00    +0.000 A 
ATOM     19  C   UNL     1       1.352   8.977  19.944  0.00  0.00    +0.000 A 
ATOM     20  C   UNL     1       1.939   7.700  19.920  0.00  0.00    +0.000 A 
BRANCH  18  21
ATOM     21  C   UNL     1       0.741  11.153  18.817  0.00  0.00    +0.000 A 
ATOM     22  C   UNL     1       1.543  12.299  18.974  0.00  0.00    +0.000 A 
ATOM     23  C   UNL     1       0.989  13.582  19.022  0.00  0.00    +0.000 A 
ATOM     24  C   UNL     1      -0.385  13.750  18.896  0.00  0.00    +0.000 A 
ATOM     25  C   UNL     1      -1.203  12.637  18.722  0.00  0.00    +0.000 A 
ATOM     26  C   UNL     1      -0.646  11.354  18.688  0.00  0.00    +0.000 A 
ENDBRANCH  18  21
ENDBRANCH  11  15
TORSDOF 2
ENDMDL
MODEL 5
REMARK VINA RESULT:      -8.1      7.004      9.743
REMARK  Name = 
REMARK  3 active torsions:
REMARK  status: ('A' for Active; 'I' for Inactive)
REMARK    1  A    between atoms: C_1  and  C_2
REMARK    2  A    between atoms: N_11  and  C_12
REMARK    3  A    between atoms: C_15  and  C_16
REMARK                            x       y       z     vdW  Elec       q    Type
REMARK                         _______ _______ _______ _____ _____    ______ ____
ROOT
ATOM      1  C   UNL     1      -5.654  12.811  22.652  0.00  0.00    +0.000 C 
ATOM      2  C   UNL     1      -4.226  12.622  23.090  0.00  0.00    +0.000 C 
ATOM      3  O   UNL     1      -3.980  12.291  24.251  0.00  0.00    +0.000 OA
ATOM      4  N   UNL     1      -3.242  12.799  22.129  0.00  0.00    +0.000 N 
ATOM      5  C   UNL     1      -1.856  12.522  22.491  0.00  0.00    +0.000 C 
ATOM      6  C   UNL     1      -1.239  11.578  21.468  0.00  0.00    +0.000 C 
ATOM      7  C   UNL     1      -1.309  12.143  20.024  0.00  0.00    +0.000 C 
ATOM      8  C   UNL     1      -0.449  13.423  19.841  0.00  0.00    +0.000 C 
ATOM      9  C   UNL     1       1.041  13.147  20.032  0.00  0.00    +0.000 C 
ATOM     10  C   UNL     1       1.530  12.022  19.119  0.00  0.00    +0.000 C 
ATOM     11  N   UNL     1       0.654  10.857  19.262  0.00  0.00    +0.000 N 
ATOM     12  C   UNL     1      -0.778  11.086  19.026  0.00  0.00    +0.000 C 
ATOM     13  C   UNL     1      -2.797  12.456  19.717  0.00  0.00    +0.000 C 
ATOM     14  C   UNL     1      -3.448  13.342  20.785  0.00  0.00    +0.000 C 
ENDROOT
BRANCH  11  15
ATOM     15  C   UNL     1       1.161   9.585  19.457  0.00  0.00    +0.000 A 
ATOM     16  C   UNL     1       1.831   8.899  18.436  0.00  0.00    +0.000 A 
ATOM     17  C   UNL     1       2.295   7.588  18.598  0.00  0.00    +0.000 A 
ATOM     18  C   UNL     1       2.138   6.894  19.805  0.00  0.00    +0.000 A 
ATOM     19  C   UNL     1       1.484   7.580  20.837  0.00  0.00    +0.000 A 
ATOM     20  C   UNL     1       1.004   8.889  20.661  0.00  0.00    +0.000 A 
BRANCH  18  21
ATOM     21  C   UNL     1       2.634   5.508  19.962  0.00  0.00    +0.000 A 
ATOM     22  C   UNL     1       3.752   5.050  19.241  0.00  0.00    +0.000 A 
ATOM     23  C   UNL     1       4.206   3.732  19.352  0.00  0.00    +0.000 A 
ATOM     24  C   UNL     1       3.560   2.844  20.203  0.00  0.00    +0.000 A 
ATOM     25  C   UNL     1       2.461   3.273  20.943  0.00  0.00    +0.000 A 
ATOM     26  C   UNL     1       2.002   4.589  20.819  0.00  0.00    +0.000 A 
ENDBRANCH  18  21
ENDBRANCH  11  15
TORSDOF 2
ENDMDL
MODEL 6
REMARK VINA RESULT:      -7.9      7.014      9.606
REMARK  Name = 
REMARK  3 active torsions:
REMARK  status: ('A' for Active; 'I' for Inactive)
REMARK    1  A    between atoms: C_1  and  C_2
REMARK    2  A    between atoms: N_11  and  C_12
REMARK    3  A    between atoms: C_15  and  C_16
REMARK                            x       y       z     vdW  Elec       q    Type
REMARK                         _______ _______ _______ _____ _____    ______ ____
ROOT
ATOM      1  C   UNL     1      -5.302  12.931  22.657  0.00  0.00    +0.000 C 
ATOM      2  C   UNL     1      -3.908  12.527  23.057  0.00  0.00    +0.000 C 
ATOM      3  O   UNL     1      -3.725  11.913  24.109  0.00  0.00    +0.000 OA
ATOM      4  N   UNL     1      -2.882  12.843  22.178  0.00  0.00    +0.000 N 
ATOM      5  C   UNL     1      -1.534  12.375  22.482  0.00  0.00    +0.000 C 
ATOM      6  C   UNL     1      -0.959  11.651  21.273  0.00  0.00    +0.000 C 
ATOM      7  C   UNL     1      -0.939  12.544  20.002  0.00  0.00    +0.000 C 
ATOM      8  C   UNL     1       0.023  13.755  20.140  0.00  0.00    +0.000 C 
ATOM      9  C   UNL     1       1.480  13.320  20.280  0.00  0.00    +0.000 C 
ATOM     10  C   UNL     1       1.910  12.405  19.132  0.00  0.00    +0.000 C 
ATOM     11  N   UNL     1       0.943  11.315  18.983  0.00  0.00    +0.000 N 
ATOM     12  C   UNL     1      -0.459  11.711  18.789  0.00  0.00    +0.000 C 
ATOM     13  C   UNL     1      -2.387  13.042  19.760  0.00  0.00    +0.000 C 
ATOM     14  C   UNL     1      -3.002  13.703  20.998  0.00  0.00    +0.000 C 
ENDROOT
BRANCH  11  15
ATOM     15  C   UNL     1       1.344   9.996  18.877  0.00  0.00    +0.000 A 
ATOM     16  C   UNL     1       1.280   9.121  19.968  0.00  0.00    +0.000 A 
ATOM     17  C   UNL     1       1.740   7.800  19.894  0.00  0.00    +0.000 A 
ATOM     18  C   UNL     1       2.268   7.269  18.710  0.00  0.00    +0.000 A 
ATOM     19  C   UNL     1       2.320   8.134  17.609  0.00  0.00    +0.000 A 
ATOM     20  C   UNL     1       1.874   9.464  17.696  0.00  0.00    +0.000 A 
BRANCH  18  21
ATOM     21  C   UNL     1       2.751   5.872  18.646  0.00  0.00    +0.000 A 
ATOM     22  C   UNL     1       2.064   4.899  17.895  0.00  0.00    +0.000 A 
ATOM     23  C   UNL     1       2.488   3.567  17.858  0.00  0.00    +0.000 A 
ATOM     24  C   UNL     1       3.624   3.180  18.560  0.00  0.00    +0.000 A 
ATOM     25  C   UNL     1       4.334   4.123  19.297  0.00  0.00    +0.000 A 
ATOM     26  C   UNL     1       3.899   5.452  19.343  0.00  0.00    +0.000 A 
ENDBRANCH  18  21
ENDBRANCH  11  15
TORSDOF 2
ENDMDL
MODEL 7
REMARK VINA RESULT:      -7.8      7.142      9.839
REMARK  Name = 
REMARK  3 active torsions:
REMARK  status: ('A' for Active; 'I' for Inactive)
REMARK    1  A    between atoms: C_1  and  C_2
REMARK    2  A    between atoms: N_11  and  C_12
REMARK    3  A    between atoms: C_15  and  C_16
REMARK                            x       y       z     vdW  Elec       q    Type
REMARK                         _______ _______ _______ _____ _____    ______ ____
ROOT
ATOM      1  C   UNL     1      -5.630  13.043  22.825  0.00  0.00    +0.000 C 
ATOM      2  C   UNL     1      -4.267  12.641  23.321  0.00  0.00    +0.000 C 
ATOM      3  O   UNL     1      -4.152  12.082  24.413  0.00  0.00    +0.000 OA
ATOM      4  N   UNL     1      -3.190  12.894  22.485  0.00  0.00    +0.000 N 
ATOM      5  C   UNL     1      -1.869  12.423  22.887  0.00  0.00    +0.000 C 
ATOM      6  C   UNL     1      -1.242  11.627  21.751  0.00  0.00    +0.000 C 
ATOM      7  C   UNL     1      -1.137  12.449  20.438  0.00  0.00    +0.000 C 
ATOM      8  C   UNL     1      -0.163  13.652  20.564  0.00  0.00    +0.000 C 
ATOM      9  C   UNL     1       1.276  13.203  20.807  0.00  0.00    +0.000 C 
ATOM     10  C   UNL     1       1.752  12.221  19.734  0.00  0.00    +0.000 C 
ATOM     11  N   UNL     1       0.775  11.140  19.591  0.00  0.00    +0.000 N 
ATOM     12  C   UNL     1      -0.607  11.545  19.299  0.00  0.00    +0.000 C 
ATOM     13  C   UNL     1      -2.561  12.955  20.090  0.00  0.00    +0.000 C 
ATOM     14  C   UNL     1      -3.231  13.690  21.256  0.00  0.00    +0.000 C 
ENDROOT
BRANCH  11  15
ATOM     15  C   UNL     1       1.157   9.811  19.577  0.00  0.00    +0.000 A 
ATOM     16  C   UNL     1       1.022   8.998  20.709  0.00  0.00    +0.000 A 
ATOM     17  C   UNL     1       1.462   7.668  20.730  0.00  0.00    +0.000 A 
ATOM     18  C   UNL     1       2.041   7.066  19.605  0.00  0.00    +0.000 A 
ATOM     19  C   UNL     1       2.165   7.868  18.463  0.00  0.00    +0.000 A 
ATOM     20  C   UNL     1       1.738   9.207  18.455  0.00  0.00    +0.000 A 
BRANCH  18  21
ATOM     21  C   UNL     1       2.502   5.660  19.642  0.00  0.00    +0.000 A 
ATOM     22  C   UNL     1       3.445   5.179  18.714  0.00  0.00    +0.000 A 
ATOM     23  C   UNL     1       3.859   3.844  18.715  0.00  0.00    +0.000 A 
ATOM     24  C   UNL     1       3.351   2.959  19.658  0.00  0.00    +0.000 A 
ATOM     25  C   UNL     1       2.429   3.409  20.600  0.00  0.00    +0.000 A 
ATOM     26  C   UNL     1       2.007   4.743  20.588  0.00  0.00    +0.000 A 
ENDBRANCH  18  21
ENDBRANCH  11  15
TORSDOF 2
ENDMDL
MODEL 8
REMARK VINA RESULT:      -7.8      6.336      9.902
REMARK  Name = 
REMARK  3 active torsions:
REMARK  status: ('A' for Active; 'I' for Inactive)
REMARK    1  A    between atoms: C_1  and  C_2
REMARK    2  A    between atoms: N_11  and  C_12
REMARK    3  A    between atoms: C_15  and  C_16
REMARK                            x       y       z     vdW  Elec       q    Type
REMARK                         _______ _______ _______ _____ _____    ______ ____
ROOT
ATOM      1  C   UNL     1       4.497  16.838  19.675  0.00  0.00    +0.000 C 
ATOM      2  C   UNL     1       3.919  15.906  18.643  0.00  0.00    +0.000 C 
ATOM      3  O   UNL     1       4.463  15.796  17.543  0.00  0.00    +0.000 OA
ATOM      4  N   UNL     1       2.798  15.176  19.008  0.00  0.00    +0.000 N 
ATOM      5  C   UNL     1       2.274  14.187  18.072  0.00  0.00    +0.000 C 
ATOM      6  C   UNL     1       2.107  12.850  18.780  0.00  0.00    +0.000 C 
ATOM      7  C   UNL     1       1.180  12.951  20.022  0.00  0.00    +0.000 C 
ATOM      8  C   UNL     1      -0.285  13.302  19.647  0.00  0.00    +0.000 C 
ATOM      9  C   UNL     1      -0.944  12.206  18.812  0.00  0.00    +0.000 C 
ATOM     10  C   UNL     1      -0.866  10.844  19.504  0.00  0.00    +0.000 C 
ATOM     11  N   UNL     1       0.516  10.577  19.909  0.00  0.00    +0.000 N 
ATOM     12  C   UNL     1       1.152  11.590  20.761  0.00  0.00    +0.000 C 
ATOM     13  C   UNL     1       1.766  14.044  20.953  0.00  0.00    +0.000 C 
ATOM     14  C   UNL     1       2.012  15.371  20.228  0.00  0.00    +0.000 C 
ENDROOT
BRANCH  11  15
ATOM     15  C   UNL     1       1.135   9.371  19.634  0.00  0.00    +0.000 A 
ATOM     16  C   UNL     1       1.623   9.072  18.356  0.00  0.00    +0.000 A 
ATOM     17  C   UNL     1       2.196   7.832  18.047  0.00  0.00    +0.000 A 
ATOM     18  C   UNL     1       2.337   6.825  19.010  0.00  0.00    +0.000 A 
ATOM     19  C   UNL     1       1.865   7.122  20.296  0.00  0.00    +0.000 A 
ATOM     20  C   UNL     1       1.275   8.362  20.594  0.00  0.00    +0.000 A 
BRANCH  18  21
ATOM     21  C   UNL     1       2.943   5.519  18.669  0.00  0.00    +0.000 A 
ATOM     22  C   UNL     1       2.307   4.630  17.781  0.00  0.00    +0.000 A 
ATOM     23  C   UNL     1       2.851   3.378  17.481  0.00  0.00    +0.000 A 
ATOM     24  C   UNL     1       4.058   2.991  18.050  0.00  0.00    +0.000 A 
ATOM     25  C   UNL     1       4.720   3.855  18.918  0.00  0.00    +0.000 A 
ATOM     26  C   UNL     1       4.166   5.101  19.227  0.00  0.00    +0.000 A 
ENDBRANCH  18  21
ENDBRANCH  11  15
TORSDOF 2
ENDMDL
MODEL 9
REMARK VINA RESULT:      -7.8      6.565      9.899
REMARK  Name = 
REMARK  3 active torsions:
REMARK  status: ('A' for Active; 'I' for Inactive)
REMARK    1  A    between atoms: C_1  and  C_2
REMARK    2  A    between atoms: N_11  and  C_12
REMARK    3  A    between atoms: C_15  and  C_16
REMARK                            x       y       z     vdW  Elec       q    Type
REMARK                         _______ _______ _______ _____ _____    ______ ____
ROOT
ATOM      1  C   UNL     1       3.790  17.165  19.794  0.00  0.00    +0.000 C 
ATOM      2  C   UNL     1       3.154  16.260  18.772  0.00  0.00    +0.000 C 
ATOM      3  O   UNL     1       3.539  16.291  17.602  0.00  0.00    +0.000 OA
ATOM      4  N   UNL     1       2.169  15.394  19.221  0.00  0.00    +0.000 N 
ATOM      5  C   UNL     1       1.605  14.431  18.281  0.00  0.00    +0.000 C 
ATOM      6  C   UNL     1       1.664  13.034  18.882  0.00  0.00    +0.000 C 
ATOM      7  C   UNL     1       0.925  12.944  20.245  0.00  0.00    +0.000 C 
ATOM      8  C   UNL     1      -0.605  13.171  20.109  0.00  0.00    +0.000 C 
ATOM      9  C   UNL     1      -1.278  12.081  19.278  0.00  0.00    +0.000 C 
ATOM     10  C   UNL     1      -0.977  10.684  19.826  0.00  0.00    +0.000 C 
ATOM     11  N   UNL     1       0.468  10.530  20.010  0.00  0.00    +0.000 N 
ATOM     12  C   UNL     1       1.128  11.535  20.854  0.00  0.00    +0.000 C 
ATOM     13  C   UNL     1       1.539  14.016  21.180  0.00  0.00    +0.000 C 
ATOM     14  C   UNL     1       1.555  15.413  20.551  0.00  0.00    +0.000 C 
ENDROOT
BRANCH  11  15
ATOM     15  C   UNL     1       1.146   9.418  19.544  0.00  0.00    +0.000 A 
ATOM     16  C   UNL     1       1.505   9.290  18.198  0.00  0.00    +0.000 A 
ATOM     17  C   UNL     1       2.137   8.143  17.699  0.00  0.00    +0.000 A 
ATOM     18  C   UNL     1       2.469   7.065  18.530  0.00  0.00    +0.000 A 
ATOM     19  C   UNL     1       2.127   7.192  19.882  0.00  0.00    +0.000 A 
ATOM     20  C   UNL     1       1.477   8.338  20.372  0.00  0.00    +0.000 A 
BRANCH  18  21
ATOM     21  C   UNL     1       3.135   5.859  17.989  0.00  0.00    +0.000 A 
ATOM     22  C   UNL     1       4.486   5.891  17.593  0.00  0.00    +0.000 A 
ATOM     23  C   UNL     1       5.116   4.769  17.045  0.00  0.00    +0.000 A 
ATOM     24  C   UNL     1       4.411   3.580  16.897  0.00  0.00    +0.000 A 
ATOM     25  C   UNL     1       3.079   3.513  17.296  0.00  0.00    +0.000 A 
ATOM     26  C   UNL     1       2.449   4.641  17.831  0.00  0.00    +0.000 A 
ENDBRANCH  18  21
ENDBRANCH  11  15
TORSDOF 2
ENDMDL
