MODEL 1
REMARK VINA RESULT:      -8.1      0.000      0.000
REMARK  Name = 
REMARK  10 active torsions:
REMARK  status: ('A' for Active; 'I' for Inactive)
REMARK    1  A    between atoms: C_1  and  C_2
REMARK    2  A    between atoms: C_2  and  C_3
REMARK    3  A    between atoms: C_3  and  C_4
REMARK    4  A    between atoms: C_4  and  C_5
REMARK    5  A    between atoms: C_5  and  C_6
REMARK    6  A    between atoms: C_6  and  C_7
REMARK    7  A    between atoms: C_7  and  C_8
REMARK    8  A    between atoms: C_8  and  C_9
REMARK    9  A    between atoms: C_17  and  C_18
REMARK   10  A    between atoms: C_22  and  C_23
REMARK                            x       y       z     vdW  Elec       q    Type
REMARK                         _______ _______ _______ _____ _____    ______ ____
ROOT
ATOM      1  C   UNL     1       2.970   6.998  18.249  0.00  0.00    +0.000 C 
ATOM      2  C   UNL     1       1.567   6.037  18.875  0.00  0.00    +0.000 C 
ATOM      3  C   UNL     1       1.843   4.212  19.181  0.00  0.00    +0.000 C 
ATOM      4  C   UNL     1       1.274   2.974  19.334  0.00  0.00    +0.000 C 
ATOM      5  C   UNL     1       1.396   3.266  17.752  0.00  0.00    +0.000 C 
ATOM      6  C   UNL     1       2.632   4.679  17.543  0.00  0.00    +0.000 C 
ATOM      7  C   UNL     1       3.478   4.912  19.469  0.00  0.00    +0.000 C 
ATOM      8  O   UNL     1       4.234   5.685  20.050  0.00  0.00    +0.000 OA
ATOM      9  C   UNL     1       2.671   3.362  20.439  0.00  0.00    +0.000 C 
ATOM     10  C   UNL     1       2.346   3.732  21.914  0.00  0.00    +0.000 C 
ATOM     11  C   UNL     1       3.356   2.008  20.457  0.00  0.00    +0.000 C 
ATOM     12  C   UNL     1       4.435   2.399  19.563  0.00  0.00    +0.000 C 
ATOM     13  C   UNL     1       3.649   3.275  18.519  0.00  0.00    +0.000 C 
ATOM     14  C   UNL     1       4.928   4.473  17.736  0.00  0.00    +0.000 C 
ATOM     15  C   UNL     1       6.299   4.297  18.517  0.00  0.00    +0.000 C 
ATOM     16  C   UNL     1       5.375   3.893  16.306  0.00  0.00    +0.000 C 
ATOM     17  C   UNL     1       6.282   4.873  15.553  0.00  0.00    +0.000 C 
ATOM     18  C   UNL     1       5.514   6.121  15.168  0.00  0.00    +0.000 C 
ATOM     19  C   UNL     1       4.793   6.782  16.299  0.00  0.00    +0.000 C 
ATOM     20  C   UNL     1       4.391   6.191  17.446  0.00  0.00    +0.000 C 
ENDROOT
BRANCH   1  21
ATOM     21  C   UNL     1       2.279   8.154  17.414  0.00  0.00    +0.000 C 
BRANCH  21  22
ATOM     22  C   UNL     1       2.001   9.494  18.147  0.00  0.00    +0.000 C 
BRANCH  22  23
ATOM     23  C   UNL     1       0.535   9.823  18.473  0.00  0.00    +0.000 C 
BRANCH  23  24
ATOM     24  C   UNL     1       0.224   9.860  19.975  0.00  0.00    +0.000 C 
BRANCH  24  25
ATOM     25  C   UNL     1       1.293   9.136  20.809  0.00  0.00    +0.000 C 
BRANCH  25  26
ATOM     26  C   UNL     1       0.946   9.158  22.304  0.00  0.00    +0.000 C 
BRANCH  26  28
ATOM     27  C   UNL     1      -0.986  10.518  23.201  0.00  0.00    +0.000 C 
ATOM     28  C   UNL     1      -0.565   9.210  22.544  0.00  0.00    +0.000 C 
ENDBRANCH  26  28
ENDBRANCH  25  26
ENDBRANCH  24  25
ENDBRANCH  23  24
ENDBRANCH  22  23
ENDBRANCH  21  22
ENDBRANCH   1  21
TORSDOF 7
ENDMDL
MODEL 2
REMARK VINA RESULT:      -8.1      1.389      2.460
REMARK  Name = 
REMARK  10 active torsions:
REMARK  status: ('A' for Active; 'I' for Inactive)
REMARK    1  A    between atoms: C_1  and  C_2
REMARK    2  A    between atoms: C_2  and  C_3
REMARK    3  A    between atoms: C_3  and  C_4
REMARK    4  A    between atoms: C_4  and  C_5
REMARK    5  A    between atoms: C_5  and  C_6
REMARK    6  A    between atoms: C_6  and  C_7
REMARK    7  A    between atoms: C_7  and  C_8
REMARK    8  A    between atoms: C_8  and  C_9
REMARK    9  A    between atoms: C_17  and  C_18
REMARK   10  A    between atoms: C_22  and  C_23
REMARK                            x       y       z     vdW  Elec       q    Type
REMARK                         _______ _______ _______ _____ _____    ______ ____
ROOT
ATOM      1  C   UNL     1       2.927   7.052  18.268  0.00  0.00    +0.000 C 
ATOM      2  C   UNL     1       1.535   6.080  18.902  0.00  0.00    +0.000 C 
ATOM      3  C   UNL     1       1.822   4.254  19.190  0.00  0.00    +0.000 C 
ATOM      4  C   UNL     1       1.259   3.013  19.339  0.00  0.00    +0.000 C 
ATOM      5  C   UNL     1       1.363   3.317  17.758  0.00  0.00    +0.000 C 
ATOM      6  C   UNL     1       2.591   4.738  17.547  0.00  0.00    +0.000 C 
ATOM      7  C   UNL     1       3.457   4.959  19.466  0.00  0.00    +0.000 C 
ATOM      8  O   UNL     1       4.216   5.730  20.044  0.00  0.00    +0.000 OA
ATOM      9  C   UNL     1       2.667   3.397  20.432  0.00  0.00    +0.000 C 
ATOM     10  C   UNL     1       2.358   3.754  21.913  0.00  0.00    +0.000 C 
ATOM     11  C   UNL     1       3.357   2.046  20.430  0.00  0.00    +0.000 C 
ATOM     12  C   UNL     1       4.425   2.448  19.528  0.00  0.00    +0.000 C 
ATOM     13  C   UNL     1       3.624   3.329  18.500  0.00  0.00    +0.000 C 
ATOM     14  C   UNL     1       4.890   4.539  17.713  0.00  0.00    +0.000 C 
ATOM     15  C   UNL     1       6.270   4.362  18.477  0.00  0.00    +0.000 C 
ATOM     16  C   UNL     1       5.323   3.973  16.273  0.00  0.00    +0.000 C 
ATOM     17  C   UNL     1       6.217   4.963  15.519  0.00  0.00    +0.000 C 
ATOM     18  C   UNL     1       5.440   6.210  15.152  0.00  0.00    +0.000 C 
ATOM     19  C   UNL     1       4.729   6.860  16.296  0.00  0.00    +0.000 C 
ATOM     20  C   UNL     1       4.342   6.258  17.443  0.00  0.00    +0.000 C 
ENDROOT
BRANCH   1  21
ATOM     21  C   UNL     1       2.223   8.212  17.451  0.00  0.00    +0.000 C 
BRANCH  21  22
ATOM     22  C   UNL     1       2.100   9.597  18.142  0.00  0.00    +0.000 C 
BRANCH  22  23
ATOM     23  C   UNL     1       0.930   9.789  19.122  0.00  0.00    +0.000 C 
BRANCH  23  24
ATOM     24  C   UNL     1      -0.047  10.899  18.715  0.00  0.00    +0.000 C 
BRANCH  24  25
ATOM     25  C   UNL     1      -1.486  10.381  18.561  0.00  0.00    +0.000 C 
BRANCH  25  26
ATOM     26  C   UNL     1      -1.744   9.854  17.143  0.00  0.00    +0.000 C 
BRANCH  26  28
ATOM     27  C   UNL     1      -2.915  10.248  14.939  0.00  0.00    +0.000 C 
ATOM     28  C   UNL     1      -2.692  10.761  16.356  0.00  0.00    +0.000 C 
ENDBRANCH  26  28
ENDBRANCH  25  26
ENDBRANCH  24  25
ENDBRANCH  23  24
ENDBRANCH  22  23
ENDBRANCH  21  22
ENDBRANCH   1  21
TORSDOF 7
ENDMDL
MODEL 3
REMARK VINA RESULT:      -7.5      1.211      2.007
REMARK  Name = 
REMARK  10 active torsions:
REMARK  status: ('A' for Active; 'I' for Inactive)
REMARK    1  A    between atoms: C_1  and  C_2
REMARK    2  A    between atoms: C_2  and  C_3
REMARK    3  A    between atoms: C_3  and  C_4
REMARK    4  A    between atoms: C_4  and  C_5
REMARK    5  A    between atoms: C_5  and  C_6
REMARK    6  A    between atoms: C_6  and  C_7
REMARK    7  A    between atoms: C_7  and  C_8
REMARK    8  A    between atoms: C_8  and  C_9
REMARK    9  A    between atoms: C_17  and  C_18
REMARK   10  A    between atoms: C_22  and  C_23
REMARK                            x       y       z     vdW  Elec       q    Type
REMARK                         _______ _______ _______ _____ _____    ______ ____
ROOT
ATOM      1  C   UNL     1       3.015   7.091  18.288  0.00  0.00    +0.000 C 
ATOM      2  C   UNL     1       1.595   6.164  18.926  0.00  0.00    +0.000 C 
ATOM      3  C   UNL     1       1.818   4.325  19.192  0.00  0.00    +0.000 C 
ATOM      4  C   UNL     1       1.212   3.104  19.335  0.00  0.00    +0.000 C 
ATOM      5  C   UNL     1       1.310   3.421  17.756  0.00  0.00    +0.000 C 
ATOM      6  C   UNL     1       2.587   4.798  17.547  0.00  0.00    +0.000 C 
ATOM      7  C   UNL     1       3.481   4.967  19.458  0.00  0.00    +0.000 C 
ATOM      8  O   UNL     1       4.273   5.704  20.037  0.00  0.00    +0.000 OA
ATOM      9  C   UNL     1       2.643   3.425  20.417  0.00  0.00    +0.000 C 
ATOM     10  C   UNL     1       2.363   3.778  21.905  0.00  0.00    +0.000 C 
ATOM     11  C   UNL     1       3.284   2.050  20.395  0.00  0.00    +0.000 C 
ATOM     12  C   UNL     1       4.357   2.422  19.485  0.00  0.00    +0.000 C 
ATOM     13  C   UNL     1       3.578   3.343  18.475  0.00  0.00    +0.000 C 
ATOM     14  C   UNL     1       4.879   4.514  17.686  0.00  0.00    +0.000 C 
ATOM     15  C   UNL     1       6.260   4.279  18.434  0.00  0.00    +0.000 C 
ATOM     16  C   UNL     1       5.276   3.947  16.237  0.00  0.00    +0.000 C 
ATOM     17  C   UNL     1       6.199   4.911  15.483  0.00  0.00    +0.000 C 
ATOM     18  C   UNL     1       5.464   6.190  15.137  0.00  0.00    +0.000 C 
ATOM     19  C   UNL     1       4.789   6.853  16.295  0.00  0.00    +0.000 C 
ATOM     20  C   UNL     1       4.392   6.254  17.440  0.00  0.00    +0.000 C 
ENDROOT
BRANCH   1  21
ATOM     21  C   UNL     1       2.346   8.284  17.489  0.00  0.00    +0.000 C 
BRANCH  21  22
ATOM     22  C   UNL     1       1.838   9.497  18.315  0.00  0.00    +0.000 C 
BRANCH  22  23
ATOM     23  C   UNL     1       0.344   9.842  18.206  0.00  0.00    +0.000 C 
BRANCH  23  24
ATOM     24  C   UNL     1      -0.333  10.113  19.556  0.00  0.00    +0.000 C 
BRANCH  24  25
ATOM     25  C   UNL     1      -0.399  11.613  19.884  0.00  0.00    +0.000 C 
BRANCH  25  26
ATOM     26  C   UNL     1      -0.593  12.456  18.616  0.00  0.00    +0.000 C 
BRANCH  26  28
ATOM     27  C   UNL     1       1.784  13.276  18.362  0.00  0.00    +0.000 C 
ATOM     28  C   UNL     1       0.332  13.675  18.589  0.00  0.00    +0.000 C 
ENDBRANCH  26  28
ENDBRANCH  25  26
ENDBRANCH  24  25
ENDBRANCH  23  24
ENDBRANCH  22  23
ENDBRANCH  21  22
ENDBRANCH   1  21
TORSDOF 7
ENDMDL
MODEL 4
REMARK VINA RESULT:      -7.5      3.608      5.548
REMARK  Name = 
REMARK  10 active torsions:
REMARK  status: ('A' for Active; 'I' for Inactive)
REMARK    1  A    between atoms: C_1  and  C_2
REMARK    2  A    between atoms: C_2  and  C_3
REMARK    3  A    between atoms: C_3  and  C_4
REMARK    4  A    between atoms: C_4  and  C_5
REMARK    5  A    between atoms: C_5  and  C_6
REMARK    6  A    between atoms: C_6  and  C_7
REMARK    7  A    between atoms: C_7  and  C_8
REMARK    8  A    between atoms: C_8  and  C_9
REMARK    9  A    between atoms: C_17  and  C_18
REMARK   10  A    between atoms: C_22  and  C_23
REMARK                            x       y       z     vdW  Elec       q    Type
REMARK                         _______ _______ _______ _____ _____    ______ ____
ROOT
ATOM      1  C   UNL     1       6.754   5.266  18.711  0.00  0.00    +0.000 C 
ATOM      2  C   UNL     1       5.454   6.157  19.606  0.00  0.00    +0.000 C 
ATOM      3  C   UNL     1       3.683   5.831  19.099  0.00  0.00    +0.000 C 
ATOM      4  C   UNL     1       2.388   6.278  19.100  0.00  0.00    +0.000 C 
ATOM      5  C   UNL     1       3.157   7.005  17.882  0.00  0.00    +0.000 C 
ATOM      6  C   UNL     1       4.733   6.016  17.554  0.00  0.00    +0.000 C 
ATOM      7  C   UNL     1       4.496   4.267  18.723  0.00  0.00    +0.000 C 
ATOM      8  O   UNL     1       5.161   3.289  19.052  0.00  0.00    +0.000 OA
ATOM      9  C   UNL     1       2.625   4.494  19.388  0.00  0.00    +0.000 C 
ATOM     10  C   UNL     1       2.482   3.969  20.844  0.00  0.00    +0.000 C 
ATOM     11  C   UNL     1       1.445   3.957  18.600  0.00  0.00    +0.000 C 
ATOM     12  C   UNL     1       2.240   3.504  17.469  0.00  0.00    +0.000 C 
ATOM     13  C   UNL     1       3.265   4.690  17.337  0.00  0.00    +0.000 C 
ATOM     14  C   UNL     1       4.818   3.978  16.461  0.00  0.00    +0.000 C 
ATOM     15  C   UNL     1       4.618   2.409  16.318  0.00  0.00    +0.000 C 
ATOM     16  C   UNL     1       4.768   4.383  14.907  0.00  0.00    +0.000 C 
ATOM     17  C   UNL     1       6.051   3.978  14.173  0.00  0.00    +0.000 C 
ATOM     18  C   UNL     1       7.230   4.785  14.677  0.00  0.00    +0.000 C 
ATOM     19  C   UNL     1       7.407   4.768  16.162  0.00  0.00    +0.000 C 
ATOM     20  C   UNL     1       6.445   4.521  17.080  0.00  0.00    +0.000 C 
ENDROOT
BRANCH   1  21
ATOM     21  C   UNL     1       7.994   6.249  18.790  0.00  0.00    +0.000 C 
BRANCH  21  22
ATOM     22  C   UNL     1       7.886   7.594  18.021  0.00  0.00    +0.000 C 
BRANCH  22  23
ATOM     23  C   UNL     1       8.673   8.789  18.586  0.00  0.00    +0.000 C 
BRANCH  23  24
ATOM     24  C   UNL     1       8.357  10.123  17.899  0.00  0.00    +0.000 C 
BRANCH  24  25
ATOM     25  C   UNL     1       9.330  11.238  18.316  0.00  0.00    +0.000 C 
BRANCH  25  26
ATOM     26  C   UNL     1       9.616  11.197  19.823  0.00  0.00    +0.000 C 
BRANCH  26  28
ATOM     27  C   UNL     1      11.930  11.675  18.928  0.00  0.00    +0.000 C 
ATOM     28  C   UNL     1      11.028  11.687  20.155  0.00  0.00    +0.000 C 
ENDBRANCH  26  28
ENDBRANCH  25  26
ENDBRANCH  24  25
ENDBRANCH  23  24
ENDBRANCH  22  23
ENDBRANCH  21  22
ENDBRANCH   1  21
TORSDOF 7
ENDMDL
MODEL 5
REMARK VINA RESULT:      -7.5      1.389      1.943
REMARK  Name = 
REMARK  10 active torsions:
REMARK  status: ('A' for Active; 'I' for Inactive)
REMARK    1  A    between atoms: C_1  and  C_2
REMARK    2  A    between atoms: C_2  and  C_3
REMARK    3  A    between atoms: C_3  and  C_4
REMARK    4  A    between atoms: C_4  and  C_5
REMARK    5  A    between atoms: C_5  and  C_6
REMARK    6  A    between atoms: C_6  and  C_7
REMARK    7  A    between atoms: C_7  and  C_8
REMARK    8  A    between atoms: C_8  and  C_9
REMARK    9  A    between atoms: C_17  and  C_18
REMARK   10  A    between atoms: C_22  and  C_23
REMARK                            x       y       z     vdW  Elec       q    Type
REMARK                         _______ _______ _______ _____ _____    ______ ____
ROOT
ATOM      1  C   UNL     1       2.974   7.049  18.271  0.00  0.00    +0.000 C 
ATOM      2  C   UNL     1       1.569   6.095  18.904  0.00  0.00    +0.000 C 
ATOM      3  C   UNL     1       1.828   4.264  19.183  0.00  0.00    +0.000 C 
ATOM      4  C   UNL     1       1.248   3.031  19.328  0.00  0.00    +0.000 C 
ATOM      5  C   UNL     1       1.352   3.341  17.748  0.00  0.00    +0.000 C 
ATOM      6  C   UNL     1       2.601   4.743  17.540  0.00  0.00    +0.000 C 
ATOM      7  C   UNL     1       3.475   4.942  19.458  0.00  0.00    +0.000 C 
ATOM      8  O   UNL     1       4.247   5.699  20.039  0.00  0.00    +0.000 OA
ATOM      9  C   UNL     1       2.663   3.389  20.420  0.00  0.00    +0.000 C 
ATOM     10  C   UNL     1       2.363   3.744  21.903  0.00  0.00    +0.000 C 
ATOM     11  C   UNL     1       3.333   2.027  20.411  0.00  0.00    +0.000 C 
ATOM     12  C   UNL     1       4.405   2.417  19.508  0.00  0.00    +0.000 C 
ATOM     13  C   UNL     1       3.615   3.315  18.485  0.00  0.00    +0.000 C 
ATOM     14  C   UNL     1       4.897   4.509  17.700  0.00  0.00    +0.000 C 
ATOM     15  C   UNL     1       6.277   4.308  18.461  0.00  0.00    +0.000 C 
ATOM     16  C   UNL     1       5.319   3.942  16.257  0.00  0.00    +0.000 C 
ATOM     17  C   UNL     1       6.226   4.921  15.505  0.00  0.00    +0.000 C 
ATOM     18  C   UNL     1       5.468   6.183  15.145  0.00  0.00    +0.000 C 
ATOM     19  C   UNL     1       4.769   6.838  16.294  0.00  0.00    +0.000 C 
ATOM     20  C   UNL     1       4.375   6.237  17.439  0.00  0.00    +0.000 C 
ENDROOT
BRANCH   1  21
ATOM     21  C   UNL     1       2.286   8.223  17.460  0.00  0.00    +0.000 C 
BRANCH  21  22
ATOM     22  C   UNL     1       2.048   9.562  18.209  0.00  0.00    +0.000 C 
BRANCH  22  23
ATOM     23  C   UNL     1       0.904   9.596  19.236  0.00  0.00    +0.000 C 
BRANCH  23  24
ATOM     24  C   UNL     1      -0.092  10.742  19.022  0.00  0.00    +0.000 C 
BRANCH  24  25
ATOM     25  C   UNL     1      -1.192  10.377  18.012  0.00  0.00    +0.000 C 
BRANCH  25  26
ATOM     26  C   UNL     1      -2.085  11.585  17.694  0.00  0.00    +0.000 C 
BRANCH  26  28
ATOM     27  C   UNL     1      -3.322  12.446  19.723  0.00  0.00    +0.000 C 
ATOM     28  C   UNL     1      -3.393  11.558  18.488  0.00  0.00    +0.000 C 
ENDBRANCH  26  28
ENDBRANCH  25  26
ENDBRANCH  24  25
ENDBRANCH  23  24
ENDBRANCH  22  23
ENDBRANCH  21  22
ENDBRANCH   1  21
TORSDOF 7
ENDMDL
MODEL 6
REMARK VINA RESULT:      -7.4      0.772      1.008
REMARK  Name = 
REMARK  10 active torsions:
REMARK  status: ('A' for Active; 'I' for Inactive)
REMARK    1  A    between atoms: C_1  and  C_2
REMARK    2  A    between atoms: C_2  and  C_3
REMARK    3  A    between atoms: C_3  and  C_4
REMARK    4  A    between atoms: C_4  and  C_5
REMARK    5  A    between atoms: C_5  and  C_6
REMARK    6  A    between atoms: C_6  and  C_7
REMARK    7  A    between atoms: C_7  and  C_8
REMARK    8  A    between atoms: C_8  and  C_9
REMARK    9  A    between atoms: C_17  and  C_18
REMARK   10  A    between atoms: C_22  and  C_23
REMARK                            x       y       z     vdW  Elec       q    Type
REMARK                         _______ _______ _______ _____ _____    ______ ____
ROOT
ATOM      1  C   UNL     1       2.921   7.012  18.285  0.00  0.00    +0.000 C 
ATOM      2  C   UNL     1       1.529   6.033  18.907  0.00  0.00    +0.000 C 
ATOM      3  C   UNL     1       1.820   4.206  19.186  0.00  0.00    +0.000 C 
ATOM      4  C   UNL     1       1.261   2.963  19.326  0.00  0.00    +0.000 C 
ATOM      5  C   UNL     1       1.370   3.276  17.747  0.00  0.00    +0.000 C 
ATOM      6  C   UNL     1       2.594   4.701  17.549  0.00  0.00    +0.000 C 
ATOM      7  C   UNL     1       3.452   4.914  19.473  0.00  0.00    +0.000 C 
ATOM      8  O   UNL     1       4.206   5.685  20.059  0.00  0.00    +0.000 OA
ATOM      9  C   UNL     1       2.662   3.345  20.427  0.00  0.00    +0.000 C 
ATOM     10  C   UNL     1       2.346   3.693  21.909  0.00  0.00    +0.000 C 
ATOM     11  C   UNL     1       3.357   1.996  20.421  0.00  0.00    +0.000 C 
ATOM     12  C   UNL     1       4.427   2.406  19.526  0.00  0.00    +0.000 C 
ATOM     13  C   UNL     1       3.628   3.291  18.500  0.00  0.00    +0.000 C 
ATOM     14  C   UNL     1       4.893   4.509  17.724  0.00  0.00    +0.000 C 
ATOM     15  C   UNL     1       6.271   4.332  18.494  0.00  0.00    +0.000 C 
ATOM     16  C   UNL     1       5.334   3.952  16.283  0.00  0.00    +0.000 C 
ATOM     17  C   UNL     1       6.229   4.948  15.538  0.00  0.00    +0.000 C 
ATOM     18  C   UNL     1       5.450   6.196  15.175  0.00  0.00    +0.000 C 
ATOM     19  C   UNL     1       4.732   6.837  16.320  0.00  0.00    +0.000 C 
ATOM     20  C   UNL     1       4.341   6.227  17.462  0.00  0.00    +0.000 C 
ENDROOT
BRANCH   1  21
ATOM     21  C   UNL     1       2.216   8.175  17.471  0.00  0.00    +0.000 C 
BRANCH  21  22
ATOM     22  C   UNL     1       2.085   9.555  18.169  0.00  0.00    +0.000 C 
BRANCH  22  23
ATOM     23  C   UNL     1       0.805   9.810  18.983  0.00  0.00    +0.000 C 
BRANCH  23  24
ATOM     24  C   UNL     1       0.858   9.263  20.415  0.00  0.00    +0.000 C 
BRANCH  24  25
ATOM     25  C   UNL     1       0.351  10.282  21.447  0.00  0.00    +0.000 C 
BRANCH  25  26
ATOM     26  C   UNL     1      -0.729  11.195  20.850  0.00  0.00    +0.000 C 
BRANCH  26  28
ATOM     27  C   UNL     1      -1.358  12.334  23.016  0.00  0.00    +0.000 C 
ATOM     28  C   UNL     1      -0.836  12.525  21.598  0.00  0.00    +0.000 C 
ENDBRANCH  26  28
ENDBRANCH  25  26
ENDBRANCH  24  25
ENDBRANCH  23  24
ENDBRANCH  22  23
ENDBRANCH  21  22
ENDBRANCH   1  21
TORSDOF 7
ENDMDL
MODEL 7
REMARK VINA RESULT:      -7.3      0.798      1.004
REMARK  Name = 
REMARK  10 active torsions:
REMARK  status: ('A' for Active; 'I' for Inactive)
REMARK    1  A    between atoms: C_1  and  C_2
REMARK    2  A    between atoms: C_2  and  C_3
REMARK    3  A    between atoms: C_3  and  C_4
REMARK    4  A    between atoms: C_4  and  C_5
REMARK    5  A    between atoms: C_5  and  C_6
REMARK    6  A    between atoms: C_6  and  C_7
REMARK    7  A    between atoms: C_7  and  C_8
REMARK    8  A    between atoms: C_8  and  C_9
REMARK    9  A    between atoms: C_17  and  C_18
REMARK   10  A    between atoms: C_22  and  C_23
REMARK                            x       y       z     vdW  Elec       q    Type
REMARK                         _______ _______ _______ _____ _____    ______ ____
ROOT
ATOM      1  C   UNL     1       3.313   6.990  18.940  0.00  0.00    +0.000 C 
ATOM      2  C   UNL     1       1.830   6.120  19.512  0.00  0.00    +0.000 C 
ATOM      3  C   UNL     1       1.760   4.270  19.241  0.00  0.00    +0.000 C 
ATOM      4  C   UNL     1       0.972   3.154  19.141  0.00  0.00    +0.000 C 
ATOM      5  C   UNL     1       0.956   3.895  17.708  0.00  0.00    +0.000 C 
ATOM      6  C   UNL     1       2.421   5.088  17.685  0.00  0.00    +0.000 C 
ATOM      7  C   UNL     1       3.527   4.577  19.417  0.00  0.00    +0.000 C 
ATOM      8  O   UNL     1       4.492   5.002  20.046  0.00  0.00    +0.000 OA
ATOM      9  C   UNL     1       2.544   2.953  20.042  0.00  0.00    +0.000 C 
ATOM     10  C   UNL     1       2.487   2.897  21.595  0.00  0.00    +0.000 C 
ATOM     11  C   UNL     1       2.932   1.568  19.557  0.00  0.00    +0.000 C 
ATOM     12  C   UNL     1       3.951   2.038  18.631  0.00  0.00    +0.000 C 
ATOM     13  C   UNL     1       3.240   3.307  18.032  0.00  0.00    +0.000 C 
ATOM     14  C   UNL     1       4.632   4.468  17.399  0.00  0.00    +0.000 C 
ATOM     15  C   UNL     1       6.023   3.843  17.842  0.00  0.00    +0.000 C 
ATOM     16  C   UNL     1       4.771   4.294  15.808  0.00  0.00    +0.000 C 
ATOM     17  C   UNL     1       5.760   5.300  15.211  0.00  0.00    +0.000 C 
ATOM     18  C   UNL     1       5.224   6.711  15.333  0.00  0.00    +0.000 C 
ATOM     19  C   UNL     1       4.799   7.098  16.714  0.00  0.00    +0.000 C 
ATOM     20  C   UNL     1       4.428   6.254  17.703  0.00  0.00    +0.000 C 
ENDROOT
BRANCH   1  21
ATOM     21  C   UNL     1       2.778   8.442  18.599  0.00  0.00    +0.000 C 
BRANCH  21  22
ATOM     22  C   UNL     1       1.572   8.547  17.627  0.00  0.00    +0.000 C 
BRANCH  22  23
ATOM     23  C   UNL     1       0.462   9.546  17.994  0.00  0.00    +0.000 C 
BRANCH  23  24
ATOM     24  C   UNL     1       0.978  10.850  18.616  0.00  0.00    +0.000 C 
BRANCH  24  25
ATOM     25  C   UNL     1       0.865  10.849  20.149  0.00  0.00    +0.000 C 
BRANCH  25  26
ATOM     26  C   UNL     1      -0.175   9.830  20.634  0.00  0.00    +0.000 C 
BRANCH  26  28
ATOM     27  C   UNL     1      -0.103   9.411  23.125  0.00  0.00    +0.000 C 
ATOM     28  C   UNL     1       0.369   8.942  21.755  0.00  0.00    +0.000 C 
ENDBRANCH  26  28
ENDBRANCH  25  26
ENDBRANCH  24  25
ENDBRANCH  23  24
ENDBRANCH  22  23
ENDBRANCH  21  22
ENDBRANCH   1  21
TORSDOF 7
ENDMDL
MODEL 8
REMARK VINA RESULT:      -7.1      1.643      4.670
REMARK  Name = 
REMARK  10 active torsions:
REMARK  status: ('A' for Active; 'I' for Inactive)
REMARK    1  A    between atoms: C_1  and  C_2
REMARK    2  A    between atoms: C_2  and  C_3
REMARK    3  A    between atoms: C_3  and  C_4
REMARK    4  A    between atoms: C_4  and  C_5
REMARK    5  A    between atoms: C_5  and  C_6
REMARK    6  A    between atoms: C_6  and  C_7
REMARK    7  A    between atoms: C_7  and  C_8
REMARK    8  A    between atoms: C_8  and  C_9
REMARK    9  A    between atoms: C_17  and  C_18
REMARK   10  A    between atoms: C_22  and  C_23
REMARK                            x       y       z     vdW  Elec       q    Type
REMARK                         _______ _______ _______ _____ _____    ______ ____
ROOT
ATOM      1  C   UNL     1       2.267   6.626  19.445  0.00  0.00    +0.000 C 
ATOM      2  C   UNL     1       3.858   7.321  18.925  0.00  0.00    +0.000 C 
ATOM      3  C   UNL     1       5.073   6.163  18.099  0.00  0.00    +0.000 C 
ATOM      4  C   UNL     1       6.379   5.920  17.761  0.00  0.00    +0.000 C 
ATOM      5  C   UNL     1       6.175   5.459  19.293  0.00  0.00    +0.000 C 
ATOM      6  C   UNL     1       4.314   5.292  19.578  0.00  0.00    +0.000 C 
ATOM      7  C   UNL     1       3.480   5.457  17.639  0.00  0.00    +0.000 C 
ATOM      8  O   UNL     1       2.369   5.544  17.125  0.00  0.00    +0.000 OA
ATOM      9  C   UNL     1       5.128   5.487  16.508  0.00  0.00    +0.000 C 
ATOM     10  C   UNL     1       4.956   6.444  15.295  0.00  0.00    +0.000 C 
ATOM     11  C   UNL     1       5.738   4.201  15.982  0.00  0.00    +0.000 C 
ATOM     12  C   UNL     1       4.809   3.324  16.677  0.00  0.00    +0.000 C 
ATOM     13  C   UNL     1       4.694   4.058  18.064  0.00  0.00    +0.000 C 
ATOM     14  C   UNL     1       3.008   3.539  18.821  0.00  0.00    +0.000 C 
ATOM     15  C   UNL     1       2.228   2.688  17.730  0.00  0.00    +0.000 C 
ATOM     16  C   UNL     1       3.261   2.384  19.910  0.00  0.00    +0.000 C 
ATOM     17  C   UNL     1       1.978   2.024  20.665  0.00  0.00    +0.000 C 
ATOM     18  C   UNL     1       1.524   3.185  21.528  0.00  0.00    +0.000 C 
ATOM     19  C   UNL     1       1.400   4.487  20.803  0.00  0.00    +0.000 C 
ATOM     20  C   UNL     1       2.040   4.834  19.664  0.00  0.00    +0.000 C 
ENDROOT
BRANCH   1  21
ATOM     21  C   UNL     1       1.863   7.523  20.687  0.00  0.00    +0.000 C 
BRANCH  21  22
ATOM     22  C   UNL     1       0.665   8.494  20.505  0.00  0.00    +0.000 C 
BRANCH  22  23
ATOM     23  C   UNL     1       0.990   9.992  20.385  0.00  0.00    +0.000 C 
BRANCH  23  24
ATOM     24  C   UNL     1       0.886  10.540  18.957  0.00  0.00    +0.000 C 
BRANCH  24  25
ATOM     25  C   UNL     1      -0.086   9.725  18.089  0.00  0.00    +0.000 C 
BRANCH  25  26
ATOM     26  C   UNL     1      -1.394  10.491  17.843  0.00  0.00    +0.000 C 
BRANCH  26  28
ATOM     27  C   UNL     1      -2.747  10.832  15.736  0.00  0.00    +0.000 C 
ATOM     28  C   UNL     1      -2.256   9.825  16.769  0.00  0.00    +0.000 C 
ENDBRANCH  26  28
ENDBRANCH  25  26
ENDBRANCH  24  25
ENDBRANCH  23  24
ENDBRANCH  22  23
ENDBRANCH  21  22
ENDBRANCH   1  21
TORSDOF 7
ENDMDL
MODEL 9
REMARK VINA RESULT:      -7.1      0.876      1.079
REMARK  Name = 
REMARK  10 active torsions:
REMARK  status: ('A' for Active; 'I' for Inactive)
REMARK    1  A    between atoms: C_1  and  C_2
REMARK    2  A    between atoms: C_2  and  C_3
REMARK    3  A    between atoms: C_3  and  C_4
REMARK    4  A    between atoms: C_4  and  C_5
REMARK    5  A    between atoms: C_5  and  C_6
REMARK    6  A    between atoms: C_6  and  C_7
REMARK    7  A    between atoms: C_7  and  C_8
REMARK    8  A    between atoms: C_8  and  C_9
REMARK    9  A    between atoms: C_17  and  C_18
REMARK   10  A    between atoms: C_22  and  C_23
REMARK                            x       y       z     vdW  Elec       q    Type
REMARK                         _______ _______ _______ _____ _____    ______ ____
ROOT
ATOM      1  C   UNL     1       2.945   6.973  18.214  0.00  0.00    +0.000 C 
ATOM      2  C   UNL     1       1.564   5.805  18.327  0.00  0.00    +0.000 C 
ATOM      3  C   UNL     1       1.980   4.012  18.660  0.00  0.00    +0.000 C 
ATOM      4  C   UNL     1       1.570   2.706  18.589  0.00  0.00    +0.000 C 
ATOM      5  C   UNL     1       2.147   3.118  17.140  0.00  0.00    +0.000 C 
ATOM      6  C   UNL     1       3.176   4.685  17.379  0.00  0.00    +0.000 C 
ATOM      7  C   UNL     1       3.323   4.888  19.481  0.00  0.00    +0.000 C 
ATOM      8  O   UNL     1       3.740   5.707  20.295  0.00  0.00    +0.000 OA
ATOM      9  C   UNL     1       2.474   3.187  20.097  0.00  0.00    +0.000 C 
ATOM     10  C   UNL     1       1.649   3.412  21.396  0.00  0.00    +0.000 C 
ATOM     11  C   UNL     1       3.300   1.930  20.302  0.00  0.00    +0.000 C 
ATOM     12  C   UNL     1       4.542   2.512  19.817  0.00  0.00    +0.000 C 
ATOM     13  C   UNL     1       4.015   3.353  18.597  0.00  0.00    +0.000 C 
ATOM     14  C   UNL     1       5.296   4.752  18.301  0.00  0.00    +0.000 C 
ATOM     15  C   UNL     1       6.358   4.694  19.481  0.00  0.00    +0.000 C 
ATOM     16  C   UNL     1       6.251   4.331  17.080  0.00  0.00    +0.000 C 
ATOM     17  C   UNL     1       7.204   5.465  16.687  0.00  0.00    +0.000 C 
ATOM     18  C   UNL     1       6.433   6.632  16.104  0.00  0.00    +0.000 C 
ATOM     19  C   UNL     1       5.305   7.120  16.956  0.00  0.00    +0.000 C 
ATOM     20  C   UNL     1       4.645   6.406  17.896  0.00  0.00    +0.000 C 
ENDROOT
BRANCH   1  21
ATOM     21  C   UNL     1       2.402   8.089  17.229  0.00  0.00    +0.000 C 
BRANCH  21  22
ATOM     22  C   UNL     1       1.772   9.357  17.867  0.00  0.00    +0.000 C 
BRANCH  22  23
ATOM     23  C   UNL     1       1.364   9.268  19.347  0.00  0.00    +0.000 C 
BRANCH  23  24
ATOM     24  C   UNL     1       0.186  10.174  19.725  0.00  0.00    +0.000 C 
BRANCH  24  25
ATOM     25  C   UNL     1       0.433  10.936  21.036  0.00  0.00    +0.000 C 
BRANCH  25  26
ATOM     26  C   UNL     1      -0.885  11.391  21.677  0.00  0.00    +0.000 C 
BRANCH  26  28
ATOM     27  C   UNL     1      -0.249   9.545  23.282  0.00  0.00    +0.000 C 
ATOM     28  C   UNL     1      -1.074  10.809  23.080  0.00  0.00    +0.000 C 
ENDBRANCH  26  28
ENDBRANCH  25  26
ENDBRANCH  24  25
ENDBRANCH  23  24
ENDBRANCH  22  23
ENDBRANCH  21  22
ENDBRANCH   1  21
TORSDOF 7
ENDMDL
