MODEL 1
REMARK VINA RESULT:      -8.1      0.000      0.000
REMARK  Name = 
REMARK  10 active torsions:
REMARK  status: ('A' for Active; 'I' for Inactive)
REMARK    1  A    between atoms: C_1  and  C_2
REMARK    2  A    between atoms: C_2  and  C_3
REMARK    3  A    between atoms: C_2  and  O_4
REMARK    4  A    between atoms: O_4  and  C_5
REMARK    5  A    between atoms: C_5  and  N_7
REMARK    6  A    between atoms: N_7  and  C_8
REMARK    7  A    between atoms: C_11  and  O_12
REMARK    8  A    between atoms: O_12  and  C_13
REMARK    9  A    between atoms: C_13  and  C_14
REMARK   10  A    between atoms: C_14  and  N_15
REMARK                            x       y       z     vdW  Elec       q    Type
REMARK                         _______ _______ _______ _____ _____    ______ ____
ROOT
ATOM      1  O   UNL     1       8.180   8.718  17.498  0.00  0.00    +0.000 OA
ENDROOT
BRANCH   1   5
ATOM      2  C   UNL     1       6.411   5.046  18.474  0.00  0.00    +0.000 A 
ATOM      3  C   UNL     1       7.540   5.468  19.168  0.00  0.00    +0.000 A 
ATOM      4  C   UNL     1       8.153   6.679  18.870  0.00  0.00    +0.000 A 
ATOM      5  C   UNL     1       7.662   7.500  17.848  0.00  0.00    +0.000 A 
ATOM      6  C   UNL     1       6.553   7.059  17.120  0.00  0.00    +0.000 A 
ATOM      7  C   UNL     1       5.938   5.833  17.417  0.00  0.00    +0.000 A 
BRANCH   2   8
ATOM      8  N   UNL     1       5.731   3.848  18.788  0.00  0.00    +0.000 N 
ATOM      9  H   UNL     1       6.270   2.996  18.829  0.00  0.00    +0.000 HD
BRANCH   8  10
ATOM     10  C   UNL     1       4.364   3.673  18.903  0.00  0.00    +0.000 C 
ATOM     11  S   UNL     1       3.605   2.368  18.215  0.00  0.00    +0.000 S 
BRANCH  10  12
ATOM     12  O   UNL     1       3.721   4.651  19.573  0.00  0.00    +0.000 OA
BRANCH  12  14
ATOM     13  C   UNL     1       1.696   5.325  20.625  0.00  0.00    +0.000 C 
ATOM     14  C   UNL     1       2.399   5.166  19.280  0.00  0.00    +0.000 C 
ATOM     15  C   UNL     1       2.552   6.517  18.597  0.00  0.00    +0.000 C 
ENDBRANCH  12  14
ENDBRANCH  10  12
ENDBRANCH   8  10
ENDBRANCH   2   8
ENDBRANCH   1   5
BRANCH   1  16
ATOM     16  C   UNL     1       8.741   9.455  18.580  0.00  0.00    +0.000 C 
BRANCH  16  17
ATOM     17  C   UNL     1       8.717  10.977  18.364  0.00  0.00    +0.000 C 
BRANCH  17  18
ATOM     18  N   UNL     1       9.855  11.577  19.074  0.00  0.00    +0.000 N 
ATOM     19  C   UNL     1      10.743  12.457  18.470  0.00  0.00    +0.000 A 
ATOM     20  C   UNL     1      11.364  12.438  17.214  0.00  0.00    +0.000 A 
ATOM     21  C   UNL     1      12.172  13.529  16.872  0.00  0.00    +0.000 A 
ATOM     22  C   UNL     1      12.327  14.610  17.736  0.00  0.00    +0.000 A 
ATOM     23  C   UNL     1      11.645  14.648  18.956  0.00  0.00    +0.000 A 
ATOM     24  C   UNL     1      10.840  13.554  19.334  0.00  0.00    +0.000 A 
ATOM     25  C   UNL     1       9.980  13.289  20.443  0.00  0.00    +0.000 A 
ATOM     26  C   UNL     1       9.396  14.053  21.469  0.00  0.00    +0.000 A 
ATOM     27  C   UNL     1       8.640  13.401  22.451  0.00  0.00    +0.000 A 
ATOM     28  C   UNL     1       8.568  12.009  22.493  0.00  0.00    +0.000 A 
ATOM     29  C   UNL     1       9.114  11.233  21.470  0.00  0.00    +0.000 A 
ATOM     30  C   UNL     1       9.709  11.924  20.410  0.00  0.00    +0.000 A 
ENDBRANCH  17  18
ENDBRANCH  16  17
ENDBRANCH   1  16
TORSDOF 8
ENDMDL
MODEL 2
REMARK VINA RESULT:      -8.0      6.711     10.646
REMARK  Name = 
REMARK  10 active torsions:
REMARK  status: ('A' for Active; 'I' for Inactive)
REMARK    1  A    between atoms: C_1  and  C_2
REMARK    2  A    between atoms: C_2  and  C_3
REMARK    3  A    between atoms: C_2  and  O_4
REMARK    4  A    between atoms: O_4  and  C_5
REMARK    5  A    between atoms: C_5  and  N_7
REMARK    6  A    between atoms: N_7  and  C_8
REMARK    7  A    between atoms: C_11  and  O_12
REMARK    8  A    between atoms: O_12  and  C_13
REMARK    9  A    between atoms: C_13  and  C_14
REMARK   10  A    between atoms: C_14  and  N_15
REMARK                            x       y       z     vdW  Elec       q    Type
REMARK                         _______ _______ _______ _____ _____    ______ ____
ROOT
ATOM      1  O   UNL     1       1.572   8.905  18.630  0.00  0.00    +0.000 OA
ENDROOT
BRANCH   1   5
ATOM      2  C   UNL     1      -0.442  10.579  21.902  0.00  0.00    +0.000 A 
ATOM      3  C   UNL     1      -0.520  11.199  20.659  0.00  0.00    +0.000 A 
ATOM      4  C   UNL     1       0.136  10.672  19.552  0.00  0.00    +0.000 A 
ATOM      5  C   UNL     1       0.911   9.512  19.664  0.00  0.00    +0.000 A 
ATOM      6  C   UNL     1       1.027   8.911  20.920  0.00  0.00    +0.000 A 
ATOM      7  C   UNL     1       0.369   9.447  22.037  0.00  0.00    +0.000 A 
BRANCH   2   8
ATOM      8  N   UNL     1      -1.140  11.057  23.033  0.00  0.00    +0.000 N 
ATOM      9  H   UNL     1      -1.186  10.461  23.846  0.00  0.00    +0.000 HD
BRANCH   8  10
ATOM     10  C   UNL     1      -1.912  12.201  23.112  0.00  0.00    +0.000 C 
ATOM     11  S   UNL     1      -1.216  13.696  23.300  0.00  0.00    +0.000 S 
BRANCH  10  12
ATOM     12  O   UNL     1      -3.244  11.991  23.062  0.00  0.00    +0.000 OA
BRANCH  12  14
ATOM     13  C   UNL     1      -5.347  12.935  22.473  0.00  0.00    +0.000 C 
ATOM     14  C   UNL     1      -4.272  12.887  23.554  0.00  0.00    +0.000 C 
ATOM     15  C   UNL     1      -4.837  12.303  24.841  0.00  0.00    +0.000 C 
ENDBRANCH  12  14
ENDBRANCH  10  12
ENDBRANCH   8  10
ENDBRANCH   2   8
ENDBRANCH   1   5
BRANCH   1  16
ATOM     16  C   UNL     1       2.307   7.742  19.000  0.00  0.00    +0.000 C 
BRANCH  16  17
ATOM     17  C   UNL     1       3.140   7.150  17.852  0.00  0.00    +0.000 C 
BRANCH  17  18
ATOM     18  N   UNL     1       3.696   5.860  18.281  0.00  0.00    +0.000 N 
ATOM     19  C   UNL     1       2.915   4.730  18.486  0.00  0.00    +0.000 A 
ATOM     20  C   UNL     1       1.675   4.556  19.115  0.00  0.00    +0.000 A 
ATOM     21  C   UNL     1       1.111   3.275  19.097  0.00  0.00    +0.000 A 
ATOM     22  C   UNL     1       1.745   2.217  18.449  0.00  0.00    +0.000 A 
ATOM     23  C   UNL     1       2.947   2.422  17.765  0.00  0.00    +0.000 A 
ATOM     24  C   UNL     1       3.547   3.698  17.782  0.00  0.00    +0.000 A 
ATOM     25  C   UNL     1       4.703   4.261  17.162  0.00  0.00    +0.000 A 
ATOM     26  C   UNL     1       5.572   3.885  16.122  0.00  0.00    +0.000 A 
ATOM     27  C   UNL     1       6.676   4.698  15.837  0.00  0.00    +0.000 A 
ATOM     28  C   UNL     1       6.990   5.789  16.645  0.00  0.00    +0.000 A 
ATOM     29  C   UNL     1       6.127   6.199  17.663  0.00  0.00    +0.000 A 
ATOM     30  C   UNL     1       4.942   5.472  17.807  0.00  0.00    +0.000 A 
ENDBRANCH  17  18
ENDBRANCH  16  17
ENDBRANCH   1  16
TORSDOF 8
ENDMDL
MODEL 3
REMARK VINA RESULT:      -7.9      7.007     10.930
REMARK  Name = 
REMARK  10 active torsions:
REMARK  status: ('A' for Active; 'I' for Inactive)
REMARK    1  A    between atoms: C_1  and  C_2
REMARK    2  A    between atoms: C_2  and  C_3
REMARK    3  A    between atoms: C_2  and  O_4
REMARK    4  A    between atoms: O_4  and  C_5
REMARK    5  A    between atoms: C_5  and  N_7
REMARK    6  A    between atoms: N_7  and  C_8
REMARK    7  A    between atoms: C_11  and  O_12
REMARK    8  A    between atoms: O_12  and  C_13
REMARK    9  A    between atoms: C_13  and  C_14
REMARK   10  A    between atoms: C_14  and  N_15
REMARK                            x       y       z     vdW  Elec       q    Type
REMARK                         _______ _______ _______ _____ _____    ______ ____
ROOT
ATOM      1  O   UNL     1       1.641   8.091  20.368  0.00  0.00    +0.000 OA
ENDROOT
BRANCH   1   5
ATOM      2  C   UNL     1      -0.575  11.125  22.226  0.00  0.00    +0.000 A 
ATOM      3  C   UNL     1      -0.087  11.323  20.939  0.00  0.00    +0.000 A 
ATOM      4  C   UNL     1       0.653  10.339  20.293  0.00  0.00    +0.000 A 
ATOM      5  C   UNL     1       0.944   9.127  20.929  0.00  0.00    +0.000 A 
ATOM      6  C   UNL     1       0.492   8.941  22.239  0.00  0.00    +0.000 A 
ATOM      7  C   UNL     1      -0.249   9.937  22.892  0.00  0.00    +0.000 A 
BRANCH   2   8
ATOM      8  N   UNL     1      -1.376  12.080  22.889  0.00  0.00    +0.000 N 
ATOM      9  H   UNL     1      -0.964  12.592  23.656  0.00  0.00    +0.000 HD
BRANCH   8  10
ATOM     10  C   UNL     1      -2.729  12.300  22.711  0.00  0.00    +0.000 C 
ATOM     11  S   UNL     1      -3.299  13.116  21.383  0.00  0.00    +0.000 S 
BRANCH  10  12
ATOM     12  O   UNL     1      -3.514  11.836  23.705  0.00  0.00    +0.000 OA
BRANCH  12  14
ATOM     13  C   UNL     1      -3.561  13.995  24.703  0.00  0.00    +0.000 C 
ATOM     14  C   UNL     1      -4.255  12.638  24.658  0.00  0.00    +0.000 C 
ATOM     15  C   UNL     1      -5.683  12.786  24.150  0.00  0.00    +0.000 C 
ENDBRANCH  12  14
ENDBRANCH  10  12
ENDBRANCH   8  10
ENDBRANCH   2   8
ENDBRANCH   1   5
BRANCH   1  16
ATOM     16  C   UNL     1       2.108   8.339  19.046  0.00  0.00    +0.000 C 
BRANCH  16  17
ATOM     17  C   UNL     1       1.999   7.120  18.116  0.00  0.00    +0.000 C 
BRANCH  17  18
ATOM     18  N   UNL     1       2.895   6.064  18.608  0.00  0.00    +0.000 N 
ATOM     19  C   UNL     1       2.435   4.906  19.220  0.00  0.00    +0.000 A 
ATOM     20  C   UNL     1       1.439   4.694  20.183  0.00  0.00    +0.000 A 
ATOM     21  C   UNL     1       1.165   3.372  20.555  0.00  0.00    +0.000 A 
ATOM     22  C   UNL     1       1.835   2.304  19.964  0.00  0.00    +0.000 A 
ATOM     23  C   UNL     1       2.776   2.527  18.953  0.00  0.00    +0.000 A 
ATOM     24  C   UNL     1       3.085   3.849  18.573  0.00  0.00    +0.000 A 
ATOM     25  C   UNL     1       3.922   4.424  17.569  0.00  0.00    +0.000 A 
ATOM     26  C   UNL     1       4.582   3.956  16.419  0.00  0.00    +0.000 A 
ATOM     27  C   UNL     1       5.397   4.840  15.701  0.00  0.00    +0.000 A 
ATOM     28  C   UNL     1       5.657   6.123  16.179  0.00  0.00    +0.000 A 
ATOM     29  C   UNL     1       4.990   6.619  17.299  0.00  0.00    +0.000 A 
ATOM     30  C   UNL     1       4.048   5.773  17.891  0.00  0.00    +0.000 A 
ENDBRANCH  17  18
ENDBRANCH  16  17
ENDBRANCH   1  16
TORSDOF 8
ENDMDL
MODEL 4
REMARK VINA RESULT:      -7.9      6.912     10.056
REMARK  Name = 
REMARK  10 active torsions:
REMARK  status: ('A' for Active; 'I' for Inactive)
REMARK    1  A    between atoms: C_1  and  C_2
REMARK    2  A    between atoms: C_2  and  C_3
REMARK    3  A    between atoms: C_2  and  O_4
REMARK    4  A    between atoms: O_4  and  C_5
REMARK    5  A    between atoms: C_5  and  N_7
REMARK    6  A    between atoms: N_7  and  C_8
REMARK    7  A    between atoms: C_11  and  O_12
REMARK    8  A    between atoms: O_12  and  C_13
REMARK    9  A    between atoms: C_13  and  C_14
REMARK   10  A    between atoms: C_14  and  N_15
REMARK                            x       y       z     vdW  Elec       q    Type
REMARK                         _______ _______ _______ _____ _____    ______ ____
ROOT
ATOM      1  O   UNL     1       2.723   6.551  19.444  0.00  0.00    +0.000 OA
ENDROOT
BRANCH   1   5
ATOM      2  C   UNL     1       0.555  10.118  19.820  0.00  0.00    +0.000 A 
ATOM      3  C   UNL     1       1.189   9.826  18.618  0.00  0.00    +0.000 A 
ATOM      4  C   UNL     1       1.918   8.653  18.458  0.00  0.00    +0.000 A 
ATOM      5  C   UNL     1       2.049   7.742  19.511  0.00  0.00    +0.000 A 
ATOM      6  C   UNL     1       1.449   8.052  20.736  0.00  0.00    +0.000 A 
ATOM      7  C   UNL     1       0.719   9.239  20.897  0.00  0.00    +0.000 A 
BRANCH   2   8
ATOM      8  N   UNL     1      -0.239  11.273  19.998  0.00  0.00    +0.000 N 
ATOM      9  H   UNL     1      -0.468  11.547  20.942  0.00  0.00    +0.000 HD
BRANCH   8  10
ATOM     10  C   UNL     1      -0.877  12.004  19.014  0.00  0.00    +0.000 C 
ATOM     11  S   UNL     1      -0.219  13.408  18.423  0.00  0.00    +0.000 S 
BRANCH  10  12
ATOM     12  O   UNL     1      -2.066  11.504  18.618  0.00  0.00    +0.000 OA
BRANCH  12  14
ATOM     13  C   UNL     1      -2.071   9.866  16.891  0.00  0.00    +0.000 C 
ATOM     14  C   UNL     1      -2.493  11.288  17.250  0.00  0.00    +0.000 C 
ATOM     15  C   UNL     1      -4.008  11.424  17.195  0.00  0.00    +0.000 C 
ENDBRANCH  12  14
ENDBRANCH  10  12
ENDBRANCH   8  10
ENDBRANCH   2   8
ENDBRANCH   1   5
BRANCH   1  16
ATOM     16  C   UNL     1       3.943   6.603  18.709  0.00  0.00    +0.000 C 
BRANCH  16  17
ATOM     17  C   UNL     1       5.087   5.810  19.362  0.00  0.00    +0.000 C 
BRANCH  17  18
ATOM     18  N   UNL     1       5.110   4.454  18.797  0.00  0.00    +0.000 N 
ATOM     19  C   UNL     1       4.044   3.572  18.903  0.00  0.00    +0.000 A 
ATOM     20  C   UNL     1       3.202   3.253  19.977  0.00  0.00    +0.000 A 
ATOM     21  C   UNL     1       2.157   2.352  19.739  0.00  0.00    +0.000 A 
ATOM     22  C   UNL     1       1.943   1.816  18.472  0.00  0.00    +0.000 A 
ATOM     23  C   UNL     1       2.747   2.198  17.394  0.00  0.00    +0.000 A 
ATOM     24  C   UNL     1       3.818   3.089  17.609  0.00  0.00    +0.000 A 
ATOM     25  C   UNL     1       4.772   3.720  16.754  0.00  0.00    +0.000 A 
ATOM     26  C   UNL     1       4.909   3.916  15.369  0.00  0.00    +0.000 A 
ATOM     27  C   UNL     1       6.062   4.548  14.886  0.00  0.00    +0.000 A 
ATOM     28  C   UNL     1       7.117   4.864  15.740  0.00  0.00    +0.000 A 
ATOM     29  C   UNL     1       6.991   4.707  17.122  0.00  0.00    +0.000 A 
ATOM     30  C   UNL     1       5.759   4.240  17.588  0.00  0.00    +0.000 A 
ENDBRANCH  17  18
ENDBRANCH  16  17
ENDBRANCH   1  16
TORSDOF 8
ENDMDL
MODEL 5
REMARK VINA RESULT:      -7.9      6.958     10.051
REMARK  Name = 
REMARK  10 active torsions:
REMARK  status: ('A' for Active; 'I' for Inactive)
REMARK    1  A    between atoms: C_1  and  C_2
REMARK    2  A    between atoms: C_2  and  C_3
REMARK    3  A    between atoms: C_2  and  O_4
REMARK    4  A    between atoms: O_4  and  C_5
REMARK    5  A    between atoms: C_5  and  N_7
REMARK    6  A    between atoms: N_7  and  C_8
REMARK    7  A    between atoms: C_11  and  O_12
REMARK    8  A    between atoms: O_12  and  C_13
REMARK    9  A    between atoms: C_13  and  C_14
REMARK   10  A    between atoms: C_14  and  N_15
REMARK                            x       y       z     vdW  Elec       q    Type
REMARK                         _______ _______ _______ _____ _____    ______ ____
ROOT
ATOM      1  O   UNL     1       2.650   6.823  19.566  0.00  0.00    +0.000 OA
ENDROOT
BRANCH   1   5
ATOM      2  C   UNL     1       0.680  10.402  18.631  0.00  0.00    +0.000 A 
ATOM      3  C   UNL     1       0.602   9.895  19.923  0.00  0.00    +0.000 A 
ATOM      4  C   UNL     1       1.242   8.710  20.269  0.00  0.00    +0.000 A 
ATOM      5  C   UNL     1       1.967   7.983  19.318  0.00  0.00    +0.000 A 
ATOM      6  C   UNL     1       2.012   8.467  18.006  0.00  0.00    +0.000 A 
ATOM      7  C   UNL     1       1.361   9.660  17.658  0.00  0.00    +0.000 A 
BRANCH   2   8
ATOM      8  N   UNL     1       0.089  11.630  18.261  0.00  0.00    +0.000 N 
ATOM      9  H   UNL     1       0.642  12.275  17.714  0.00  0.00    +0.000 HD
BRANCH   8  10
ATOM     10  C   UNL     1      -1.125  12.132  18.691  0.00  0.00    +0.000 C 
ATOM     11  S   UNL     1      -1.216  13.177  19.977  0.00  0.00    +0.000 S 
BRANCH  10  12
ATOM     12  O   UNL     1      -2.199  11.677  18.013  0.00  0.00    +0.000 OA
BRANCH  12  14
ATOM     13  C   UNL     1      -3.185   9.534  17.704  0.00  0.00    +0.000 C 
ATOM     14  C   UNL     1      -2.223  10.552  17.099  0.00  0.00    +0.000 C 
ATOM     15  C   UNL     1      -2.740  11.041  15.754  0.00  0.00    +0.000 C 
ENDBRANCH  12  14
ENDBRANCH  10  12
ENDBRANCH   8  10
ENDBRANCH   2   8
ENDBRANCH   1   5
BRANCH   1  16
ATOM     16  C   UNL     1       3.806   6.632  18.756  0.00  0.00    +0.000 C 
BRANCH  16  17
ATOM     17  C   UNL     1       4.925   5.846  19.458  0.00  0.00    +0.000 C 
BRANCH  17  18
ATOM     18  N   UNL     1       4.952   4.477  18.925  0.00  0.00    +0.000 N 
ATOM     19  C   UNL     1       3.872   3.610  19.011  0.00  0.00    +0.000 A 
ATOM     20  C   UNL     1       2.987   3.326  20.060  0.00  0.00    +0.000 A 
ATOM     21  C   UNL     1       1.940   2.431  19.803  0.00  0.00    +0.000 A 
ATOM     22  C   UNL     1       1.766   1.869  18.541  0.00  0.00    +0.000 A 
ATOM     23  C   UNL     1       2.615   2.217  17.486  0.00  0.00    +0.000 A 
ATOM     24  C   UNL     1       3.688   3.100  17.720  0.00  0.00    +0.000 A 
ATOM     25  C   UNL     1       4.682   3.700  16.888  0.00  0.00    +0.000 A 
ATOM     26  C   UNL     1       4.872   3.862  15.505  0.00  0.00    +0.000 A 
ATOM     27  C   UNL     1       6.050   4.469  15.051  0.00  0.00    +0.000 A 
ATOM     28  C   UNL     1       7.077   4.792  15.938  0.00  0.00    +0.000 A 
ATOM     29  C   UNL     1       6.898   4.669  17.316  0.00  0.00    +0.000 A 
ATOM     30  C   UNL     1       5.643   4.227  17.746  0.00  0.00    +0.000 A 
ENDBRANCH  17  18
ENDBRANCH  16  17
ENDBRANCH   1  16
TORSDOF 8
ENDMDL
MODEL 6
REMARK VINA RESULT:      -7.8      7.139     10.604
REMARK  Name = 
REMARK  10 active torsions:
REMARK  status: ('A' for Active; 'I' for Inactive)
REMARK    1  A    between atoms: C_1  and  C_2
REMARK    2  A    between atoms: C_2  and  C_3
REMARK    3  A    between atoms: C_2  and  O_4
REMARK    4  A    between atoms: O_4  and  C_5
REMARK    5  A    between atoms: C_5  and  N_7
REMARK    6  A    between atoms: N_7  and  C_8
REMARK    7  A    between atoms: C_11  and  O_12
REMARK    8  A    between atoms: O_12  and  C_13
REMARK    9  A    between atoms: C_13  and  C_14
REMARK   10  A    between atoms: C_14  and  N_15
REMARK                            x       y       z     vdW  Elec       q    Type
REMARK                         _______ _______ _______ _____ _____    ______ ____
ROOT
ATOM      1  O   UNL     1       0.173  10.450  19.941  0.00  0.00    +0.000 OA
ENDROOT
BRANCH   1   5
ATOM      2  C   UNL     1       2.593   7.266  18.687  0.00  0.00    +0.000 A 
ATOM      3  C   UNL     1       2.162   7.320  20.008  0.00  0.00    +0.000 A 
ATOM      4  C   UNL     1       1.359   8.362  20.459  0.00  0.00    +0.000 A 
ATOM      5  C   UNL     1       0.979   9.397  19.598  0.00  0.00    +0.000 A 
ATOM      6  C   UNL     1       1.446   9.370  18.280  0.00  0.00    +0.000 A 
ATOM      7  C   UNL     1       2.261   8.321  17.829  0.00  0.00    +0.000 A 
BRANCH   2   8
ATOM      8  N   UNL     1       3.362   6.194  18.183  0.00  0.00    +0.000 N 
ATOM      9  H   UNL     1       3.333   6.018  17.189  0.00  0.00    +0.000 HD
BRANCH   8  10
ATOM     10  C   UNL     1       4.047   5.244  18.918  0.00  0.00    +0.000 C 
ATOM     11  S   UNL     1       5.700   5.297  19.061  0.00  0.00    +0.000 S 
BRANCH  10  12
ATOM     12  O   UNL     1       3.274   4.280  19.458  0.00  0.00    +0.000 OA
BRANCH  12  14
ATOM     13  C   UNL     1       1.302   3.463  18.407  0.00  0.00    +0.000 C 
ATOM     14  C   UNL     1       2.743   3.120  18.770  0.00  0.00    +0.000 C 
ATOM     15  C   UNL     1       3.570   2.891  17.512  0.00  0.00    +0.000 C 
ENDBRANCH  12  14
ENDBRANCH  10  12
ENDBRANCH   8  10
ENDBRANCH   2   8
ENDBRANCH   1   5
BRANCH   1  16
ATOM     16  C   UNL     1       0.527  11.688  19.332  0.00  0.00    +0.000 C 
BRANCH  16  17
ATOM     17  C   UNL     1      -0.628  12.347  18.561  0.00  0.00    +0.000 C 
BRANCH  17  18
ATOM     18  N   UNL     1      -1.877  11.641  18.880  0.00  0.00    +0.000 N 
ATOM     19  C   UNL     1      -2.845  12.161  19.729  0.00  0.00    +0.000 A 
ATOM     20  C   UNL     1      -2.745  12.818  20.963  0.00  0.00    +0.000 A 
ATOM     21  C   UNL     1      -3.928  13.287  21.546  0.00  0.00    +0.000 A 
ATOM     22  C   UNL     1      -5.157  13.134  20.908  0.00  0.00    +0.000 A 
ATOM     23  C   UNL     1      -5.231  12.540  19.645  0.00  0.00    +0.000 A 
ATOM     24  C   UNL     1      -4.059  12.042  19.042  0.00  0.00    +0.000 A 
ATOM     25  C   UNL     1      -3.766  11.450  17.775  0.00  0.00    +0.000 A 
ATOM     26  C   UNL     1      -4.431  11.332  16.542  0.00  0.00    +0.000 A 
ATOM     27  C   UNL     1      -3.828  10.591  15.518  0.00  0.00    +0.000 A 
ATOM     28  C   UNL     1      -2.654   9.875  15.747  0.00  0.00    +0.000 A 
ATOM     29  C   UNL     1      -1.961  10.002  16.952  0.00  0.00    +0.000 A 
ATOM     30  C   UNL     1      -2.497  10.889  17.890  0.00  0.00    +0.000 A 
ENDBRANCH  17  18
ENDBRANCH  16  17
ENDBRANCH   1  16
TORSDOF 8
ENDMDL
MODEL 7
REMARK VINA RESULT:      -7.7      6.147     10.428
REMARK  Name = 
REMARK  10 active torsions:
REMARK  status: ('A' for Active; 'I' for Inactive)
REMARK    1  A    between atoms: C_1  and  C_2
REMARK    2  A    between atoms: C_2  and  C_3
REMARK    3  A    between atoms: C_2  and  O_4
REMARK    4  A    between atoms: O_4  and  C_5
REMARK    5  A    between atoms: C_5  and  N_7
REMARK    6  A    between atoms: N_7  and  C_8
REMARK    7  A    between atoms: C_11  and  O_12
REMARK    8  A    between atoms: O_12  and  C_13
REMARK    9  A    between atoms: C_13  and  C_14
REMARK   10  A    between atoms: C_14  and  N_15
REMARK                            x       y       z     vdW  Elec       q    Type
REMARK                         _______ _______ _______ _____ _____    ______ ____
ROOT
ATOM      1  O   UNL     1       1.438  10.641  18.175  0.00  0.00    +0.000 OA
ENDROOT
BRANCH   1   5
ATOM      2  C   UNL     1       2.406   6.790  19.516  0.00  0.00    +0.000 A 
ATOM      3  C   UNL     1       2.663   7.140  18.195  0.00  0.00    +0.000 A 
ATOM      4  C   UNL     1       2.354   8.408  17.716  0.00  0.00    +0.000 A 
ATOM      5  C   UNL     1       1.756   9.362  18.546  0.00  0.00    +0.000 A 
ATOM      6  C   UNL     1       1.456   9.000  19.863  0.00  0.00    +0.000 A 
ATOM      7  C   UNL     1       1.763   7.718  20.343  0.00  0.00    +0.000 A 
BRANCH   2   8
ATOM      8  N   UNL     1       2.758   5.530  20.049  0.00  0.00    +0.000 N 
ATOM      9  H   UNL     1       2.241   5.194  20.848  0.00  0.00    +0.000 HD
BRANCH   8  10
ATOM     10  C   UNL     1       3.844   4.751  19.696  0.00  0.00    +0.000 C 
ATOM     11  S   UNL     1       3.724   3.098  19.609  0.00  0.00    +0.000 S 
BRANCH  10  12
ATOM     12  O   UNL     1       4.984   5.437  19.472  0.00  0.00    +0.000 OA
BRANCH  12  14
ATOM     13  C   UNL     1       5.645   5.267  17.192  0.00  0.00    +0.000 C 
ATOM     14  C   UNL     1       6.087   5.016  18.631  0.00  0.00    +0.000 C 
ATOM     15  C   UNL     1       7.300   5.871  18.972  0.00  0.00    +0.000 C 
ENDBRANCH  12  14
ENDBRANCH  10  12
ENDBRANCH   8  10
ENDBRANCH   2   8
ENDBRANCH   1   5
BRANCH   1  16
ATOM     16  C   UNL     1       0.774  11.401  19.181  0.00  0.00    +0.000 C 
BRANCH  16  17
ATOM     17  C   UNL     1      -0.390  12.248  18.643  0.00  0.00    +0.000 C 
BRANCH  17  18
ATOM     18  N   UNL     1      -1.658  11.596  18.997  0.00  0.00    +0.000 N 
ATOM     19  C   UNL     1      -2.575  12.152  19.879  0.00  0.00    +0.000 A 
ATOM     20  C   UNL     1      -2.407  12.795  21.112  0.00  0.00    +0.000 A 
ATOM     21  C   UNL     1      -3.550  13.312  21.736  0.00  0.00    +0.000 A 
ATOM     22  C   UNL     1      -4.803  13.217  21.136  0.00  0.00    +0.000 A 
ATOM     23  C   UNL     1      -4.944  12.636  19.872  0.00  0.00    +0.000 A 
ATOM     24  C   UNL     1      -3.813  12.091  19.230  0.00  0.00    +0.000 A 
ATOM     25  C   UNL     1      -3.587  11.495  17.952  0.00  0.00    +0.000 A 
ATOM     26  C   UNL     1      -4.295  11.415  16.739  0.00  0.00    +0.000 A 
ATOM     27  C   UNL     1      -3.757  10.655  15.692  0.00  0.00    +0.000 A 
ATOM     28  C   UNL     1      -2.609   9.886  15.881  0.00  0.00    +0.000 A 
ATOM     29  C   UNL     1      -1.874   9.975  17.064  0.00  0.00    +0.000 A 
ATOM     30  C   UNL     1      -2.341  10.878  18.023  0.00  0.00    +0.000 A 
ENDBRANCH  17  18
ENDBRANCH  16  17
ENDBRANCH   1  16
TORSDOF 8
ENDMDL
MODEL 8
REMARK VINA RESULT:      -7.7      6.410      9.933
REMARK  Name = 
REMARK  10 active torsions:
REMARK  status: ('A' for Active; 'I' for Inactive)
REMARK    1  A    between atoms: C_1  and  C_2
REMARK    2  A    between atoms: C_2  and  C_3
REMARK    3  A    between atoms: C_2  and  O_4
REMARK    4  A    between atoms: O_4  and  C_5
REMARK    5  A    between atoms: C_5  and  N_7
REMARK    6  A    between atoms: N_7  and  C_8
REMARK    7  A    between atoms: C_11  and  O_12
REMARK    8  A    between atoms: O_12  and  C_13
REMARK    9  A    between atoms: C_13  and  C_14
REMARK   10  A    between atoms: C_14  and  N_15
REMARK                            x       y       z     vdW  Elec       q    Type
REMARK                         _______ _______ _______ _____ _____    ______ ____
ROOT
ATOM      1  O   UNL     1       2.391   9.402  18.031  0.00  0.00    +0.000 OA
ENDROOT
BRANCH   1   5
ATOM      2  C   UNL     1      -0.570  12.257  18.832  0.00  0.00    +0.000 A 
ATOM      3  C   UNL     1      -0.943  10.972  18.455  0.00  0.00    +0.000 A 
ATOM      4  C   UNL     1       0.013  10.000  18.181  0.00  0.00    +0.000 A 
ATOM      5  C   UNL     1       1.378  10.295  18.257  0.00  0.00    +0.000 A 
ATOM      6  C   UNL     1       1.757  11.599  18.594  0.00  0.00    +0.000 A 
ATOM      7  C   UNL     1       0.791  12.580  18.864  0.00  0.00    +0.000 A 
BRANCH   2   8
ATOM      8  N   UNL     1      -1.515  13.252  19.171  0.00  0.00    +0.000 N 
ATOM      9  H   UNL     1      -1.766  13.926  18.462  0.00  0.00    +0.000 HD
BRANCH   8  10
ATOM     10  C   UNL     1      -2.035  13.511  20.425  0.00  0.00    +0.000 C 
ATOM     11  S   UNL     1      -2.388  15.060  20.905  0.00  0.00    +0.000 S 
BRANCH  10  12
ATOM     12  O   UNL     1      -2.189  12.426  21.211  0.00  0.00    +0.000 OA
BRANCH  12  14
ATOM     13  C   UNL     1      -2.803  12.090  23.485  0.00  0.00    +0.000 C 
ATOM     14  C   UNL     1      -1.622  12.235  22.531  0.00  0.00    +0.000 C 
ATOM     15  C   UNL     1      -0.791  10.959  22.514  0.00  0.00    +0.000 C 
ENDBRANCH  12  14
ENDBRANCH  10  12
ENDBRANCH   8  10
ENDBRANCH   2   8
ENDBRANCH   1   5
BRANCH   1  16
ATOM     16  C   UNL     1       1.964   8.055  17.852  0.00  0.00    +0.000 C 
BRANCH  16  17
ATOM     17  C   UNL     1       2.747   7.044  18.705  0.00  0.00    +0.000 C 
BRANCH  17  18
ATOM     18  N   UNL     1       3.358   6.045  17.817  0.00  0.00    +0.000 N 
ATOM     19  C   UNL     1       4.722   5.997  17.559  0.00  0.00    +0.000 A 
ATOM     20  C   UNL     1       5.654   7.007  17.285  0.00  0.00    +0.000 A 
ATOM     21  C   UNL     1       6.994   6.630  17.131  0.00  0.00    +0.000 A 
ATOM     22  C   UNL     1       7.391   5.304  17.278  0.00  0.00    +0.000 A 
ATOM     23  C   UNL     1       6.460   4.318  17.622  0.00  0.00    +0.000 A 
ATOM     24  C   UNL     1       5.102   4.665  17.764  0.00  0.00    +0.000 A 
ATOM     25  C   UNL     1       3.928   3.951  18.154  0.00  0.00    +0.000 A 
ATOM     26  C   UNL     1       3.660   2.717  18.772  0.00  0.00    +0.000 A 
ATOM     27  C   UNL     1       2.328   2.316  18.931  0.00  0.00    +0.000 A 
ATOM     28  C   UNL     1       1.286   3.058  18.377  0.00  0.00    +0.000 A 
ATOM     29  C   UNL     1       1.525   4.300  17.787  0.00  0.00    +0.000 A 
ATOM     30  C   UNL     1       2.847   4.754  17.803  0.00  0.00    +0.000 A 
ENDBRANCH  17  18
ENDBRANCH  16  17
ENDBRANCH   1  16
TORSDOF 8
ENDMDL
MODEL 9
REMARK VINA RESULT:      -7.7      7.081     10.409
REMARK  Name = 
REMARK  10 active torsions:
REMARK  status: ('A' for Active; 'I' for Inactive)
REMARK    1  A    between atoms: C_1  and  C_2
REMARK    2  A    between atoms: C_2  and  C_3
REMARK    3  A    between atoms: C_2  and  O_4
REMARK    4  A    between atoms: O_4  and  C_5
REMARK    5  A    between atoms: C_5  and  N_7
REMARK    6  A    between atoms: N_7  and  C_8
REMARK    7  A    between atoms: C_11  and  O_12
REMARK    8  A    between atoms: O_12  and  C_13
REMARK    9  A    between atoms: C_13  and  C_14
REMARK   10  A    between atoms: C_14  and  N_15
REMARK                            x       y       z     vdW  Elec       q    Type
REMARK                         _______ _______ _______ _____ _____    ______ ____
ROOT
ATOM      1  O   UNL     1       2.014   8.362  19.173  0.00  0.00    +0.000 OA
ENDROOT
BRANCH   1   5
ATOM      2  C   UNL     1      -1.012  11.214  19.700  0.00  0.00    +0.000 A 
ATOM      3  C   UNL     1      -0.414  10.635  20.815  0.00  0.00    +0.000 A 
ATOM      4  C   UNL     1       0.591   9.685  20.677  0.00  0.00    +0.000 A 
ATOM      5  C   UNL     1       1.017   9.270  19.411  0.00  0.00    +0.000 A 
ATOM      6  C   UNL     1       0.389   9.818  18.288  0.00  0.00    +0.000 A 
ATOM      7  C   UNL     1      -0.630  10.772  18.428  0.00  0.00    +0.000 A 
BRANCH   2   8
ATOM      8  N   UNL     1      -1.996  12.221  19.805  0.00  0.00    +0.000 N 
ATOM      9  H   UNL     1      -2.832  12.124  19.247  0.00  0.00    +0.000 HD
BRANCH   8  10
ATOM     10  C   UNL     1      -1.888  13.424  20.477  0.00  0.00    +0.000 C 
ATOM     11  S   UNL     1      -0.755  14.555  20.038  0.00  0.00    +0.000 S 
BRANCH  10  12
ATOM     12  O   UNL     1      -2.737  13.572  21.515  0.00  0.00    +0.000 OA
BRANCH  12  14
ATOM     13  C   UNL     1      -3.195  12.393  23.530  0.00  0.00    +0.000 C 
ATOM     14  C   UNL     1      -3.602  12.549  22.068  0.00  0.00    +0.000 C 
ATOM     15  C   UNL     1      -5.041  13.033  21.964  0.00  0.00    +0.000 C 
ENDBRANCH  12  14
ENDBRANCH  10  12
ENDBRANCH   8  10
ENDBRANCH   2   8
ENDBRANCH   1   5
BRANCH   1  16
ATOM     16  C   UNL     1       1.940   7.182  19.967  0.00  0.00    +0.000 C 
BRANCH  16  17
ATOM     17  C   UNL     1       3.104   6.206  19.727  0.00  0.00    +0.000 C 
BRANCH  17  18
ATOM     18  N   UNL     1       2.936   5.578  18.410  0.00  0.00    +0.000 N 
ATOM     19  C   UNL     1       3.877   5.685  17.395  0.00  0.00    +0.000 A 
ATOM     20  C   UNL     1       4.623   6.776  16.927  0.00  0.00    +0.000 A 
ATOM     21  C   UNL     1       5.555   6.538  15.911  0.00  0.00    +0.000 A 
ATOM     22  C   UNL     1       5.758   5.257  15.404  0.00  0.00    +0.000 A 
ATOM     23  C   UNL     1       5.057   4.166  15.930  0.00  0.00    +0.000 A 
ATOM     24  C   UNL     1       4.098   4.380  16.941  0.00  0.00    +0.000 A 
ATOM     25  C   UNL     1       3.270   3.519  17.723  0.00  0.00    +0.000 A 
ATOM     26  C   UNL     1       3.222   2.140  17.992  0.00  0.00    +0.000 A 
ATOM     27  C   UNL     1       2.180   1.642  18.785  0.00  0.00    +0.000 A 
ATOM     28  C   UNL     1       1.136   2.468  19.197  0.00  0.00    +0.000 A 
ATOM     29  C   UNL     1       1.179   3.844  18.969  0.00  0.00    +0.000 A 
ATOM     30  C   UNL     1       2.320   4.336  18.330  0.00  0.00    +0.000 A 
ENDBRANCH  17  18
ENDBRANCH  16  17
ENDBRANCH   1  16
TORSDOF 8
ENDMDL
