MODEL 1
REMARK VINA RESULT:      -7.3      0.000      0.000
REMARK  Name = 
REMARK  5 active torsions:
REMARK  status: ('A' for Active; 'I' for Inactive)
REMARK    1  A    between atoms: C_1  and  C_2
REMARK    2  A    between atoms: N_4  and  C_5
REMARK    3  A    between atoms: C_10  and  C_11
REMARK    4  A    between atoms: N_16  and  C_17
REMARK    5  A    between atoms: C_17  and  C_18
REMARK                            x       y       z     vdW  Elec       q    Type
REMARK                         _______ _______ _______ _____ _____    ______ ____
ROOT
ATOM      1  C   UNL     1       2.584   7.613  17.964  0.00  0.00    +0.000 C 
ATOM      2  O   UNL     1       2.925   8.236  16.974  0.00  0.00    +0.000 OA
ATOM      3  N   UNL     1       1.951   8.219  19.061  0.00  0.00    +0.000 N 
ATOM      4  C   UNL     1       1.564   9.628  18.978  0.00  0.00    +0.000 C 
ATOM      5  C   UNL     1       0.171   9.873  19.594  0.00  0.00    +0.000 C 
ATOM      6  N   UNL     1      -0.077   9.283  20.937  0.00  0.00    +0.000 NA
ATOM      7  C   UNL     1       0.468   7.904  21.026  0.00  0.00    +0.000 C 
ATOM      8  C   UNL     1       1.883   7.712  20.437  0.00  0.00    +0.000 C 
ENDROOT
BRANCH   1  14
ATOM      9  C   UNL     1       4.123   5.559  17.987  0.00  0.00    +0.000 A 
ATOM     10  C   UNL     1       4.258   4.157  17.936  0.00  0.00    +0.000 A 
ATOM     11  C   UNL     1       3.145   3.323  17.996  0.00  0.00    +0.000 A 
ATOM     12  C   UNL     1       1.877   3.875  18.031  0.00  0.00    +0.000 A 
ATOM     13  C   UNL     1       1.729   5.255  17.947  0.00  0.00    +0.000 A 
ATOM     14  C   UNL     1       2.824   6.119  18.010  0.00  0.00    +0.000 A 
BRANCH   9  18
ATOM     15  C   UNL     1       7.357   7.390  17.440  0.00  0.00    +0.000 C 
ATOM     16  C   UNL     1       6.064   6.715  17.058  0.00  0.00    +0.000 C 
ATOM     17  O   UNL     1       5.766   6.537  15.882  0.00  0.00    +0.000 OA
ATOM     18  N   UNL     1       5.307   6.315  18.148  0.00  0.00    +0.000 N 
ATOM     19  H   UNL     1       5.370   6.897  18.977  0.00  0.00    +0.000 HD
ENDBRANCH   9  18
ENDBRANCH   1  14
BRANCH   6  20
ATOM     20  C   UNL     1       0.437  10.159  21.997  0.00  0.00    +0.000 C 
BRANCH  20  21
ATOM     21  C   UNL     1      -0.483  11.327  22.325  0.00  0.00    +0.000 A 
ATOM     22  C   UNL     1      -0.258  12.615  21.815  0.00  0.00    +0.000 A 
ATOM     23  C   UNL     1      -1.171  13.645  22.065  0.00  0.00    +0.000 A 
ATOM     24  C   UNL     1      -2.336  13.388  22.787  0.00  0.00    +0.000 A 
ATOM     25  C   UNL     1      -2.554  12.122  23.322  0.00  0.00    +0.000 A 
ATOM     26  C   UNL     1      -1.614  11.110  23.126  0.00  0.00    +0.000 A 
ENDBRANCH  20  21
ENDBRANCH   6  20
TORSDOF 4
ENDMDL
MODEL 2
REMARK VINA RESULT:      -7.2      1.343      1.447
REMARK  Name = 
REMARK  5 active torsions:
REMARK  status: ('A' for Active; 'I' for Inactive)
REMARK    1  A    between atoms: C_1  and  C_2
REMARK    2  A    between atoms: N_4  and  C_5
REMARK    3  A    between atoms: C_10  and  C_11
REMARK    4  A    between atoms: N_16  and  C_17
REMARK    5  A    between atoms: C_17  and  C_18
REMARK                            x       y       z     vdW  Elec       q    Type
REMARK                         _______ _______ _______ _____ _____    ______ ____
ROOT
ATOM      1  C   UNL     1       3.148   6.721  17.952  0.00  0.00    +0.000 C 
ATOM      2  O   UNL     1       3.793   6.934  16.940  0.00  0.00    +0.000 OA
ATOM      3  N   UNL     1       2.457   7.733  18.638  0.00  0.00    +0.000 N 
ATOM      4  C   UNL     1       2.394   9.076  18.063  0.00  0.00    +0.000 C 
ATOM      5  C   UNL     1       0.992   9.699  18.221  0.00  0.00    +0.000 C 
ATOM      6  N   UNL     1       0.375   9.619  19.573  0.00  0.00    +0.000 NA
ATOM      7  C   UNL     1       0.595   8.282  20.184  0.00  0.00    +0.000 C 
ATOM      8  C   UNL     1       2.025   7.716  20.041  0.00  0.00    +0.000 C 
ENDROOT
BRANCH   1  14
ATOM      9  C   UNL     1       4.172   4.633  19.037  0.00  0.00    +0.000 A 
ATOM     10  C   UNL     1       4.030   3.284  19.419  0.00  0.00    +0.000 A 
ATOM     11  C   UNL     1       2.800   2.637  19.339  0.00  0.00    +0.000 A 
ATOM     12  C   UNL     1       1.710   3.303  18.805  0.00  0.00    +0.000 A 
ATOM     13  C   UNL     1       1.873   4.590  18.303  0.00  0.00    +0.000 A 
ATOM     14  C   UNL     1       3.059   5.305  18.481  0.00  0.00    +0.000 A 
BRANCH   9  18
ATOM     15  C   UNL     1       7.737   5.816  19.109  0.00  0.00    +0.000 C 
ATOM     16  C   UNL     1       6.495   5.190  18.526  0.00  0.00    +0.000 C 
ATOM     17  O   UNL     1       6.515   4.652  17.425  0.00  0.00    +0.000 OA
ATOM     18  N   UNL     1       5.392   5.270  19.362  0.00  0.00    +0.000 N 
ATOM     19  H   UNL     1       5.337   6.091  19.956  0.00  0.00    +0.000 HD
ENDBRANCH   9  18
ENDBRANCH   1  14
BRANCH   6  20
ATOM     20  C   UNL     1       0.849  10.713  20.430  0.00  0.00    +0.000 C 
BRANCH  20  21
ATOM     21  C   UNL     1      -0.255  11.374  21.243  0.00  0.00    +0.000 A 
ATOM     22  C   UNL     1      -1.013  12.441  20.735  0.00  0.00    +0.000 A 
ATOM     23  C   UNL     1      -2.078  12.968  21.474  0.00  0.00    +0.000 A 
ATOM     24  C   UNL     1      -2.422  12.408  22.704  0.00  0.00    +0.000 A 
ATOM     25  C   UNL     1      -1.658  11.370  23.230  0.00  0.00    +0.000 A 
ATOM     26  C   UNL     1      -0.558  10.884  22.522  0.00  0.00    +0.000 A 
ENDBRANCH  20  21
ENDBRANCH   6  20
TORSDOF 4
ENDMDL
MODEL 3
REMARK VINA RESULT:      -7.1      1.577      1.643
REMARK  Name = 
REMARK  5 active torsions:
REMARK  status: ('A' for Active; 'I' for Inactive)
REMARK    1  A    between atoms: C_1  and  C_2
REMARK    2  A    between atoms: N_4  and  C_5
REMARK    3  A    between atoms: C_10  and  C_11
REMARK    4  A    between atoms: N_16  and  C_17
REMARK    5  A    between atoms: C_17  and  C_18
REMARK                            x       y       z     vdW  Elec       q    Type
REMARK                         _______ _______ _______ _____ _____    ______ ____
ROOT
ATOM      1  C   UNL     1       2.524   6.958  19.021  0.00  0.00    +0.000 C 
ATOM      2  O   UNL     1       3.133   7.151  17.984  0.00  0.00    +0.000 OA
ATOM      3  N   UNL     1       1.797   7.966  19.673  0.00  0.00    +0.000 N 
ATOM      4  C   UNL     1       1.649   9.273  19.033  0.00  0.00    +0.000 C 
ATOM      5  C   UNL     1       0.219   9.829  19.195  0.00  0.00    +0.000 C 
ATOM      6  N   UNL     1      -0.361   9.787  20.565  0.00  0.00    +0.000 NA
ATOM      7  C   UNL     1      -0.056   8.498  21.236  0.00  0.00    +0.000 C 
ATOM      8  C   UNL     1       1.397   8.000  21.085  0.00  0.00    +0.000 C 
ENDROOT
BRANCH   1  14
ATOM      9  C   UNL     1       3.688   4.771  19.692  0.00  0.00    +0.000 A 
ATOM     10  C   UNL     1       3.583   3.453  20.180  0.00  0.00    +0.000 A 
ATOM     11  C   UNL     1       2.377   2.960  20.670  0.00  0.00    +0.000 A 
ATOM     12  C   UNL     1       1.241   3.748  20.612  0.00  0.00    +0.000 A 
ATOM     13  C   UNL     1       1.307   5.000  20.011  0.00  0.00    +0.000 A 
ATOM     14  C   UNL     1       2.522   5.568  19.623  0.00  0.00    +0.000 A 
BRANCH   9  18
ATOM     15  C   UNL     1       7.104   5.393  18.257  0.00  0.00    +0.000 C 
ATOM     16  C   UNL     1       5.687   4.879  18.291  0.00  0.00    +0.000 C 
ATOM     17  O   UNL     1       5.247   4.175  17.389  0.00  0.00    +0.000 OA
ATOM     18  N   UNL     1       4.989   5.259  19.427  0.00  0.00    +0.000 N 
ATOM     19  H   UNL     1       5.229   6.162  19.821  0.00  0.00    +0.000 HD
ENDBRANCH   9  18
ENDBRANCH   1  14
BRANCH   6  20
ATOM     20  C   UNL     1       0.073  10.947  21.354  0.00  0.00    +0.000 C 
BRANCH  20  21
ATOM     21  C   UNL     1      -1.074  11.817  21.845  0.00  0.00    +0.000 A 
ATOM     22  C   UNL     1      -1.560  12.899  21.094  0.00  0.00    +0.000 A 
ATOM     23  C   UNL     1      -2.674  13.623  21.534  0.00  0.00    +0.000 A 
ATOM     24  C   UNL     1      -3.337  13.247  22.702  0.00  0.00    +0.000 A 
ATOM     25  C   UNL     1      -2.846  12.195  23.469  0.00  0.00    +0.000 A 
ATOM     26  C   UNL     1      -1.700  11.511  23.063  0.00  0.00    +0.000 A 
ENDBRANCH  20  21
ENDBRANCH   6  20
TORSDOF 4
ENDMDL
MODEL 4
REMARK VINA RESULT:      -7.0      4.013      9.434
REMARK  Name = 
REMARK  5 active torsions:
REMARK  status: ('A' for Active; 'I' for Inactive)
REMARK    1  A    between atoms: C_1  and  C_2
REMARK    2  A    between atoms: N_4  and  C_5
REMARK    3  A    between atoms: C_10  and  C_11
REMARK    4  A    between atoms: N_16  and  C_17
REMARK    5  A    between atoms: C_17  and  C_18
REMARK                            x       y       z     vdW  Elec       q    Type
REMARK                         _______ _______ _______ _____ _____    ______ ____
ROOT
ATOM      1  C   UNL     1       5.255   5.165  19.068  0.00  0.00    +0.000 C 
ATOM      2  O   UNL     1       5.962   5.886  19.750  0.00  0.00    +0.000 OA
ATOM      3  N   UNL     1       5.538   4.877  17.724  0.00  0.00    +0.000 N 
ATOM      4  C   UNL     1       6.793   5.348  17.138  0.00  0.00    +0.000 C 
ATOM      5  C   UNL     1       7.438   4.276  16.235  0.00  0.00    +0.000 C 
ATOM      6  N   UNL     1       6.548   3.617  15.242  0.00  0.00    +0.000 NA
ATOM      7  C   UNL     1       5.227   3.292  15.839  0.00  0.00    +0.000 C 
ATOM      8  C   UNL     1       4.597   4.409  16.699  0.00  0.00    +0.000 C 
ENDROOT
BRANCH   1  14
ATOM      9  C   UNL     1       2.918   5.286  20.123  0.00  0.00    +0.000 A 
ATOM     10  C   UNL     1       1.862   4.628  20.785  0.00  0.00    +0.000 A 
ATOM     11  C   UNL     1       1.862   3.246  20.945  0.00  0.00    +0.000 A 
ATOM     12  C   UNL     1       2.949   2.506  20.515  0.00  0.00    +0.000 A 
ATOM     13  C   UNL     1       4.054   3.161  19.981  0.00  0.00    +0.000 A 
ATOM     14  C   UNL     1       4.033   4.528  19.696  0.00  0.00    +0.000 A 
BRANCH   9  18
ATOM     15  C   UNL     1       2.286   8.547  18.368  0.00  0.00    +0.000 C 
ATOM     16  C   UNL     1       2.290   7.051  18.555  0.00  0.00    +0.000 C 
ATOM     17  O   UNL     1       1.953   6.299  17.647  0.00  0.00    +0.000 OA
ATOM     18  N   UNL     1       2.730   6.652  19.808  0.00  0.00    +0.000 N 
ATOM     19  H   UNL     1       2.517   7.276  20.578  0.00  0.00    +0.000 HD
ENDBRANCH   9  18
ENDBRANCH   1  14
BRANCH   6  20
ATOM     20  C   UNL     1       6.429   4.429  14.024  0.00  0.00    +0.000 C 
BRANCH  20  21
ATOM     21  C   UNL     1       5.921   3.653  12.818  0.00  0.00    +0.000 A 
ATOM     22  C   UNL     1       6.663   2.612  12.239  0.00  0.00    +0.000 A 
ATOM     23  C   UNL     1       6.127   1.861  11.186  0.00  0.00    +0.000 A 
ATOM     24  C   UNL     1       4.833   2.113  10.734  0.00  0.00    +0.000 A 
ATOM     25  C   UNL     1       4.099   3.162  11.282  0.00  0.00    +0.000 A 
ATOM     26  C   UNL     1       4.656   3.951  12.289  0.00  0.00    +0.000 A 
ENDBRANCH  20  21
ENDBRANCH   6  20
TORSDOF 4
ENDMDL
MODEL 5
REMARK VINA RESULT:      -7.0      1.095      1.475
REMARK  Name = 
REMARK  5 active torsions:
REMARK  status: ('A' for Active; 'I' for Inactive)
REMARK    1  A    between atoms: C_1  and  C_2
REMARK    2  A    between atoms: N_4  and  C_5
REMARK    3  A    between atoms: C_10  and  C_11
REMARK    4  A    between atoms: N_16  and  C_17
REMARK    5  A    between atoms: C_17  and  C_18
REMARK                            x       y       z     vdW  Elec       q    Type
REMARK                         _______ _______ _______ _____ _____    ______ ____
ROOT
ATOM      1  C   UNL     1       2.877   6.802  18.288  0.00  0.00    +0.000 C 
ATOM      2  O   UNL     1       3.439   7.180  17.275  0.00  0.00    +0.000 OA
ATOM      3  N   UNL     1       2.228   7.683  19.168  0.00  0.00    +0.000 N 
ATOM      4  C   UNL     1       2.103   9.095  18.809  0.00  0.00    +0.000 C 
ATOM      5  C   UNL     1       0.708   9.652  19.162  0.00  0.00    +0.000 C 
ATOM      6  N   UNL     1       0.198   9.356  20.528  0.00  0.00    +0.000 NA
ATOM      7  C   UNL     1       0.482   7.949  20.913  0.00  0.00    +0.000 C 
ATOM      8  C   UNL     1       1.904   7.446  20.581  0.00  0.00    +0.000 C 
ENDROOT
BRANCH   1  14
ATOM      9  C   UNL     1       4.004   4.607  18.995  0.00  0.00    +0.000 A 
ATOM     10  C   UNL     1       3.912   3.213  19.177  0.00  0.00    +0.000 A 
ATOM     11  C   UNL     1       2.694   2.549  19.063  0.00  0.00    +0.000 A 
ATOM     12  C   UNL     1       1.563   3.254  18.691  0.00  0.00    +0.000 A 
ATOM     13  C   UNL     1       1.670   4.605  18.379  0.00  0.00    +0.000 A 
ATOM     14  C   UNL     1       2.848   5.322  18.603  0.00  0.00    +0.000 A 
BRANCH   9  18
ATOM     15  C   UNL     1       7.550   5.842  19.082  0.00  0.00    +0.000 C 
ATOM     16  C   UNL     1       6.298   5.266  18.473  0.00  0.00    +0.000 C 
ATOM     17  O   UNL     1       6.284   4.862  17.315  0.00  0.00    +0.000 OA
ATOM     18  N   UNL     1       5.225   5.225  19.351  0.00  0.00    +0.000 N 
ATOM     19  H   UNL     1       5.180   5.969  20.039  0.00  0.00    +0.000 HD
ENDBRANCH   9  18
ENDBRANCH   1  14
BRANCH   6  20
ATOM     20  C   UNL     1       0.722  10.321  21.503  0.00  0.00    +0.000 C 
BRANCH  20  21
ATOM     21  C   UNL     1      -0.297  11.363  21.939  0.00  0.00    +0.000 A 
ATOM     22  C   UNL     1      -1.276  11.086  22.906  0.00  0.00    +0.000 A 
ATOM     23  C   UNL     1      -2.141  12.094  23.347  0.00  0.00    +0.000 A 
ATOM     24  C   UNL     1      -2.009  13.394  22.860  0.00  0.00    +0.000 A 
ATOM     25  C   UNL     1      -1.061  13.673  21.879  0.00  0.00    +0.000 A 
ATOM     26  C   UNL     1      -0.239  12.655  21.394  0.00  0.00    +0.000 A 
ENDBRANCH  20  21
ENDBRANCH   6  20
TORSDOF 4
ENDMDL
MODEL 6
REMARK VINA RESULT:      -7.0      2.178      3.625
REMARK  Name = 
REMARK  5 active torsions:
REMARK  status: ('A' for Active; 'I' for Inactive)
REMARK    1  A    between atoms: C_1  and  C_2
REMARK    2  A    between atoms: N_4  and  C_5
REMARK    3  A    between atoms: C_10  and  C_11
REMARK    4  A    between atoms: N_16  and  C_17
REMARK    5  A    between atoms: C_17  and  C_18
REMARK                            x       y       z     vdW  Elec       q    Type
REMARK                         _______ _______ _______ _____ _____    ______ ____
ROOT
ATOM      1  C   UNL     1       2.955   6.327  19.259  0.00  0.00    +0.000 C 
ATOM      2  O   UNL     1       3.056   5.699  20.299  0.00  0.00    +0.000 OA
ATOM      3  N   UNL     1       2.163   7.480  19.143  0.00  0.00    +0.000 N 
ATOM      4  C   UNL     1       1.526   8.036  20.337  0.00  0.00    +0.000 C 
ATOM      5  C   UNL     1       1.609   9.577  20.362  0.00  0.00    +0.000 C 
ATOM      6  N   UNL     1       1.219  10.286  19.115  0.00  0.00    +0.000 NA
ATOM      7  C   UNL     1       1.762   9.599  17.915  0.00  0.00    +0.000 C 
ATOM      8  C   UNL     1       1.618   8.062  17.910  0.00  0.00    +0.000 C 
ENDROOT
BRANCH   1  14
ATOM      9  C   UNL     1       3.816   4.508  17.666  0.00  0.00    +0.000 A 
ATOM     10  C   UNL     1       4.641   4.153  16.580  0.00  0.00    +0.000 A 
ATOM     11  C   UNL     1       5.302   5.121  15.830  0.00  0.00    +0.000 A 
ATOM     12  C   UNL     1       5.212   6.452  16.197  0.00  0.00    +0.000 A 
ATOM     13  C   UNL     1       4.508   6.798  17.346  0.00  0.00    +0.000 A 
ATOM     14  C   UNL     1       3.736   5.868  18.046  0.00  0.00    +0.000 A 
BRANCH   9  18
ATOM     15  C   UNL     1       0.943   2.353  18.767  0.00  0.00    +0.000 C 
ATOM     16  C   UNL     1       1.649   3.423  17.974  0.00  0.00    +0.000 C 
ATOM     17  O   UNL     1       1.031   4.157  17.211  0.00  0.00    +0.000 OA
ATOM     18  N   UNL     1       3.011   3.489  18.225  0.00  0.00    +0.000 N 
ATOM     19  H   UNL     1       3.470   2.612  18.447  0.00  0.00    +0.000 HD
ENDBRANCH   9  18
ENDBRANCH   1  14
BRANCH   6  20
ATOM     20  C   UNL     1      -0.237  10.465  19.047  0.00  0.00    +0.000 C 
BRANCH  20  21
ATOM     21  C   UNL     1      -0.702  11.857  19.452  0.00  0.00    +0.000 A 
ATOM     22  C   UNL     1      -1.583  12.063  20.524  0.00  0.00    +0.000 A 
ATOM     23  C   UNL     1      -1.921  13.361  20.924  0.00  0.00    +0.000 A 
ATOM     24  C   UNL     1      -1.348  14.461  20.287  0.00  0.00    +0.000 A 
ATOM     25  C   UNL     1      -0.496  14.268  19.204  0.00  0.00    +0.000 A 
ATOM     26  C   UNL     1      -0.207  12.976  18.765  0.00  0.00    +0.000 A 
ENDBRANCH  20  21
ENDBRANCH   6  20
TORSDOF 4
ENDMDL
MODEL 7
REMARK VINA RESULT:      -6.9      1.409      1.745
REMARK  Name = 
REMARK  5 active torsions:
REMARK  status: ('A' for Active; 'I' for Inactive)
REMARK    1  A    between atoms: C_1  and  C_2
REMARK    2  A    between atoms: N_4  and  C_5
REMARK    3  A    between atoms: C_10  and  C_11
REMARK    4  A    between atoms: N_16  and  C_17
REMARK    5  A    between atoms: C_17  and  C_18
REMARK                            x       y       z     vdW  Elec       q    Type
REMARK                         _______ _______ _______ _____ _____    ______ ____
ROOT
ATOM      1  C   UNL     1       2.213   7.512  18.999  0.00  0.00    +0.000 C 
ATOM      2  O   UNL     1       2.572   7.749  17.858  0.00  0.00    +0.000 OA
ATOM      3  N   UNL     1       1.575   8.466  19.807  0.00  0.00    +0.000 N 
ATOM      4  C   UNL     1       1.203   9.760  19.233  0.00  0.00    +0.000 C 
ATOM      5  C   UNL     1      -0.194  10.212  19.706  0.00  0.00    +0.000 C 
ATOM      6  N   UNL     1      -0.463  10.129  21.167  0.00  0.00    +0.000 NA
ATOM      7  C   UNL     1       0.067   8.864  21.737  0.00  0.00    +0.000 C 
ATOM      8  C   UNL     1       1.486   8.471  21.272  0.00  0.00    +0.000 C 
ENDROOT
BRANCH   1  14
ATOM      9  C   UNL     1       3.640   5.409  19.363  0.00  0.00    +0.000 A 
ATOM     10  C   UNL     1       3.732   4.087  19.842  0.00  0.00    +0.000 A 
ATOM     11  C   UNL     1       2.700   3.514  20.580  0.00  0.00    +0.000 A 
ATOM     12  C   UNL     1       1.530   4.223  20.786  0.00  0.00    +0.000 A 
ATOM     13  C   UNL     1       1.378   5.477  20.204  0.00  0.00    +0.000 A 
ATOM     14  C   UNL     1       2.437   6.126  19.565  0.00  0.00    +0.000 A 
BRANCH   9  18
ATOM     15  C   UNL     1       6.575   6.295  17.192  0.00  0.00    +0.000 C 
ATOM     16  C   UNL     1       5.233   5.698  17.533  0.00  0.00    +0.000 C 
ATOM     17  O   UNL     1       4.621   5.012  16.723  0.00  0.00    +0.000 OA
ATOM     18  N   UNL     1       4.814   5.984  18.824  0.00  0.00    +0.000 N 
ATOM     19  H   UNL     1       5.101   6.881  19.201  0.00  0.00    +0.000 HD
ENDBRANCH   9  18
ENDBRANCH   1  14
BRANCH   6  20
ATOM     20  C   UNL     1       0.049  11.316  21.863  0.00  0.00    +0.000 C 
BRANCH  20  21
ATOM     21  C   UNL     1      -1.036  12.150  22.529  0.00  0.00    +0.000 A 
ATOM     22  C   UNL     1      -2.213  11.572  23.030  0.00  0.00    +0.000 A 
ATOM     23  C   UNL     1      -3.150  12.354  23.714  0.00  0.00    +0.000 A 
ATOM     24  C   UNL     1      -2.900  13.707  23.943  0.00  0.00    +0.000 A 
ATOM     25  C   UNL     1      -1.750  14.296  23.425  0.00  0.00    +0.000 A 
ATOM     26  C   UNL     1      -0.844  13.530  22.690  0.00  0.00    +0.000 A 
ENDBRANCH  20  21
ENDBRANCH   6  20
TORSDOF 4
ENDMDL
MODEL 8
REMARK VINA RESULT:      -6.9      2.115      2.687
REMARK  Name = 
REMARK  5 active torsions:
REMARK  status: ('A' for Active; 'I' for Inactive)
REMARK    1  A    between atoms: C_1  and  C_2
REMARK    2  A    between atoms: N_4  and  C_5
REMARK    3  A    between atoms: C_10  and  C_11
REMARK    4  A    between atoms: N_16  and  C_17
REMARK    5  A    between atoms: C_17  and  C_18
REMARK                            x       y       z     vdW  Elec       q    Type
REMARK                         _______ _______ _______ _____ _____    ______ ____
ROOT
ATOM      1  C   UNL     1       2.557   6.544  18.818  0.00  0.00    +0.000 C 
ATOM      2  O   UNL     1       3.039   6.584  17.699  0.00  0.00    +0.000 OA
ATOM      3  N   UNL     1       2.024   7.676  19.455  0.00  0.00    +0.000 N 
ATOM      4  C   UNL     1       1.920   8.934  18.716  0.00  0.00    +0.000 C 
ATOM      5  C   UNL     1       0.585   9.653  19.000  0.00  0.00    +0.000 C 
ATOM      6  N   UNL     1       0.191   9.787  20.428  0.00  0.00    +0.000 NA
ATOM      7  C   UNL     1       0.455   8.532  21.177  0.00  0.00    +0.000 C 
ATOM      8  C   UNL     1       1.821   7.869  20.896  0.00  0.00    +0.000 C 
ENDROOT
BRANCH   1  14
ATOM      9  C   UNL     1       3.624   4.365  19.656  0.00  0.00    +0.000 A 
ATOM     10  C   UNL     1       3.465   3.105  20.266  0.00  0.00    +0.000 A 
ATOM     11  C   UNL     1       2.251   2.728  20.833  0.00  0.00    +0.000 A 
ATOM     12  C   UNL     1       1.157   3.569  20.734  0.00  0.00    +0.000 A 
ATOM     13  C   UNL     1       1.270   4.756  20.017  0.00  0.00    +0.000 A 
ATOM     14  C   UNL     1       2.501   5.218  19.546  0.00  0.00    +0.000 A 
BRANCH   9  18
ATOM     15  C   UNL     1       6.962   4.773  17.980  0.00  0.00    +0.000 C 
ATOM     16  C   UNL     1       5.511   4.383  18.103  0.00  0.00    +0.000 C 
ATOM     17  O   UNL     1       4.940   3.775  17.205  0.00  0.00    +0.000 OA
ATOM     18  N   UNL     1       4.940   4.753  19.311  0.00  0.00    +0.000 N 
ATOM     19  H   UNL     1       5.291   5.608  19.731  0.00  0.00    +0.000 HD
ENDBRANCH   9  18
ENDBRANCH   1  14
BRANCH   6  20
ATOM     20  C   UNL     1       0.836  10.954  21.043  0.00  0.00    +0.000 C 
BRANCH  20  21
ATOM     21  C   UNL     1       0.638  12.245  20.261  0.00  0.00    +0.000 A 
ATOM     22  C   UNL     1      -0.619  12.857  20.145  0.00  0.00    +0.000 A 
ATOM     23  C   UNL     1      -0.750  14.088  19.493  0.00  0.00    +0.000 A 
ATOM     24  C   UNL     1       0.377  14.739  18.992  0.00  0.00    +0.000 A 
ATOM     25  C   UNL     1       1.624  14.127  19.076  0.00  0.00    +0.000 A 
ATOM     26  C   UNL     1       1.747  12.871  19.671  0.00  0.00    +0.000 A 
ENDBRANCH  20  21
ENDBRANCH   6  20
TORSDOF 4
ENDMDL
MODEL 9
REMARK VINA RESULT:      -6.8      1.899      3.360
REMARK  Name = 
REMARK  5 active torsions:
REMARK  status: ('A' for Active; 'I' for Inactive)
REMARK    1  A    between atoms: C_1  and  C_2
REMARK    2  A    between atoms: N_4  and  C_5
REMARK    3  A    between atoms: C_10  and  C_11
REMARK    4  A    between atoms: N_16  and  C_17
REMARK    5  A    between atoms: C_17  and  C_18
REMARK                            x       y       z     vdW  Elec       q    Type
REMARK                         _______ _______ _______ _____ _____    ______ ____
ROOT
ATOM      1  C   UNL     1       3.141   6.178  19.255  0.00  0.00    +0.000 C 
ATOM      2  O   UNL     1       3.353   5.498  20.244  0.00  0.00    +0.000 OA
ATOM      3  N   UNL     1       2.281   7.287  19.266  0.00  0.00    +0.000 N 
ATOM      4  C   UNL     1       1.705   7.736  20.534  0.00  0.00    +0.000 C 
ATOM      5  C   UNL     1       1.707   9.275  20.648  0.00  0.00    +0.000 C 
ATOM      6  N   UNL     1       1.187  10.030  19.477  0.00  0.00    +0.000 NA
ATOM      7  C   UNL     1       1.677   9.446  18.202  0.00  0.00    +0.000 C 
ATOM      8  C   UNL     1       1.615   7.906  18.113  0.00  0.00    +0.000 C 
ENDROOT
BRANCH   1  14
ATOM      9  C   UNL     1       3.943   4.510  17.476  0.00  0.00    +0.000 A 
ATOM     10  C   UNL     1       4.705   4.263  16.317  0.00  0.00    +0.000 A 
ATOM     11  C   UNL     1       5.291   5.305  15.603  0.00  0.00    +0.000 A 
ATOM     12  C   UNL     1       5.190   6.601  16.076  0.00  0.00    +0.000 A 
ATOM     13  C   UNL     1       4.554   6.838  17.290  0.00  0.00    +0.000 A 
ATOM     14  C   UNL     1       3.853   5.835  17.963  0.00  0.00    +0.000 A 
BRANCH   9  18
ATOM     15  C   UNL     1       1.205   2.213  18.632  0.00  0.00    +0.000 C 
ATOM     16  C   UNL     1       1.823   3.369  17.887  0.00  0.00    +0.000 C 
ATOM     17  O   UNL     1       1.127   4.169  17.271  0.00  0.00    +0.000 OA
ATOM     18  N   UNL     1       3.203   3.428  18.005  0.00  0.00    +0.000 N 
ATOM     19  H   UNL     1       3.685   2.539  18.087  0.00  0.00    +0.000 HD
ENDBRANCH   9  18
ENDBRANCH   1  14
BRANCH   6  20
ATOM     20  C   UNL     1      -0.277  10.128  19.524  0.00  0.00    +0.000 C 
BRANCH  20  21
ATOM     21  C   UNL     1      -0.792  11.098  20.578  0.00  0.00    +0.000 A 
ATOM     22  C   UNL     1      -0.861  10.750  21.936  0.00  0.00    +0.000 A 
ATOM     23  C   UNL     1      -1.256  11.695  22.889  0.00  0.00    +0.000 A 
ATOM     24  C   UNL     1      -1.542  13.004  22.502  0.00  0.00    +0.000 A 
ATOM     25  C   UNL     1      -1.505  13.351  21.155  0.00  0.00    +0.000 A 
ATOM     26  C   UNL     1      -1.171  12.394  20.196  0.00  0.00    +0.000 A 
ENDBRANCH  20  21
ENDBRANCH   6  20
TORSDOF 4
ENDMDL
