MODEL 1
REMARK VINA RESULT:      -7.5      0.000      0.000
REMARK  Name = 
REMARK  12 active torsions:
REMARK  status: ('A' for Active; 'I' for Inactive)
REMARK    1  A    between atoms: C_1  and  O_2
REMARK    2  A    between atoms: O_2  and  C_3
REMARK    3  A    between atoms: C_5  and  C_6
REMARK    4  A    between atoms: C_7  and  C_8
REMARK    5  A    between atoms: C_13  and  C_14
REMARK    6  A    between atoms: C_16  and  N_17
REMARK    7  A    between atoms: C_20  and  C_21
REMARK    8  A    between atoms: C_21  and  C_22
REMARK    9  A    between atoms: C_22  and  C_23
REMARK   10  A    between atoms: C_22  and  O_25
REMARK   11  A    between atoms: C_23  and  O_24
REMARK   12  A    between atoms: O_25  and  C_26
REMARK                            x       y       z     vdW  Elec       q    Type
REMARK                         _______ _______ _______ _____ _____    ______ ____
ROOT
ATOM      1  C   UNL     1       2.263   7.061  19.898  0.00  0.00    +0.000 A 
ATOM      2  C   UNL     1       1.365   7.606  20.816  0.00  0.00    +0.000 A 
ATOM      3  C   UNL     1       0.703   8.830  20.586  0.00  0.00    +0.000 A 
ATOM      4  C   UNL     1      -0.273   9.233  21.664  0.00  0.00    +0.000 C 
ATOM      5  C   UNL     1       0.957   9.568  19.399  0.00  0.00    +0.000 A 
ATOM      6  C   UNL     1       1.798   8.936  18.449  0.00  0.00    +0.000 A 
ATOM      7  C   UNL     1       2.492   7.733  18.690  0.00  0.00    +0.000 A 
ENDROOT
BRANCH   5   8
ATOM      8  C   UNL     1       0.443  10.961  19.137  0.00  0.00    +0.000 A 
ATOM      9  C   UNL     1       1.240  12.078  19.474  0.00  0.00    +0.000 A 
ATOM     10  C   UNL     1       0.926  13.382  19.079  0.00  0.00    +0.000 A 
ATOM     11  C   UNL     1      -0.254  13.636  18.404  0.00  0.00    +0.000 A 
ATOM     12  C   UNL     1      -1.127  12.585  18.154  0.00  0.00    +0.000 A 
ATOM     13  C   UNL     1      -0.801  11.252  18.501  0.00  0.00    +0.000 A 
ATOM     14  C   UNL     1      -1.865  10.230  18.185  0.00  0.00    +0.000 C 
ENDBRANCH   5   8
BRANCH   7  15
ATOM     15  N   UNL     1       3.356   7.282  17.661  0.00  0.00    +0.000 N 
ATOM     16  C   UNL     1       3.737   6.003  17.459  0.00  0.00    +0.000 A 
ATOM     17  N   UNL     1       2.966   4.955  17.604  0.00  0.00    +0.000 NA
ATOM     18  C   UNL     1       3.651   3.796  17.324  0.00  0.00    +0.000 A 
ATOM     19  C   UNL     1       4.969   3.978  16.955  0.00  0.00    +0.000 A 
ATOM     20  S   UNL     1       5.328   5.648  16.893  0.00  0.00    +0.000 S 
ATOM     21  H   UNL     1       3.938   8.017  17.283  0.00  0.00    +0.000 HD
BRANCH  18  22
ATOM     22  C   UNL     1       2.917   2.509  17.427  0.00  0.00    +0.000 C 
BRANCH  22  23
ATOM     23  C   UNL     1       3.066   1.830  18.800  0.00  0.00    +0.000 C 
BRANCH  23  24
ATOM     24  O   UNL     1       1.862   1.916  19.597  0.00  0.00    +0.000 OA
ATOM     25  C   UNL     1       0.700   2.374  18.920  0.00  0.00    +0.000 C 
ENDBRANCH  23  24
BRANCH  23  26
ATOM     26  C   UNL     1       4.285   2.325  19.604  0.00  0.00    +0.000 C 
BRANCH  26  27
ATOM     27  O   UNL     1       4.126   2.047  20.996  0.00  0.00    +0.000 OA
ATOM     28  H   UNL     1       5.008   2.120  21.406  0.00  0.00    +0.000 HD
ENDBRANCH  26  27
ENDBRANCH  23  26
ENDBRANCH  22  23
ENDBRANCH  18  22
ENDBRANCH   7  15
BRANCH   1  30
ATOM     29  C   UNL     1       2.386   4.975  21.026  0.00  0.00    +0.000 C 
ATOM     30  O   UNL     1       3.013   5.946  20.195  0.00  0.00    +0.000 OA
ENDBRANCH   1  30
TORSDOF 8
ENDMDL
MODEL 2
REMARK VINA RESULT:      -7.3      3.977      8.697
REMARK  Name = 
REMARK  12 active torsions:
REMARK  status: ('A' for Active; 'I' for Inactive)
REMARK    1  A    between atoms: C_1  and  O_2
REMARK    2  A    between atoms: O_2  and  C_3
REMARK    3  A    between atoms: C_5  and  C_6
REMARK    4  A    between atoms: C_7  and  C_8
REMARK    5  A    between atoms: C_13  and  C_14
REMARK    6  A    between atoms: C_16  and  N_17
REMARK    7  A    between atoms: C_20  and  C_21
REMARK    8  A    between atoms: C_21  and  C_22
REMARK    9  A    between atoms: C_22  and  C_23
REMARK   10  A    between atoms: C_22  and  O_25
REMARK   11  A    between atoms: C_23  and  O_24
REMARK   12  A    between atoms: O_25  and  C_26
REMARK                            x       y       z     vdW  Elec       q    Type
REMARK                         _______ _______ _______ _____ _____    ______ ____
ROOT
ATOM      1  C   UNL     1       0.703   8.985  20.237  0.00  0.00    +0.000 A 
ATOM      2  C   UNL     1       1.166   7.796  20.803  0.00  0.00    +0.000 A 
ATOM      3  C   UNL     1       2.050   6.933  20.122  0.00  0.00    +0.000 A 
ATOM      4  C   UNL     1       2.486   5.724  20.913  0.00  0.00    +0.000 C 
ATOM      5  C   UNL     1       2.481   7.244  18.804  0.00  0.00    +0.000 A 
ATOM      6  C   UNL     1       2.068   8.504  18.304  0.00  0.00    +0.000 A 
ATOM      7  C   UNL     1       1.155   9.353  18.963  0.00  0.00    +0.000 A 
ENDROOT
BRANCH   5   8
ATOM      8  C   UNL     1       3.276   6.312  17.927  0.00  0.00    +0.000 A 
ATOM      9  C   UNL     1       4.542   6.711  17.443  0.00  0.00    +0.000 A 
ATOM     10  C   UNL     1       5.422   5.835  16.801  0.00  0.00    +0.000 A 
ATOM     11  C   UNL     1       5.032   4.536  16.533  0.00  0.00    +0.000 A 
ATOM     12  C   UNL     1       3.750   4.130  16.885  0.00  0.00    +0.000 A 
ATOM     13  C   UNL     1       2.867   4.988  17.581  0.00  0.00    +0.000 A 
ATOM     14  C   UNL     1       1.504   4.407  17.869  0.00  0.00    +0.000 C 
ENDBRANCH   5   8
BRANCH   7  15
ATOM     15  N   UNL     1       0.787  10.540  18.282  0.00  0.00    +0.000 N 
ATOM     16  C   UNL     1       1.004  11.797  18.722  0.00  0.00    +0.000 A 
ATOM     17  N   UNL     1       2.079  12.202  19.349  0.00  0.00    +0.000 NA
ATOM     18  C   UNL     1       1.992  13.538  19.665  0.00  0.00    +0.000 A 
ATOM     19  C   UNL     1       0.825  14.153  19.260  0.00  0.00    +0.000 A 
ATOM     20  S   UNL     1      -0.150  13.040  18.404  0.00  0.00    +0.000 S 
ATOM     21  H   UNL     1       0.057  10.394  17.600  0.00  0.00    +0.000 HD
BRANCH  18  22
ATOM     22  C   UNL     1       3.139  14.163  20.372  0.00  0.00    +0.000 C 
BRANCH  22  23
ATOM     23  C   UNL     1       3.943  15.134  19.490  0.00  0.00    +0.000 C 
BRANCH  23  24
ATOM     24  O   UNL     1       3.277  16.406  19.313  0.00  0.00    +0.000 OA
ATOM     25  C   UNL     1       3.571  17.402  20.282  0.00  0.00    +0.000 C 
ENDBRANCH  23  24
BRANCH  23  26
ATOM     26  C   UNL     1       4.346  14.539  18.125  0.00  0.00    +0.000 C 
BRANCH  26  27
ATOM     27  O   UNL     1       3.719  15.247  17.054  0.00  0.00    +0.000 OA
ATOM     28  H   UNL     1       3.381  14.579  16.428  0.00  0.00    +0.000 HD
ENDBRANCH  26  27
ENDBRANCH  23  26
ENDBRANCH  22  23
ENDBRANCH  18  22
ENDBRANCH   7  15
BRANCH   1  30
ATOM     29  C   UNL     1       0.057  10.266  22.128  0.00  0.00    +0.000 C 
ATOM     30  O   UNL     1      -0.271   9.743  20.845  0.00  0.00    +0.000 OA
ENDBRANCH   1  30
TORSDOF 8
ENDMDL
MODEL 3
REMARK VINA RESULT:      -7.2      4.113      8.775
REMARK  Name = 
REMARK  12 active torsions:
REMARK  status: ('A' for Active; 'I' for Inactive)
REMARK    1  A    between atoms: C_1  and  O_2
REMARK    2  A    between atoms: O_2  and  C_3
REMARK    3  A    between atoms: C_5  and  C_6
REMARK    4  A    between atoms: C_7  and  C_8
REMARK    5  A    between atoms: C_13  and  C_14
REMARK    6  A    between atoms: C_16  and  N_17
REMARK    7  A    between atoms: C_20  and  C_21
REMARK    8  A    between atoms: C_21  and  C_22
REMARK    9  A    between atoms: C_22  and  C_23
REMARK   10  A    between atoms: C_22  and  O_25
REMARK   11  A    between atoms: C_23  and  O_24
REMARK   12  A    between atoms: O_25  and  C_26
REMARK                            x       y       z     vdW  Elec       q    Type
REMARK                         _______ _______ _______ _____ _____    ______ ____
ROOT
ATOM      1  C   UNL     1       0.658   9.033  20.226  0.00  0.00    +0.000 A 
ATOM      2  C   UNL     1       1.171   7.869  20.799  0.00  0.00    +0.000 A 
ATOM      3  C   UNL     1       2.075   7.029  20.115  0.00  0.00    +0.000 A 
ATOM      4  C   UNL     1       2.565   5.846  20.913  0.00  0.00    +0.000 C 
ATOM      5  C   UNL     1       2.475   7.339  18.788  0.00  0.00    +0.000 A 
ATOM      6  C   UNL     1       2.011   8.577  18.278  0.00  0.00    +0.000 A 
ATOM      7  C   UNL     1       1.078   9.401  18.940  0.00  0.00    +0.000 A 
ENDROOT
BRANCH   5   8
ATOM      8  C   UNL     1       3.290   6.424  17.910  0.00  0.00    +0.000 A 
ATOM      9  C   UNL     1       4.533   6.863  17.400  0.00  0.00    +0.000 A 
ATOM     10  C   UNL     1       5.434   6.010  16.755  0.00  0.00    +0.000 A 
ATOM     11  C   UNL     1       5.088   4.695  16.511  0.00  0.00    +0.000 A 
ATOM     12  C   UNL     1       3.828   4.248  16.888  0.00  0.00    +0.000 A 
ATOM     13  C   UNL     1       2.924   5.082  17.588  0.00  0.00    +0.000 A 
ATOM     14  C   UNL     1       1.588   4.456  17.904  0.00  0.00    +0.000 C 
ENDBRANCH   5   8
BRANCH   7  15
ATOM     15  N   UNL     1       0.658  10.566  18.251  0.00  0.00    +0.000 N 
ATOM     16  C   UNL     1       0.961  11.835  18.596  0.00  0.00    +0.000 A 
ATOM     17  N   UNL     1       2.116  12.234  19.064  0.00  0.00    +0.000 NA
ATOM     18  C   UNL     1       2.104  13.586  19.320  0.00  0.00    +0.000 A 
ATOM     19  C   UNL     1       0.912  14.219  19.032  0.00  0.00    +0.000 A 
ATOM     20  S   UNL     1      -0.191  13.098  18.361  0.00  0.00    +0.000 S 
ATOM     21  H   UNL     1      -0.156  10.411  17.673  0.00  0.00    +0.000 HD
BRANCH  18  22
ATOM     22  C   UNL     1       3.347  14.207  19.846  0.00  0.00    +0.000 C 
BRANCH  22  23
ATOM     23  C   UNL     1       4.076  15.083  18.812  0.00  0.00    +0.000 C 
BRANCH  23  24
ATOM     24  O   UNL     1       5.482  14.762  18.703  0.00  0.00    +0.000 OA
ATOM     25  C   UNL     1       6.383  15.845  18.885  0.00  0.00    +0.000 C 
ENDBRANCH  23  24
BRANCH  23  26
ATOM     26  C   UNL     1       3.882  16.596  19.040  0.00  0.00    +0.000 C 
BRANCH  26  27
ATOM     27  O   UNL     1       3.274  17.211  17.902  0.00  0.00    +0.000 OA
ATOM     28  H   UNL     1       3.617  18.123  17.852  0.00  0.00    +0.000 HD
ENDBRANCH  26  27
ENDBRANCH  23  26
ENDBRANCH  22  23
ENDBRANCH  18  22
ENDBRANCH   7  15
BRANCH   1  30
ATOM     29  C   UNL     1       0.058  10.498  21.995  0.00  0.00    +0.000 C 
ATOM     30  O   UNL     1      -0.333   9.764  20.839  0.00  0.00    +0.000 OA
ENDBRANCH   1  30
TORSDOF 8
ENDMDL
MODEL 4
REMARK VINA RESULT:      -7.2      3.818      8.402
REMARK  Name = 
REMARK  12 active torsions:
REMARK  status: ('A' for Active; 'I' for Inactive)
REMARK    1  A    between atoms: C_1  and  O_2
REMARK    2  A    between atoms: O_2  and  C_3
REMARK    3  A    between atoms: C_5  and  C_6
REMARK    4  A    between atoms: C_7  and  C_8
REMARK    5  A    between atoms: C_13  and  C_14
REMARK    6  A    between atoms: C_16  and  N_17
REMARK    7  A    between atoms: C_20  and  C_21
REMARK    8  A    between atoms: C_21  and  C_22
REMARK    9  A    between atoms: C_22  and  C_23
REMARK   10  A    between atoms: C_22  and  O_25
REMARK   11  A    between atoms: C_23  and  O_24
REMARK   12  A    between atoms: O_25  and  C_26
REMARK                            x       y       z     vdW  Elec       q    Type
REMARK                         _______ _______ _______ _____ _____    ______ ____
ROOT
ATOM      1  C   UNL     1       0.701   9.009  20.248  0.00  0.00    +0.000 A 
ATOM      2  C   UNL     1       1.229   7.844  20.806  0.00  0.00    +0.000 A 
ATOM      3  C   UNL     1       2.120   7.009  20.101  0.00  0.00    +0.000 A 
ATOM      4  C   UNL     1       2.631   5.825  20.885  0.00  0.00    +0.000 C 
ATOM      5  C   UNL     1       2.492   7.324  18.766  0.00  0.00    +0.000 A 
ATOM      6  C   UNL     1       2.013   8.562  18.271  0.00  0.00    +0.000 A 
ATOM      7  C   UNL     1       1.092   9.381  18.955  0.00  0.00    +0.000 A 
ENDROOT
BRANCH   5   8
ATOM      8  C   UNL     1       3.290   6.414  17.868  0.00  0.00    +0.000 A 
ATOM      9  C   UNL     1       4.529   6.852  17.348  0.00  0.00    +0.000 A 
ATOM     10  C   UNL     1       5.417   6.001  16.682  0.00  0.00    +0.000 A 
ATOM     11  C   UNL     1       5.060   4.690  16.428  0.00  0.00    +0.000 A 
ATOM     12  C   UNL     1       3.803   4.246  16.817  0.00  0.00    +0.000 A 
ATOM     13  C   UNL     1       2.913   5.078  17.536  0.00  0.00    +0.000 A 
ATOM     14  C   UNL     1       1.577   4.456  17.863  0.00  0.00    +0.000 C 
ENDBRANCH   5   8
BRANCH   7  15
ATOM     15  N   UNL     1       0.654  10.547  18.279  0.00  0.00    +0.000 N 
ATOM     16  C   UNL     1       0.940  11.817  18.636  0.00  0.00    +0.000 A 
ATOM     17  N   UNL     1       2.090  12.228  19.105  0.00  0.00    +0.000 NA
ATOM     18  C   UNL     1       2.060  13.576  19.375  0.00  0.00    +0.000 A 
ATOM     19  C   UNL     1       0.858  14.195  19.096  0.00  0.00    +0.000 A 
ATOM     20  S   UNL     1      -0.231  13.066  18.416  0.00  0.00    +0.000 S 
ATOM     21  H   UNL     1      -0.159  10.387  17.701  0.00  0.00    +0.000 HD
BRANCH  18  22
ATOM     22  C   UNL     1       3.295  14.210  19.904  0.00  0.00    +0.000 C 
BRANCH  22  23
ATOM     23  C   UNL     1       3.520  13.948  21.404  0.00  0.00    +0.000 C 
BRANCH  23  24
ATOM     24  O   UNL     1       2.507  14.563  22.233  0.00  0.00    +0.000 OA
ATOM     25  C   UNL     1       2.490  15.984  22.244  0.00  0.00    +0.000 C 
ENDBRANCH  23  24
BRANCH  23  26
ATOM     26  C   UNL     1       4.930  14.337  21.893  0.00  0.00    +0.000 C 
BRANCH  26  27
ATOM     27  O   UNL     1       5.711  14.875  20.825  0.00  0.00    +0.000 OA
ATOM     28  H   UNL     1       5.544  14.321  20.039  0.00  0.00    +0.000 HD
ENDBRANCH  26  27
ENDBRANCH  23  26
ENDBRANCH  22  23
ENDBRANCH  18  22
ENDBRANCH   7  15
BRANCH   1  30
ATOM     29  C   UNL     1      -0.200   9.777  22.306  0.00  0.00    +0.000 C 
ATOM     30  O   UNL     1      -0.279   9.735  20.885  0.00  0.00    +0.000 OA
ENDBRANCH   1  30
TORSDOF 8
ENDMDL
MODEL 5
REMARK VINA RESULT:      -7.1      3.620      8.369
REMARK  Name = 
REMARK  12 active torsions:
REMARK  status: ('A' for Active; 'I' for Inactive)
REMARK    1  A    between atoms: C_1  and  O_2
REMARK    2  A    between atoms: O_2  and  C_3
REMARK    3  A    between atoms: C_5  and  C_6
REMARK    4  A    between atoms: C_7  and  C_8
REMARK    5  A    between atoms: C_13  and  C_14
REMARK    6  A    between atoms: C_16  and  N_17
REMARK    7  A    between atoms: C_20  and  C_21
REMARK    8  A    between atoms: C_21  and  C_22
REMARK    9  A    between atoms: C_22  and  C_23
REMARK   10  A    between atoms: C_22  and  O_25
REMARK   11  A    between atoms: C_23  and  O_24
REMARK   12  A    between atoms: O_25  and  C_26
REMARK                            x       y       z     vdW  Elec       q    Type
REMARK                         _______ _______ _______ _____ _____    ______ ____
ROOT
ATOM      1  C   UNL     1       0.771   8.901  20.279  0.00  0.00    +0.000 A 
ATOM      2  C   UNL     1       1.211   7.701  20.839  0.00  0.00    +0.000 A 
ATOM      3  C   UNL     1       2.072   6.821  20.151  0.00  0.00    +0.000 A 
ATOM      4  C   UNL     1       2.486   5.600  20.936  0.00  0.00    +0.000 C 
ATOM      5  C   UNL     1       2.502   7.126  18.832  0.00  0.00    +0.000 A 
ATOM      6  C   UNL     1       2.113   8.396  18.337  0.00  0.00    +0.000 A 
ATOM      7  C   UNL     1       1.223   9.262  19.003  0.00  0.00    +0.000 A 
ENDROOT
BRANCH   5   8
ATOM      8  C   UNL     1       3.271   6.178  17.947  0.00  0.00    +0.000 A 
ATOM      9  C   UNL     1       4.551   6.542  17.474  0.00  0.00    +0.000 A 
ATOM     10  C   UNL     1       5.406   5.645  16.826  0.00  0.00    +0.000 A 
ATOM     11  C   UNL     1       4.975   4.363  16.541  0.00  0.00    +0.000 A 
ATOM     12  C   UNL     1       3.680   3.995  16.882  0.00  0.00    +0.000 A 
ATOM     13  C   UNL     1       2.821   4.873  17.584  0.00  0.00    +0.000 A 
ATOM     14  C   UNL     1       1.438   4.333  17.857  0.00  0.00    +0.000 C 
ENDBRANCH   5   8
BRANCH   7  15
ATOM     15  N   UNL     1       0.877  10.459  18.327  0.00  0.00    +0.000 N 
ATOM     16  C   UNL     1       0.838  11.690  18.879  0.00  0.00    +0.000 A 
ATOM     17  N   UNL     1       1.690  12.148  19.761  0.00  0.00    +0.000 NA
ATOM     18  C   UNL     1       1.376  13.436  20.127  0.00  0.00    +0.000 A 
ATOM     19  C   UNL     1       0.263  13.961  19.501  0.00  0.00    +0.000 A 
ATOM     20  S   UNL     1      -0.356  12.830  18.377  0.00  0.00    +0.000 S 
ATOM     21  H   UNL     1       0.340  10.297  17.487  0.00  0.00    +0.000 HD
BRANCH  18  22
ATOM     22  C   UNL     1       2.253  14.114  21.116  0.00  0.00    +0.000 C 
BRANCH  22  23
ATOM     23  C   UNL     1       3.500  14.757  20.485  0.00  0.00    +0.000 C 
BRANCH  23  24
ATOM     24  O   UNL     1       3.745  14.291  19.138  0.00  0.00    +0.000 OA
ATOM     25  C   UNL     1       4.332  15.233  18.250  0.00  0.00    +0.000 C 
ENDBRANCH  23  24
BRANCH  23  26
ATOM     26  C   UNL     1       4.771  14.614  21.346  0.00  0.00    +0.000 C 
BRANCH  26  27
ATOM     27  O   UNL     1       4.601  13.606  22.344  0.00  0.00    +0.000 OA
ATOM     28  H   UNL     1       3.642  13.502  22.488  0.00  0.00    +0.000 HD
ENDBRANCH  26  27
ENDBRANCH  23  26
ENDBRANCH  22  23
ENDBRANCH  18  22
ENDBRANCH   7  15
BRANCH   1  30
ATOM     29  C   UNL     1      -0.377   9.442  22.285  0.00  0.00    +0.000 C 
ATOM     30  O   UNL     1      -0.182   9.679  20.895  0.00  0.00    +0.000 OA
ENDBRANCH   1  30
TORSDOF 8
ENDMDL
MODEL 6
REMARK VINA RESULT:      -7.1      3.923      8.738
REMARK  Name = 
REMARK  12 active torsions:
REMARK  status: ('A' for Active; 'I' for Inactive)
REMARK    1  A    between atoms: C_1  and  O_2
REMARK    2  A    between atoms: O_2  and  C_3
REMARK    3  A    between atoms: C_5  and  C_6
REMARK    4  A    between atoms: C_7  and  C_8
REMARK    5  A    between atoms: C_13  and  C_14
REMARK    6  A    between atoms: C_16  and  N_17
REMARK    7  A    between atoms: C_20  and  C_21
REMARK    8  A    between atoms: C_21  and  C_22
REMARK    9  A    between atoms: C_22  and  C_23
REMARK   10  A    between atoms: C_22  and  O_25
REMARK   11  A    between atoms: C_23  and  O_24
REMARK   12  A    between atoms: O_25  and  C_26
REMARK                            x       y       z     vdW  Elec       q    Type
REMARK                         _______ _______ _______ _____ _____    ______ ____
ROOT
ATOM      1  C   UNL     1       0.786   8.918  20.254  0.00  0.00    +0.000 A 
ATOM      2  C   UNL     1       1.275   7.734  20.806  0.00  0.00    +0.000 A 
ATOM      3  C   UNL     1       2.143   6.876  20.098  0.00  0.00    +0.000 A 
ATOM      4  C   UNL     1       2.612   5.671  20.876  0.00  0.00    +0.000 C 
ATOM      5  C   UNL     1       2.532   7.189  18.768  0.00  0.00    +0.000 A 
ATOM      6  C   UNL     1       2.095   8.446  18.280  0.00  0.00    +0.000 A 
ATOM      7  C   UNL     1       1.197   9.288  18.966  0.00  0.00    +0.000 A 
ENDROOT
BRANCH   5   8
ATOM      8  C   UNL     1       3.306   6.262  17.867  0.00  0.00    +0.000 A 
ATOM      9  C   UNL     1       4.561   6.664  17.357  0.00  0.00    +0.000 A 
ATOM     10  C   UNL     1       5.426   5.791  16.689  0.00  0.00    +0.000 A 
ATOM     11  C   UNL     1       5.029   4.494  16.423  0.00  0.00    +0.000 A 
ATOM     12  C   UNL     1       3.756   4.087  16.801  0.00  0.00    +0.000 A 
ATOM     13  C   UNL     1       2.889   4.941  17.523  0.00  0.00    +0.000 A 
ATOM     14  C   UNL     1       1.532   4.359  17.837  0.00  0.00    +0.000 C 
ENDBRANCH   5   8
BRANCH   7  15
ATOM     15  N   UNL     1       0.799  10.472  18.296  0.00  0.00    +0.000 N 
ATOM     16  C   UNL     1       1.018  11.732  18.730  0.00  0.00    +0.000 A 
ATOM     17  N   UNL     1       2.107  12.145  19.326  0.00  0.00    +0.000 NA
ATOM     18  C   UNL     1       2.019  13.480  19.644  0.00  0.00    +0.000 A 
ATOM     19  C   UNL     1       0.835  14.086  19.273  0.00  0.00    +0.000 A 
ATOM     20  S   UNL     1      -0.155  12.965  18.445  0.00  0.00    +0.000 S 
ATOM     21  H   UNL     1       0.050  10.320  17.635  0.00  0.00    +0.000 HD
BRANCH  18  22
ATOM     22  C   UNL     1       3.181  14.116  20.318  0.00  0.00    +0.000 C 
BRANCH  22  23
ATOM     23  C   UNL     1       2.877  15.522  20.862  0.00  0.00    +0.000 C 
BRANCH  23  24
ATOM     24  O   UNL     1       3.163  16.564  19.901  0.00  0.00    +0.000 OA
ATOM     25  C   UNL     1       2.184  17.587  19.782  0.00  0.00    +0.000 C 
ENDBRANCH  23  24
BRANCH  23  26
ATOM     26  C   UNL     1       3.563  15.824  22.209  0.00  0.00    +0.000 C 
BRANCH  26  27
ATOM     27  O   UNL     1       3.816  14.619  22.935  0.00  0.00    +0.000 OA
ATOM     28  H   UNL     1       3.134  13.975  22.669  0.00  0.00    +0.000 HD
ENDBRANCH  26  27
ENDBRANCH  23  26
ENDBRANCH  22  23
ENDBRANCH  18  22
ENDBRANCH   7  15
BRANCH   1  30
ATOM     29  C   UNL     1      -0.364   9.395  22.275  0.00  0.00    +0.000 C 
ATOM     30  O   UNL     1      -0.174   9.670  20.891  0.00  0.00    +0.000 OA
ENDBRANCH   1  30
TORSDOF 8
ENDMDL
MODEL 7
REMARK VINA RESULT:      -7.1      0.710      1.413
REMARK  Name = 
REMARK  12 active torsions:
REMARK  status: ('A' for Active; 'I' for Inactive)
REMARK    1  A    between atoms: C_1  and  O_2
REMARK    2  A    between atoms: O_2  and  C_3
REMARK    3  A    between atoms: C_5  and  C_6
REMARK    4  A    between atoms: C_7  and  C_8
REMARK    5  A    between atoms: C_13  and  C_14
REMARK    6  A    between atoms: C_16  and  N_17
REMARK    7  A    between atoms: C_20  and  C_21
REMARK    8  A    between atoms: C_21  and  C_22
REMARK    9  A    between atoms: C_22  and  C_23
REMARK   10  A    between atoms: C_22  and  O_25
REMARK   11  A    between atoms: C_23  and  O_24
REMARK   12  A    between atoms: O_25  and  C_26
REMARK                            x       y       z     vdW  Elec       q    Type
REMARK                         _______ _______ _______ _____ _____    ______ ____
ROOT
ATOM      1  C   UNL     1       2.388   7.145  19.725  0.00  0.00    +0.000 A 
ATOM      2  C   UNL     1       1.445   7.591  20.651  0.00  0.00    +0.000 A 
ATOM      3  C   UNL     1       0.727   8.793  20.475  0.00  0.00    +0.000 A 
ATOM      4  C   UNL     1      -0.290   9.084  21.551  0.00  0.00    +0.000 C 
ATOM      5  C   UNL     1       0.971   9.612  19.340  0.00  0.00    +0.000 A 
ATOM      6  C   UNL     1       1.863   9.078  18.377  0.00  0.00    +0.000 A 
ATOM      7  C   UNL     1       2.610   7.898  18.564  0.00  0.00    +0.000 A 
ENDROOT
BRANCH   5   8
ATOM      8  C   UNL     1       0.394  10.991  19.146  0.00  0.00    +0.000 A 
ATOM      9  C   UNL     1       1.108  12.121  19.602  0.00  0.00    +0.000 A 
ATOM     10  C   UNL     1       0.743  13.432  19.281  0.00  0.00    +0.000 A 
ATOM     11  C   UNL     1      -0.413  13.671  18.561  0.00  0.00    +0.000 A 
ATOM     12  C   UNL     1      -1.212  12.597  18.192  0.00  0.00    +0.000 A 
ATOM     13  C   UNL     1      -0.830  11.262  18.464  0.00  0.00    +0.000 A 
ATOM     14  C   UNL     1      -1.818  10.210  18.020  0.00  0.00    +0.000 C 
ENDBRANCH   5   8
BRANCH   7  15
ATOM     15  N   UNL     1       3.518   7.551  17.533  0.00  0.00    +0.000 N 
ATOM     16  C   UNL     1       4.043   6.324  17.328  0.00  0.00    +0.000 A 
ATOM     17  N   UNL     1       3.397   5.194  17.472  0.00  0.00    +0.000 NA
ATOM     18  C   UNL     1       4.211   4.122  17.189  0.00  0.00    +0.000 A 
ATOM     19  C   UNL     1       5.498   4.455  16.818  0.00  0.00    +0.000 A 
ATOM     20  S   UNL     1       5.662   6.155  16.758  0.00  0.00    +0.000 S 
ATOM     21  H   UNL     1       4.011   8.348  17.155  0.00  0.00    +0.000 HD
BRANCH  18  22
ATOM     22  C   UNL     1       3.629   2.759  17.292  0.00  0.00    +0.000 C 
BRANCH  22  23
ATOM     23  C   UNL     1       2.995   2.468  18.664  0.00  0.00    +0.000 C 
BRANCH  23  24
ATOM     24  O   UNL     1       3.676   1.409  19.377  0.00  0.00    +0.000 OA
ATOM     25  C   UNL     1       4.668   1.823  20.305  0.00  0.00    +0.000 C 
ENDBRANCH  23  24
BRANCH  23  26
ATOM     26  C   UNL     1       1.481   2.189  18.596  0.00  0.00    +0.000 C 
BRANCH  26  27
ATOM     27  O   UNL     1       0.790   3.266  17.960  0.00  0.00    +0.000 OA
ATOM     28  H   UNL     1       0.130   3.599  18.596  0.00  0.00    +0.000 HD
ENDBRANCH  26  27
ENDBRANCH  23  26
ENDBRANCH  22  23
ENDBRANCH  18  22
ENDBRANCH   7  15
BRANCH   1  30
ATOM     29  C   UNL     1       2.620   5.044  20.805  0.00  0.00    +0.000 C 
ATOM     30  O   UNL     1       3.187   6.053  19.977  0.00  0.00    +0.000 OA
ENDBRANCH   1  30
TORSDOF 8
ENDMDL
MODEL 8
REMARK VINA RESULT:      -6.9      5.309      8.491
REMARK  Name = 
REMARK  12 active torsions:
REMARK  status: ('A' for Active; 'I' for Inactive)
REMARK    1  A    between atoms: C_1  and  O_2
REMARK    2  A    between atoms: O_2  and  C_3
REMARK    3  A    between atoms: C_5  and  C_6
REMARK    4  A    between atoms: C_7  and  C_8
REMARK    5  A    between atoms: C_13  and  C_14
REMARK    6  A    between atoms: C_16  and  N_17
REMARK    7  A    between atoms: C_20  and  C_21
REMARK    8  A    between atoms: C_21  and  C_22
REMARK    9  A    between atoms: C_22  and  C_23
REMARK   10  A    between atoms: C_22  and  O_25
REMARK   11  A    between atoms: C_23  and  O_24
REMARK   12  A    between atoms: O_25  and  C_26
REMARK                            x       y       z     vdW  Elec       q    Type
REMARK                         _______ _______ _______ _____ _____    ______ ____
ROOT
ATOM      1  C   UNL     1       0.084   9.779  19.331  0.00  0.00    +0.000 A 
ATOM      2  C   UNL     1       0.305   9.568  20.693  0.00  0.00    +0.000 A 
ATOM      3  C   UNL     1      -0.304  10.363  21.686  0.00  0.00    +0.000 A 
ATOM      4  C   UNL     1       0.007   9.951  23.104  0.00  0.00    +0.000 C 
ATOM      5  C   UNL     1      -1.156  11.439  21.318  0.00  0.00    +0.000 A 
ATOM      6  C   UNL     1      -1.432  11.560  19.933  0.00  0.00    +0.000 A 
ATOM      7  C   UNL     1      -0.797  10.794  18.935  0.00  0.00    +0.000 A 
ENDROOT
BRANCH   5   8
ATOM      8  C   UNL     1      -1.711  12.453  22.285  0.00  0.00    +0.000 A 
ATOM      9  C   UNL     1      -2.977  12.241  22.876  0.00  0.00    +0.000 A 
ATOM     10  C   UNL     1      -3.467  13.022  23.927  0.00  0.00    +0.000 A 
ATOM     11  C   UNL     1      -2.744  14.112  24.373  0.00  0.00    +0.000 A 
ATOM     12  C   UNL     1      -1.548  14.432  23.744  0.00  0.00    +0.000 A 
ATOM     13  C   UNL     1      -1.013  13.622  22.714  0.00  0.00    +0.000 A 
ATOM     14  C   UNL     1       0.281  14.118  22.117  0.00  0.00    +0.000 C 
ENDBRANCH   5   8
BRANCH   7  15
ATOM     15  N   UNL     1      -1.130  11.101  17.592  0.00  0.00    +0.000 N 
ATOM     16  C   UNL     1      -2.381  11.172  17.089  0.00  0.00    +0.000 A 
ATOM     17  N   UNL     1      -3.418  11.668  17.715  0.00  0.00    +0.000 NA
ATOM     18  C   UNL     1      -4.547  11.594  16.933  0.00  0.00    +0.000 A 
ATOM     19  C   UNL     1      -4.353  11.033  15.687  0.00  0.00    +0.000 A 
ATOM     20  S   UNL     1      -2.699  10.656  15.473  0.00  0.00    +0.000 S 
ATOM     21  H   UNL     1      -0.368  10.941  16.949  0.00  0.00    +0.000 HD
BRANCH  18  22
ATOM     22  C   UNL     1      -5.817  12.128  17.490  0.00  0.00    +0.000 C 
BRANCH  22  23
ATOM     23  C   UNL     1      -5.950  11.926  19.009  0.00  0.00    +0.000 C 
BRANCH  23  24
ATOM     24  O   UNL     1      -7.263  11.457  19.395  0.00  0.00    +0.000 OA
ATOM     25  C   UNL     1      -7.292  10.348  20.283  0.00  0.00    +0.000 C 
ENDBRANCH  23  24
BRANCH  23  26
ATOM     26  C   UNL     1      -5.554  13.167  19.834  0.00  0.00    +0.000 C 
BRANCH  26  27
ATOM     27  O   UNL     1      -5.916  14.370  19.154  0.00  0.00    +0.000 OA
ATOM     28  H   UNL     1      -6.641  14.145  18.541  0.00  0.00    +0.000 HD
ENDBRANCH  26  27
ENDBRANCH  23  26
ENDBRANCH  22  23
ENDBRANCH  18  22
ENDBRANCH   7  15
BRANCH   1  30
ATOM     29  C   UNL     1       2.065   9.643  18.031  0.00  0.00    +0.000 C 
ATOM     30  O   UNL     1       0.795   9.098  18.370  0.00  0.00    +0.000 OA
ENDBRANCH   1  30
TORSDOF 8
ENDMDL
MODEL 9
REMARK VINA RESULT:      -6.9      5.866      8.323
REMARK  Name = 
REMARK  12 active torsions:
REMARK  status: ('A' for Active; 'I' for Inactive)
REMARK    1  A    between atoms: C_1  and  O_2
REMARK    2  A    between atoms: O_2  and  C_3
REMARK    3  A    between atoms: C_5  and  C_6
REMARK    4  A    between atoms: C_7  and  C_8
REMARK    5  A    between atoms: C_13  and  C_14
REMARK    6  A    between atoms: C_16  and  N_17
REMARK    7  A    between atoms: C_20  and  C_21
REMARK    8  A    between atoms: C_21  and  C_22
REMARK    9  A    between atoms: C_22  and  C_23
REMARK   10  A    between atoms: C_22  and  O_25
REMARK   11  A    between atoms: C_23  and  O_24
REMARK   12  A    between atoms: O_25  and  C_26
REMARK                            x       y       z     vdW  Elec       q    Type
REMARK                         _______ _______ _______ _____ _____    ______ ____
ROOT
ATOM      1  C   UNL     1      -1.709  11.787  22.787  0.00  0.00    +0.000 A 
ATOM      2  C   UNL     1      -2.787  11.939  23.660  0.00  0.00    +0.000 A 
ATOM      3  C   UNL     1      -3.935  12.682  23.316  0.00  0.00    +0.000 A 
ATOM      4  C   UNL     1      -5.021  12.690  24.364  0.00  0.00    +0.000 C 
ATOM      5  C   UNL     1      -4.016  13.331  22.055  0.00  0.00    +0.000 A 
ATOM      6  C   UNL     1      -2.947  13.073  21.161  0.00  0.00    +0.000 A 
ATOM      7  C   UNL     1      -1.780  12.363  21.512  0.00  0.00    +0.000 A 
ENDROOT
BRANCH   5   8
ATOM      8  C   UNL     1      -5.110  14.289  21.659  0.00  0.00    +0.000 A 
ATOM      9  C   UNL     1      -6.176  13.841  20.847  0.00  0.00    +0.000 A 
ATOM     10  C   UNL     1      -7.323  14.604  20.608  0.00  0.00    +0.000 A 
ATOM     11  C   UNL     1      -7.412  15.892  21.103  0.00  0.00    +0.000 A 
ATOM     12  C   UNL     1      -6.339  16.419  21.809  0.00  0.00    +0.000 A 
ATOM     13  C   UNL     1      -5.192  15.644  22.102  0.00  0.00    +0.000 A 
ATOM     14  C   UNL     1      -4.104  16.369  22.856  0.00  0.00    +0.000 C 
ENDBRANCH   5   8
BRANCH   7  15
ATOM     15  N   UNL     1      -0.773  12.267  20.520  0.00  0.00    +0.000 N 
ATOM     16  C   UNL     1      -0.781  11.418  19.471  0.00  0.00    +0.000 A 
ATOM     17  N   UNL     1      -1.839  11.092  18.774  0.00  0.00    +0.000 NA
ATOM     18  C   UNL     1      -1.516  10.204  17.773  0.00  0.00    +0.000 A 
ATOM     19  C   UNL     1      -0.180   9.860  17.715  0.00  0.00    +0.000 A 
ATOM     20  S   UNL     1       0.694  10.726  18.902  0.00  0.00    +0.000 S 
ATOM     21  H   UNL     1       0.116  12.642  20.822  0.00  0.00    +0.000 HD
BRANCH  18  22
ATOM     22  C   UNL     1      -2.604   9.739  16.875  0.00  0.00    +0.000 C 
BRANCH  22  23
ATOM     23  C   UNL     1      -2.952  10.747  15.766  0.00  0.00    +0.000 C 
BRANCH  23  24
ATOM     24  O   UNL     1      -3.800  11.820  16.235  0.00  0.00    +0.000 OA
ATOM     25  C   UNL     1      -4.962  11.426  16.952  0.00  0.00    +0.000 C 
ENDBRANCH  23  24
BRANCH  23  26
ATOM     26  C   UNL     1      -3.553  10.093  14.505  0.00  0.00    +0.000 C 
BRANCH  26  27
ATOM     27  O   UNL     1      -2.550   9.888  13.508  0.00  0.00    +0.000 OA
ATOM     28  H   UNL     1      -2.309   8.943  13.534  0.00  0.00    +0.000 HD
ENDBRANCH  26  27
ENDBRANCH  23  26
ENDBRANCH  22  23
ENDBRANCH  18  22
ENDBRANCH   7  15
BRANCH   1  30
ATOM     29  C   UNL     1      -0.435   9.790  22.936  0.00  0.00    +0.000 C 
ATOM     30  O   UNL     1      -0.536  11.187  23.185  0.00  0.00    +0.000 OA
ENDBRANCH   1  30
TORSDOF 8
ENDMDL
