MODEL 1
REMARK VINA RESULT:      -5.6      0.000      0.000
REMARK  Name = 
REMARK  11 active torsions:
REMARK  status: ('A' for Active; 'I' for Inactive)
REMARK    1  A    between atoms: C_1  and  C_2
REMARK    2  A    between atoms: C_2  and  O_4
REMARK    3  A    between atoms: O_4  and  C_5
REMARK    4  A    between atoms: C_5  and  C_6
REMARK    5  A    between atoms: C_6  and  C_7
REMARK    6  A    between atoms: C_7  and  C_8
REMARK    7  A    between atoms: C_8  and  C_9
REMARK    8  A    between atoms: C_9  and  C_10
REMARK    9  A    between atoms: C_10  and  C_11
REMARK   10  A    between atoms: C_11  and  O_12
REMARK   11  A    between atoms: O_12  and  C_13
REMARK                            x       y       z     vdW  Elec       q    Type
REMARK                         _______ _______ _______ _____ _____    ______ ____
ROOT
ATOM      1  C   UNL     1       7.406   4.770  17.671  0.00  0.00    +0.000 C 
ENDROOT
BRANCH   1   2
ATOM      2  C   UNL     1       7.283   4.378  16.199  0.00  0.00    +0.000 C 
BRANCH   2   3
ATOM      3  C   UNL     1       5.841   4.049  15.793  0.00  0.00    +0.000 C 
BRANCH   3   4
ATOM      4  C   UNL     1       5.526   4.446  14.350  0.00  0.00    +0.000 C 
BRANCH   4   5
ATOM      5  C   UNL     1       6.284   3.596  13.336  0.00  0.00    +0.000 C 
BRANCH   5   6
ATOM      6  O   UNL     1       5.737   3.806  12.023  0.00  0.00    +0.000 OA
BRANCH   6   8
ATOM      7  C   UNL     1       3.737   3.134  11.001  0.00  0.00    +0.000 C 
ATOM      8  C   UNL     1       5.100   2.734  11.473  0.00  0.00    +0.000 C 
ATOM      9  O   UNL     1       5.553   1.601  11.388  0.00  0.00    +0.000 OA
ENDBRANCH   6   8
ENDBRANCH   5   6
ENDBRANCH   4   5
ENDBRANCH   3   4
ENDBRANCH   2   3
ENDBRANCH   1   2
BRANCH   1  10
ATOM     10  C   UNL     1       6.335   5.768  18.101  0.00  0.00    +0.000 C 
BRANCH  10  11
ATOM     11  C   UNL     1       5.878   5.460  19.524  0.00  0.00    +0.000 C 
BRANCH  11  12
ATOM     12  O   UNL     1       4.454   5.407  19.550  0.00  0.00    +0.000 OA
BRANCH  12  13
ATOM     13  C   UNL     1       3.884   4.325  18.941  0.00  0.00    +0.000 A 
ATOM     14  C   UNL     1       3.001   4.351  17.864  0.00  0.00    +0.000 A 
ATOM     15  C   UNL     1       2.509   3.153  17.346  0.00  0.00    +0.000 A 
ATOM     16  C   UNL     1       2.916   1.965  17.929  0.00  0.00    +0.000 A 
ATOM     17  N   UNL     1       3.763   1.897  18.975  0.00  0.00    +0.000 NA
ATOM     18  C   UNL     1       4.224   3.079  19.455  0.00  0.00    +0.000 A 
ENDBRANCH  12  13
ENDBRANCH  11  12
ENDBRANCH  10  11
ENDBRANCH   1  10
TORSDOF 10
ENDMDL
MODEL 2
REMARK VINA RESULT:      -5.6      1.963      2.408
REMARK  Name = 
REMARK  11 active torsions:
REMARK  status: ('A' for Active; 'I' for Inactive)
REMARK    1  A    between atoms: C_1  and  C_2
REMARK    2  A    between atoms: C_2  and  O_4
REMARK    3  A    between atoms: O_4  and  C_5
REMARK    4  A    between atoms: C_5  and  C_6
REMARK    5  A    between atoms: C_6  and  C_7
REMARK    6  A    between atoms: C_7  and  C_8
REMARK    7  A    between atoms: C_8  and  C_9
REMARK    8  A    between atoms: C_9  and  C_10
REMARK    9  A    between atoms: C_10  and  C_11
REMARK   10  A    between atoms: C_11  and  O_12
REMARK   11  A    between atoms: O_12  and  C_13
REMARK                            x       y       z     vdW  Elec       q    Type
REMARK                         _______ _______ _______ _____ _____    ______ ____
ROOT
ATOM      1  C   UNL     1       4.791   5.456  16.426  0.00  0.00    +0.000 C 
ENDROOT
BRANCH   1   2
ATOM      2  C   UNL     1       6.259   5.876  16.354  0.00  0.00    +0.000 C 
BRANCH   2   3
ATOM      3  C   UNL     1       7.126   4.871  15.586  0.00  0.00    +0.000 C 
BRANCH   3   4
ATOM      4  C   UNL     1       6.906   4.931  14.075  0.00  0.00    +0.000 C 
BRANCH   4   5
ATOM      5  C   UNL     1       5.965   3.838  13.580  0.00  0.00    +0.000 C 
BRANCH   5   6
ATOM      6  O   UNL     1       6.526   3.205  12.418  0.00  0.00    +0.000 OA
BRANCH   6   8
ATOM      7  C   UNL     1       4.365   3.214  11.507  0.00  0.00    +0.000 C 
ATOM      8  C   UNL     1       5.655   2.471  11.671  0.00  0.00    +0.000 C 
ATOM      9  O   UNL     1       5.871   1.359  11.209  0.00  0.00    +0.000 OA
ENDBRANCH   6   8
ENDBRANCH   5   6
ENDBRANCH   4   5
ENDBRANCH   3   4
ENDBRANCH   2   3
ENDBRANCH   1   2
BRANCH   1  10
ATOM     10  C   UNL     1       4.537   4.407  17.505  0.00  0.00    +0.000 C 
BRANCH  10  11
ATOM     11  C   UNL     1       3.400   3.484  17.076  0.00  0.00    +0.000 C 
BRANCH  11  12
ATOM     12  O   UNL     1       3.337   2.381  17.975  0.00  0.00    +0.000 OA
BRANCH  12  13
ATOM     13  C   UNL     1       2.692   2.609  19.158  0.00  0.00    +0.000 A 
ATOM     14  C   UNL     1       1.365   3.000  19.314  0.00  0.00    +0.000 A 
ATOM     15  C   UNL     1       0.847   3.187  20.596  0.00  0.00    +0.000 A 
ATOM     16  C   UNL     1       1.680   2.980  21.682  0.00  0.00    +0.000 A 
ATOM     17  N   UNL     1       2.972   2.607  21.573  0.00  0.00    +0.000 NA
ATOM     18  C   UNL     1       3.445   2.433  20.314  0.00  0.00    +0.000 A 
ENDBRANCH  12  13
ENDBRANCH  11  12
ENDBRANCH  10  11
ENDBRANCH   1  10
TORSDOF 10
ENDMDL
MODEL 3
REMARK VINA RESULT:      -5.5      3.435      6.436
REMARK  Name = 
REMARK  11 active torsions:
REMARK  status: ('A' for Active; 'I' for Inactive)
REMARK    1  A    between atoms: C_1  and  C_2
REMARK    2  A    between atoms: C_2  and  O_4
REMARK    3  A    between atoms: O_4  and  C_5
REMARK    4  A    between atoms: C_5  and  C_6
REMARK    5  A    between atoms: C_6  and  C_7
REMARK    6  A    between atoms: C_7  and  C_8
REMARK    7  A    between atoms: C_8  and  C_9
REMARK    8  A    between atoms: C_9  and  C_10
REMARK    9  A    between atoms: C_10  and  C_11
REMARK   10  A    between atoms: C_11  and  O_12
REMARK   11  A    between atoms: O_12  and  C_13
REMARK                            x       y       z     vdW  Elec       q    Type
REMARK                         _______ _______ _______ _____ _____    ______ ____
ROOT
ATOM      1  C   UNL     1       4.365   3.766  18.975  0.00  0.00    +0.000 C 
ENDROOT
BRANCH   1   2
ATOM      2  C   UNL     1       3.614   3.864  17.648  0.00  0.00    +0.000 C 
BRANCH   2   3
ATOM      3  C   UNL     1       2.679   2.672  17.408  0.00  0.00    +0.000 C 
BRANCH   3   4
ATOM      4  C   UNL     1       2.340   1.917  18.693  0.00  0.00    +0.000 C 
BRANCH   4   5
ATOM      5  C   UNL     1       1.036   2.397  19.322  0.00  0.00    +0.000 C 
BRANCH   5   6
ATOM      6  O   UNL     1       1.142   2.346  20.755  0.00  0.00    +0.000 OA
BRANCH   6   8
ATOM      7  C   UNL     1       1.313   4.680  20.601  0.00  0.00    +0.000 C 
ATOM      8  C   UNL     1       1.705   3.439  21.341  0.00  0.00    +0.000 C 
ATOM      9  O   UNL     1       2.442   3.425  22.318  0.00  0.00    +0.000 OA
ENDBRANCH   6   8
ENDBRANCH   5   6
ENDBRANCH   4   5
ENDBRANCH   3   4
ENDBRANCH   2   3
ENDBRANCH   1   2
BRANCH   1  10
ATOM     10  C   UNL     1       4.877   5.120  19.458  0.00  0.00    +0.000 C 
BRANCH  10  11
ATOM     11  C   UNL     1       6.401   5.153  19.392  0.00  0.00    +0.000 C 
BRANCH  11  12
ATOM     12  O   UNL     1       6.800   6.093  18.397  0.00  0.00    +0.000 OA
BRANCH  12  13
ATOM     13  C   UNL     1       6.577   5.722  17.101  0.00  0.00    +0.000 A 
ATOM     14  C   UNL     1       7.119   4.616  16.452  0.00  0.00    +0.000 A 
ATOM     15  C   UNL     1       6.787   4.366  15.120  0.00  0.00    +0.000 A 
ATOM     16  C   UNL     1       5.924   5.238  14.480  0.00  0.00    +0.000 A 
ATOM     17  N   UNL     1       5.383   6.324  15.071  0.00  0.00    +0.000 NA
ATOM     18  C   UNL     1       5.725   6.538  16.365  0.00  0.00    +0.000 A 
ENDBRANCH  12  13
ENDBRANCH  11  12
ENDBRANCH  10  11
ENDBRANCH   1  10
TORSDOF 10
ENDMDL
MODEL 4
REMARK VINA RESULT:      -5.4      3.240      6.026
REMARK  Name = 
REMARK  11 active torsions:
REMARK  status: ('A' for Active; 'I' for Inactive)
REMARK    1  A    between atoms: C_1  and  C_2
REMARK    2  A    between atoms: C_2  and  O_4
REMARK    3  A    between atoms: O_4  and  C_5
REMARK    4  A    between atoms: C_5  and  C_6
REMARK    5  A    between atoms: C_6  and  C_7
REMARK    6  A    between atoms: C_7  and  C_8
REMARK    7  A    between atoms: C_8  and  C_9
REMARK    8  A    between atoms: C_9  and  C_10
REMARK    9  A    between atoms: C_10  and  C_11
REMARK   10  A    between atoms: C_11  and  O_12
REMARK   11  A    between atoms: O_12  and  C_13
REMARK                            x       y       z     vdW  Elec       q    Type
REMARK                         _______ _______ _______ _____ _____    ______ ____
ROOT
ATOM      1  C   UNL     1       3.289   5.677  18.818  0.00  0.00    +0.000 C 
ENDROOT
BRANCH   1   2
ATOM      2  C   UNL     1       2.428   4.907  17.818  0.00  0.00    +0.000 C 
BRANCH   2   3
ATOM      3  C   UNL     1       1.238   4.202  18.481  0.00  0.00    +0.000 C 
BRANCH   3   4
ATOM      4  C   UNL     1       1.208   2.700  18.201  0.00  0.00    +0.000 C 
BRANCH   4   5
ATOM      5  C   UNL     1       1.836   1.886  19.328  0.00  0.00    +0.000 C 
BRANCH   5   6
ATOM      6  O   UNL     1       3.268   1.928  19.216  0.00  0.00    +0.000 OA
BRANCH   6   8
ATOM      7  C   UNL     1       3.007   2.681  21.421  0.00  0.00    +0.000 C 
ATOM      8  C   UNL     1       3.942   2.151  20.379  0.00  0.00    +0.000 C 
ATOM      9  O   UNL     1       5.138   1.968  20.557  0.00  0.00    +0.000 OA
ENDBRANCH   6   8
ENDBRANCH   5   6
ENDBRANCH   4   5
ENDBRANCH   3   4
ENDBRANCH   2   3
ENDBRANCH   1   2
BRANCH   1  10
ATOM     10  C   UNL     1       4.642   6.076  18.238  0.00  0.00    +0.000 C 
BRANCH  10  11
ATOM     11  C   UNL     1       5.763   5.388  19.012  0.00  0.00    +0.000 C 
BRANCH  11  12
ATOM     12  O   UNL     1       6.169   4.222  18.298  0.00  0.00    +0.000 OA
BRANCH  12  13
ATOM     13  C   UNL     1       6.291   4.362  16.944  0.00  0.00    +0.000 A 
ATOM     14  C   UNL     1       5.488   3.766  15.976  0.00  0.00    +0.000 A 
ATOM     15  C   UNL     1       5.737   4.014  14.626  0.00  0.00    +0.000 A 
ATOM     16  C   UNL     1       6.787   4.851  14.290  0.00  0.00    +0.000 A 
ATOM     17  N   UNL     1       7.591   5.443  15.197  0.00  0.00    +0.000 NA
ATOM     18  C   UNL     1       7.323   5.182  16.500  0.00  0.00    +0.000 A 
ENDBRANCH  12  13
ENDBRANCH  11  12
ENDBRANCH  10  11
ENDBRANCH   1  10
TORSDOF 10
ENDMDL
MODEL 5
REMARK VINA RESULT:      -5.4      2.996      6.631
REMARK  Name = 
REMARK  11 active torsions:
REMARK  status: ('A' for Active; 'I' for Inactive)
REMARK    1  A    between atoms: C_1  and  C_2
REMARK    2  A    between atoms: C_2  and  O_4
REMARK    3  A    between atoms: O_4  and  C_5
REMARK    4  A    between atoms: C_5  and  C_6
REMARK    5  A    between atoms: C_6  and  C_7
REMARK    6  A    between atoms: C_7  and  C_8
REMARK    7  A    between atoms: C_8  and  C_9
REMARK    8  A    between atoms: C_9  and  C_10
REMARK    9  A    between atoms: C_10  and  C_11
REMARK   10  A    between atoms: C_11  and  O_12
REMARK   11  A    between atoms: O_12  and  C_13
REMARK                            x       y       z     vdW  Elec       q    Type
REMARK                         _______ _______ _______ _____ _____    ______ ____
ROOT
ATOM      1  C   UNL     1       4.900   6.051  18.019  0.00  0.00    +0.000 C 
ENDROOT
BRANCH   1   2
ATOM      2  C   UNL     1       3.490   5.550  17.707  0.00  0.00    +0.000 C 
BRANCH   2   3
ATOM      3  C   UNL     1       3.465   4.075  17.289  0.00  0.00    +0.000 C 
BRANCH   3   4
ATOM      4  C   UNL     1       2.234   3.332  17.808  0.00  0.00    +0.000 C 
BRANCH   4   5
ATOM      5  C   UNL     1       2.585   2.295  18.869  0.00  0.00    +0.000 C 
BRANCH   5   6
ATOM      6  O   UNL     1       3.241   2.937  19.976  0.00  0.00    +0.000 OA
BRANCH   6   8
ATOM      7  C   UNL     1       1.522   2.639  21.543  0.00  0.00    +0.000 C 
ATOM      8  C   UNL     1       2.422   3.605  20.836  0.00  0.00    +0.000 C 
ATOM      9  O   UNL     1       2.399   4.816  21.005  0.00  0.00    +0.000 OA
ENDBRANCH   6   8
ENDBRANCH   5   6
ENDBRANCH   4   5
ENDBRANCH   3   4
ENDBRANCH   2   3
ENDBRANCH   1   2
BRANCH   1  10
ATOM     10  C   UNL     1       5.685   6.406  16.761  0.00  0.00    +0.000 C 
BRANCH  10  11
ATOM     11  C   UNL     1       6.904   5.496  16.634  0.00  0.00    +0.000 C 
BRANCH  11  12
ATOM     12  O   UNL     1       7.520   5.723  15.369  0.00  0.00    +0.000 OA
BRANCH  12  13
ATOM     13  C   UNL     1       7.061   4.958  14.335  0.00  0.00    +0.000 A 
ATOM     14  C   UNL     1       5.999   4.058  14.379  0.00  0.00    +0.000 A 
ATOM     15  C   UNL     1       5.644   3.352  13.229  0.00  0.00    +0.000 A 
ATOM     16  C   UNL     1       6.370   3.569  12.071  0.00  0.00    +0.000 A 
ATOM     17  N   UNL     1       7.408   4.426  11.988  0.00  0.00    +0.000 NA
ATOM     18  C   UNL     1       7.728   5.097  13.122  0.00  0.00    +0.000 A 
ENDBRANCH  12  13
ENDBRANCH  11  12
ENDBRANCH  10  11
ENDBRANCH   1  10
TORSDOF 10
ENDMDL
MODEL 6
REMARK VINA RESULT:      -5.4      3.374      5.867
REMARK  Name = 
REMARK  11 active torsions:
REMARK  status: ('A' for Active; 'I' for Inactive)
REMARK    1  A    between atoms: C_1  and  C_2
REMARK    2  A    between atoms: C_2  and  O_4
REMARK    3  A    between atoms: O_4  and  C_5
REMARK    4  A    between atoms: C_5  and  C_6
REMARK    5  A    between atoms: C_6  and  C_7
REMARK    6  A    between atoms: C_7  and  C_8
REMARK    7  A    between atoms: C_8  and  C_9
REMARK    8  A    between atoms: C_9  and  C_10
REMARK    9  A    between atoms: C_10  and  C_11
REMARK   10  A    between atoms: C_11  and  O_12
REMARK   11  A    between atoms: O_12  and  C_13
REMARK                            x       y       z     vdW  Elec       q    Type
REMARK                         _______ _______ _______ _____ _____    ______ ____
ROOT
ATOM      1  C   UNL     1       2.246   6.761  20.489  0.00  0.00    +0.000 C 
ENDROOT
BRANCH   1   2
ATOM      2  C   UNL     1       1.467   5.448  20.413  0.00  0.00    +0.000 C 
BRANCH   2   3
ATOM      3  C   UNL     1       2.102   4.334  21.255  0.00  0.00    +0.000 C 
BRANCH   3   4
ATOM      4  C   UNL     1       1.537   2.951  20.931  0.00  0.00    +0.000 C 
BRANCH   4   5
ATOM      5  C   UNL     1       0.863   2.905  19.564  0.00  0.00    +0.000 C 
BRANCH   5   6
ATOM      6  O   UNL     1       1.392   1.808  18.800  0.00  0.00    +0.000 OA
BRANCH   6   8
ATOM      7  C   UNL     1       2.565   3.157  17.283  0.00  0.00    +0.000 C 
ATOM      8  C   UNL     1       2.621   2.015  18.249  0.00  0.00    +0.000 C 
ATOM      9  O   UNL     1       3.628   1.361  18.484  0.00  0.00    +0.000 OA
ENDBRANCH   6   8
ENDBRANCH   5   6
ENDBRANCH   4   5
ENDBRANCH   3   4
ENDBRANCH   2   3
ENDBRANCH   1   2
BRANCH   1  10
ATOM     10  C   UNL     1       2.312   7.479  19.145  0.00  0.00    +0.000 C 
BRANCH  10  11
ATOM     11  C   UNL     1       2.879   6.543  18.082  0.00  0.00    +0.000 C 
BRANCH  11  12
ATOM     12  O   UNL     1       4.032   7.147  17.502  0.00  0.00    +0.000 OA
BRANCH  12  13
ATOM     13  C   UNL     1       4.996   6.289  17.053  0.00  0.00    +0.000 A 
ATOM     14  C   UNL     1       5.289   5.996  15.724  0.00  0.00    +0.000 A 
ATOM     15  C   UNL     1       6.314   5.097  15.426  0.00  0.00    +0.000 A 
ATOM     16  C   UNL     1       7.010   4.518  16.472  0.00  0.00    +0.000 A 
ATOM     17  N   UNL     1       6.753   4.769  17.772  0.00  0.00    +0.000 NA
ATOM     18  C   UNL     1       5.752   5.647  18.029  0.00  0.00    +0.000 A 
ENDBRANCH  12  13
ENDBRANCH  11  12
ENDBRANCH  10  11
ENDBRANCH   1  10
TORSDOF 10
ENDMDL
MODEL 7
REMARK VINA RESULT:      -5.3      1.629      1.895
REMARK  Name = 
REMARK  11 active torsions:
REMARK  status: ('A' for Active; 'I' for Inactive)
REMARK    1  A    between atoms: C_1  and  C_2
REMARK    2  A    between atoms: C_2  and  O_4
REMARK    3  A    between atoms: O_4  and  C_5
REMARK    4  A    between atoms: C_5  and  C_6
REMARK    5  A    between atoms: C_6  and  C_7
REMARK    6  A    between atoms: C_7  and  C_8
REMARK    7  A    between atoms: C_8  and  C_9
REMARK    8  A    between atoms: C_9  and  C_10
REMARK    9  A    between atoms: C_10  and  C_11
REMARK   10  A    between atoms: C_11  and  O_12
REMARK   11  A    between atoms: O_12  and  C_13
REMARK                            x       y       z     vdW  Elec       q    Type
REMARK                         _______ _______ _______ _____ _____    ______ ____
ROOT
ATOM      1  C   UNL     1       4.986   6.454  17.364  0.00  0.00    +0.000 C 
ENDROOT
BRANCH   1   2
ATOM      2  C   UNL     1       5.244   6.173  15.884  0.00  0.00    +0.000 C 
BRANCH   2   3
ATOM      3  C   UNL     1       5.694   4.730  15.626  0.00  0.00    +0.000 C 
BRANCH   3   4
ATOM      4  C   UNL     1       5.250   4.205  14.260  0.00  0.00    +0.000 C 
BRANCH   4   5
ATOM      5  C   UNL     1       6.428   3.779  13.391  0.00  0.00    +0.000 C 
BRANCH   5   6
ATOM      6  O   UNL     1       6.046   3.817  12.005  0.00  0.00    +0.000 OA
BRANCH   6   8
ATOM      7  C   UNL     1       3.954   3.185  11.155  0.00  0.00    +0.000 C 
ATOM      8  C   UNL     1       5.326   2.747  11.565  0.00  0.00    +0.000 C 
ATOM      9  O   UNL     1       5.720   1.590  11.522  0.00  0.00    +0.000 OA
ENDBRANCH   6   8
ENDBRANCH   5   6
ENDBRANCH   4   5
ENDBRANCH   3   4
ENDBRANCH   2   3
ENDBRANCH   1   2
BRANCH   1  10
ATOM     10  C   UNL     1       3.666   7.181  17.598  0.00  0.00    +0.000 C 
BRANCH  10  11
ATOM     11  C   UNL     1       2.994   6.647  18.860  0.00  0.00    +0.000 C 
BRANCH  11  12
ATOM     12  O   UNL     1       3.585   5.396  19.203  0.00  0.00    +0.000 OA
BRANCH  12  13
ATOM     13  C   UNL     1       2.807   4.292  18.998  0.00  0.00    +0.000 A 
ATOM     14  C   UNL     1       3.040   3.276  18.075  0.00  0.00    +0.000 A 
ATOM     15  C   UNL     1       2.151   2.204  17.990  0.00  0.00    +0.000 A 
ATOM     16  C   UNL     1       1.054   2.187  18.833  0.00  0.00    +0.000 A 
ATOM     17  N   UNL     1       0.789   3.153  19.736  0.00  0.00    +0.000 NA
ATOM     18  C   UNL     1       1.672   4.182  19.794  0.00  0.00    +0.000 A 
ENDBRANCH  12  13
ENDBRANCH  11  12
ENDBRANCH  10  11
ENDBRANCH   1  10
TORSDOF 10
ENDMDL
MODEL 8
REMARK VINA RESULT:      -5.3      2.778      6.331
REMARK  Name = 
REMARK  11 active torsions:
REMARK  status: ('A' for Active; 'I' for Inactive)
REMARK    1  A    between atoms: C_1  and  C_2
REMARK    2  A    between atoms: C_2  and  O_4
REMARK    3  A    between atoms: O_4  and  C_5
REMARK    4  A    between atoms: C_5  and  C_6
REMARK    5  A    between atoms: C_6  and  C_7
REMARK    6  A    between atoms: C_7  and  C_8
REMARK    7  A    between atoms: C_8  and  C_9
REMARK    8  A    between atoms: C_9  and  C_10
REMARK    9  A    between atoms: C_10  and  C_11
REMARK   10  A    between atoms: C_11  and  O_12
REMARK   11  A    between atoms: O_12  and  C_13
REMARK                            x       y       z     vdW  Elec       q    Type
REMARK                         _______ _______ _______ _____ _____    ______ ____
ROOT
ATOM      1  C   UNL     1       5.350   6.694  16.958  0.00  0.00    +0.000 C 
ENDROOT
BRANCH   1   2
ATOM      2  C   UNL     1       4.054   6.116  17.528  0.00  0.00    +0.000 C 
BRANCH   2   3
ATOM      3  C   UNL     1       4.249   4.728  18.150  0.00  0.00    +0.000 C 
BRANCH   3   4
ATOM      4  C   UNL     1       3.187   3.723  17.703  0.00  0.00    +0.000 C 
BRANCH   4   5
ATOM      5  C   UNL     1       1.777   4.300  17.771  0.00  0.00    +0.000 C 
BRANCH   5   6
ATOM      6  O   UNL     1       1.299   4.251  19.126  0.00  0.00    +0.000 OA
BRANCH   6   8
ATOM      7  C   UNL     1       1.337   2.786  20.957  0.00  0.00    +0.000 C 
ATOM      8  C   UNL     1       0.873   3.029  19.554  0.00  0.00    +0.000 C 
ATOM      9  O   UNL     1       0.222   2.229  18.896  0.00  0.00    +0.000 OA
ENDBRANCH   6   8
ENDBRANCH   5   6
ENDBRANCH   4   5
ENDBRANCH   3   4
ENDBRANCH   2   3
ENDBRANCH   1   2
BRANCH   1  10
ATOM     10  C   UNL     1       6.592   6.063  17.578  0.00  0.00    +0.000 C 
BRANCH  10  11
ATOM     11  C   UNL     1       7.177   5.022  16.628  0.00  0.00    +0.000 C 
BRANCH  11  12
ATOM     12  O   UNL     1       7.544   5.664  15.409  0.00  0.00    +0.000 OA
BRANCH  12  13
ATOM     13  C   UNL     1       7.196   5.009  14.261  0.00  0.00    +0.000 A 
ATOM     14  C   UNL     1       7.798   5.151  13.014  0.00  0.00    +0.000 A 
ATOM     15  C   UNL     1       7.330   4.403  11.933  0.00  0.00    +0.000 A 
ATOM     16  C   UNL     1       6.269   3.539  12.138  0.00  0.00    +0.000 A 
ATOM     17  N   UNL     1       5.654   3.377  13.328  0.00  0.00    +0.000 NA
ATOM     18  C   UNL     1       6.133   4.118  14.358  0.00  0.00    +0.000 A 
ENDBRANCH  12  13
ENDBRANCH  11  12
ENDBRANCH  10  11
ENDBRANCH   1  10
TORSDOF 10
ENDMDL
MODEL 9
REMARK VINA RESULT:      -5.3      3.495      5.699
REMARK  Name = 
REMARK  11 active torsions:
REMARK  status: ('A' for Active; 'I' for Inactive)
REMARK    1  A    between atoms: C_1  and  C_2
REMARK    2  A    between atoms: C_2  and  O_4
REMARK    3  A    between atoms: O_4  and  C_5
REMARK    4  A    between atoms: C_5  and  C_6
REMARK    5  A    between atoms: C_6  and  C_7
REMARK    6  A    between atoms: C_7  and  C_8
REMARK    7  A    between atoms: C_8  and  C_9
REMARK    8  A    between atoms: C_9  and  C_10
REMARK    9  A    between atoms: C_10  and  C_11
REMARK   10  A    between atoms: C_11  and  O_12
REMARK   11  A    between atoms: O_12  and  C_13
REMARK                            x       y       z     vdW  Elec       q    Type
REMARK                         _______ _______ _______ _____ _____    ______ ____
ROOT
ATOM      1  C   UNL     1       1.659   5.277  20.323  0.00  0.00    +0.000 C 
ENDROOT
BRANCH   1   2
ATOM      2  C   UNL     1       2.423   4.561  21.436  0.00  0.00    +0.000 C 
BRANCH   2   3
ATOM      3  C   UNL     1       2.216   3.041  21.412  0.00  0.00    +0.000 C 
BRANCH   3   4
ATOM      4  C   UNL     1       3.482   2.277  21.022  0.00  0.00    +0.000 C 
BRANCH   4   5
ATOM      5  C   UNL     1       3.797   2.396  19.535  0.00  0.00    +0.000 C 
BRANCH   5   6
ATOM      6  O   UNL     1       2.870   1.601  18.778  0.00  0.00    +0.000 OA
BRANCH   6   8
ATOM      7  C   UNL     1       2.473   3.213  17.122  0.00  0.00    +0.000 C 
ATOM      8  C   UNL     1       1.882   2.293  18.144  0.00  0.00    +0.000 C 
ATOM      9  O   UNL     1       0.684   2.202  18.377  0.00  0.00    +0.000 OA
ENDBRANCH   6   8
ENDBRANCH   5   6
ENDBRANCH   4   5
ENDBRANCH   3   4
ENDBRANCH   2   3
ENDBRANCH   1   2
BRANCH   1  10
ATOM     10  C   UNL     1       2.319   6.590  19.914  0.00  0.00    +0.000 C 
BRANCH  10  11
ATOM     11  C   UNL     1       3.100   6.398  18.618  0.00  0.00    +0.000 C 
BRANCH  11  12
ATOM     12  O   UNL     1       4.378   5.847  18.926  0.00  0.00    +0.000 OA
BRANCH  12  13
ATOM     13  C   UNL     1       5.174   5.549  17.856  0.00  0.00    +0.000 A 
ATOM     14  C   UNL     1       4.920   5.860  16.523  0.00  0.00    +0.000 A 
ATOM     15  C   UNL     1       5.839   5.492  15.541  0.00  0.00    +0.000 A 
ATOM     16  C   UNL     1       6.985   4.819  15.928  0.00  0.00    +0.000 A 
ATOM     17  N   UNL     1       7.266   4.493  17.206  0.00  0.00    +0.000 NA
ATOM     18  C   UNL     1       6.352   4.865  18.137  0.00  0.00    +0.000 A 
ENDBRANCH  12  13
ENDBRANCH  11  12
ENDBRANCH  10  11
ENDBRANCH   1  10
TORSDOF 10
ENDMDL
