MODEL 1
REMARK VINA RESULT:      -8.4      0.000      0.000
REMARK  Name = 
REMARK  10 active torsions:
REMARK  status: ('A' for Active; 'I' for Inactive)
REMARK    1  A    between atoms: C_1  and  N_2
REMARK    2  A    between atoms: N_2  and  C_3
REMARK    3  A    between atoms: C_3  and  C_4
REMARK    4  A    between atoms: N_6  and  C_7
REMARK    5  A    between atoms: C_14  and  C_16
REMARK    6  A    between atoms: C_21  and  O_22
REMARK    7  A    between atoms: O_22  and  C_23
REMARK    8  A    between atoms: C_23  and  C_24
REMARK    9  A    between atoms: C_24  and  O_25
REMARK   10  A    between atoms: O_25  and  C_26
REMARK                            x       y       z     vdW  Elec       q    Type
REMARK                         _______ _______ _______ _____ _____    ______ ____
ROOT
ATOM      1  C   UNL     1       6.681   5.328  18.852  0.00  0.00    +0.000 C 
ATOM      2  N   UNL     1       5.244   5.097  18.712  0.00  0.00    +0.000 N 
ATOM      3  C   UNL     1       4.720   3.939  19.352  0.00  0.00    +0.000 C 
ATOM      4  O   UNL     1       5.462   3.226  20.029  0.00  0.00    +0.000 OA
ENDROOT
BRANCH   3   5
ATOM      5  C   UNL     1       3.257   3.579  19.270  0.00  0.00    +0.000 A 
ATOM      6  C   UNL     1       2.874   2.532  18.416  0.00  0.00    +0.000 A 
ATOM      7  C   UNL     1       1.564   2.072  18.350  0.00  0.00    +0.000 A 
ATOM      8  C   UNL     1       0.576   2.716  19.071  0.00  0.00    +0.000 A 
ATOM      9  C   UNL     1       0.903   3.835  19.834  0.00  0.00    +0.000 A 
ATOM     10  C   UNL     1       2.230   4.296  19.935  0.00  0.00    +0.000 A 
BRANCH  10  11
ATOM     11  O   UNL     1       2.553   5.412  20.664  0.00  0.00    +0.000 OA
BRANCH  11  12
ATOM     12  C   UNL     1       2.149   6.707  20.177  0.00  0.00    +0.000 C 
BRANCH  12  13
ATOM     13  C   UNL     1       0.979   7.260  20.998  0.00  0.00    +0.000 C 
BRANCH  13  14
ATOM     14  O   UNL     1       1.485   8.369  21.741  0.00  0.00    +0.000 OA
BRANCH  14  15
ATOM     15  C   UNL     1       0.684   9.467  21.828  0.00  0.00    +0.000 A 
ATOM     16  C   UNL     1      -0.165   9.479  22.936  0.00  0.00    +0.000 A 
ATOM     17  C   UNL     1      -0.988  10.574  23.184  0.00  0.00    +0.000 A 
ATOM     18  C   UNL     1      -0.954  11.672  22.328  0.00  0.00    +0.000 A 
ATOM     19  C   UNL     1      -0.105  11.666  21.221  0.00  0.00    +0.000 A 
ATOM     20  C   UNL     1       0.715  10.561  20.967  0.00  0.00    +0.000 A 
ENDBRANCH  14  15
ENDBRANCH  13  14
ENDBRANCH  12  13
ENDBRANCH  11  12
ENDBRANCH  10  11
ENDBRANCH   3   5
BRANCH   2  21
ATOM     21  C   UNL     1       4.551   5.951  17.730  0.00  0.00    +0.000 C 
BRANCH  21  22
ATOM     22  C   UNL     1       5.060   5.968  16.269  0.00  0.00    +0.000 C 
ATOM     23  O   UNL     1       5.029   7.034  15.646  0.00  0.00    +0.000 OA
ATOM     24  N   UNL     1       5.483   4.756  15.748  0.00  0.00    +0.000 N 
ATOM     25  H   UNL     1       5.297   3.931  16.308  0.00  0.00    +0.000 HD
BRANCH  24  26
ATOM     26  C   UNL     1       6.046   4.551  14.460  0.00  0.00    +0.000 A 
ATOM     27  C   UNL     1       5.520   3.651  13.521  0.00  0.00    +0.000 A 
ATOM     28  C   UNL     1       6.140   3.450  12.280  0.00  0.00    +0.000 A 
ATOM     29  C   UNL     1       7.294   4.150  11.959  0.00  0.00    +0.000 A 
ATOM     30  C   UNL     1       7.801   5.068  12.867  0.00  0.00    +0.000 A 
ATOM     31  F   UNL     1       8.916   5.746  12.561  0.00  0.00    +0.000 F 
ATOM     32  C   UNL     1       7.181   5.287  14.101  0.00  0.00    +0.000 A 
ENDBRANCH  24  26
ENDBRANCH  21  22
ENDBRANCH   2  21
TORSDOF 9
ENDMDL
MODEL 2
REMARK VINA RESULT:      -8.3      1.051      1.567
REMARK  Name = 
REMARK  10 active torsions:
REMARK  status: ('A' for Active; 'I' for Inactive)
REMARK    1  A    between atoms: C_1  and  N_2
REMARK    2  A    between atoms: N_2  and  C_3
REMARK    3  A    between atoms: C_3  and  C_4
REMARK    4  A    between atoms: N_6  and  C_7
REMARK    5  A    between atoms: C_14  and  C_16
REMARK    6  A    between atoms: C_21  and  O_22
REMARK    7  A    between atoms: O_22  and  C_23
REMARK    8  A    between atoms: C_23  and  C_24
REMARK    9  A    between atoms: C_24  and  O_25
REMARK   10  A    between atoms: O_25  and  C_26
REMARK                            x       y       z     vdW  Elec       q    Type
REMARK                         _______ _______ _______ _____ _____    ______ ____
ROOT
ATOM      1  C   UNL     1       6.628   5.558  18.756  0.00  0.00    +0.000 C 
ATOM      2  N   UNL     1       5.212   5.236  18.579  0.00  0.00    +0.000 N 
ATOM      3  C   UNL     1       4.731   4.085  19.262  0.00  0.00    +0.000 C 
ATOM      4  O   UNL     1       5.486   3.452  20.001  0.00  0.00    +0.000 OA
ENDROOT
BRANCH   3   5
ATOM      5  C   UNL     1       3.294   3.637  19.149  0.00  0.00    +0.000 A 
ATOM      6  C   UNL     1       2.982   2.622  18.230  0.00  0.00    +0.000 A 
ATOM      7  C   UNL     1       1.705   2.083  18.128  0.00  0.00    +0.000 A 
ATOM      8  C   UNL     1       0.676   2.616  18.881  0.00  0.00    +0.000 A 
ATOM      9  C   UNL     1       0.928   3.704  19.714  0.00  0.00    +0.000 A 
ATOM     10  C   UNL     1       2.222   4.242  19.851  0.00  0.00    +0.000 A 
BRANCH  10  11
ATOM     11  O   UNL     1       2.470   5.330  20.650  0.00  0.00    +0.000 OA
BRANCH  11  12
ATOM     12  C   UNL     1       2.087   6.640  20.187  0.00  0.00    +0.000 C 
BRANCH  12  13
ATOM     13  C   UNL     1       1.045   7.266  21.120  0.00  0.00    +0.000 C 
BRANCH  13  14
ATOM     14  O   UNL     1       1.524   8.568  21.459  0.00  0.00    +0.000 OA
BRANCH  14  15
ATOM     15  C   UNL     1       0.626   9.590  21.388  0.00  0.00    +0.000 A 
ATOM     16  C   UNL     1       0.193   9.891  20.096  0.00  0.00    +0.000 A 
ATOM     17  C   UNL     1      -0.776  10.869  19.885  0.00  0.00    +0.000 A 
ATOM     18  C   UNL     1      -1.328  11.541  20.973  0.00  0.00    +0.000 A 
ATOM     19  C   UNL     1      -0.900  11.240  22.267  0.00  0.00    +0.000 A 
ATOM     20  C   UNL     1       0.081  10.265  22.477  0.00  0.00    +0.000 A 
ENDBRANCH  14  15
ENDBRANCH  13  14
ENDBRANCH  12  13
ENDBRANCH  11  12
ENDBRANCH  10  11
ENDBRANCH   3   5
BRANCH   2  21
ATOM     21  C   UNL     1       4.509   5.997  17.529  0.00  0.00    +0.000 C 
BRANCH  21  22
ATOM     22  C   UNL     1       5.059   5.953  16.084  0.00  0.00    +0.000 C 
ATOM     23  O   UNL     1       5.107   7.005  15.438  0.00  0.00    +0.000 OA
ATOM     24  N   UNL     1       5.426   4.707  15.601  0.00  0.00    +0.000 N 
ATOM     25  H   UNL     1       5.178   3.907  16.172  0.00  0.00    +0.000 HD
BRANCH  24  26
ATOM     26  C   UNL     1       6.013   4.442  14.334  0.00  0.00    +0.000 A 
ATOM     27  C   UNL     1       7.202   5.041  13.893  0.00  0.00    +0.000 A 
ATOM     28  C   UNL     1       7.716   4.782  12.615  0.00  0.00    +0.000 A 
ATOM     29  C   UNL     1       7.047   3.918  11.760  0.00  0.00    +0.000 A 
ATOM     30  C   UNL     1       5.890   3.293  12.201  0.00  0.00    +0.000 A 
ATOM     31  F   UNL     1       5.242   2.457  11.379  0.00  0.00    +0.000 F 
ATOM     32  C   UNL     1       5.378   3.532  13.480  0.00  0.00    +0.000 A 
ENDBRANCH  24  26
ENDBRANCH  21  22
ENDBRANCH   2  21
TORSDOF 9
ENDMDL
MODEL 3
REMARK VINA RESULT:      -8.0      1.358      1.801
REMARK  Name = 
REMARK  10 active torsions:
REMARK  status: ('A' for Active; 'I' for Inactive)
REMARK    1  A    between atoms: C_1  and  N_2
REMARK    2  A    between atoms: N_2  and  C_3
REMARK    3  A    between atoms: C_3  and  C_4
REMARK    4  A    between atoms: N_6  and  C_7
REMARK    5  A    between atoms: C_14  and  C_16
REMARK    6  A    between atoms: C_21  and  O_22
REMARK    7  A    between atoms: O_22  and  C_23
REMARK    8  A    between atoms: C_23  and  C_24
REMARK    9  A    between atoms: C_24  and  O_25
REMARK   10  A    between atoms: O_25  and  C_26
REMARK                            x       y       z     vdW  Elec       q    Type
REMARK                         _______ _______ _______ _____ _____    ______ ____
ROOT
ATOM      1  C   UNL     1       6.694   5.907  18.559  0.00  0.00    +0.000 C 
ATOM      2  N   UNL     1       5.277   5.551  18.509  0.00  0.00    +0.000 N 
ATOM      3  C   UNL     1       4.856   4.492  19.361  0.00  0.00    +0.000 C 
ATOM      4  O   UNL     1       5.663   3.969  20.130  0.00  0.00    +0.000 OA
ENDROOT
BRANCH   3   5
ATOM      5  C   UNL     1       3.424   4.019  19.392  0.00  0.00    +0.000 A 
ATOM      6  C   UNL     1       3.104   2.817  18.738  0.00  0.00    +0.000 A 
ATOM      7  C   UNL     1       1.832   2.259  18.796  0.00  0.00    +0.000 A 
ATOM      8  C   UNL     1       0.814   2.941  19.435  0.00  0.00    +0.000 A 
ATOM      9  C   UNL     1       1.070   4.193  19.989  0.00  0.00    +0.000 A 
ATOM     10  C   UNL     1       2.360   4.760  19.965  0.00  0.00    +0.000 A 
BRANCH  10  11
ATOM     11  O   UNL     1       2.611   6.003  20.487  0.00  0.00    +0.000 OA
BRANCH  11  12
ATOM     12  C   UNL     1       1.781   7.112  20.085  0.00  0.00    +0.000 C 
BRANCH  12  13
ATOM     13  C   UNL     1       1.529   8.060  21.262  0.00  0.00    +0.000 C 
BRANCH  13  14
ATOM     14  O   UNL     1       0.226   8.613  21.074  0.00  0.00    +0.000 OA
BRANCH  14  15
ATOM     15  C   UNL     1       0.156   9.827  20.461  0.00  0.00    +0.000 A 
ATOM     16  C   UNL     1       0.814  10.856  21.137  0.00  0.00    +0.000 A 
ATOM     17  C   UNL     1       0.880  12.134  20.587  0.00  0.00    +0.000 A 
ATOM     18  C   UNL     1       0.299  12.383  19.347  0.00  0.00    +0.000 A 
ATOM     19  C   UNL     1      -0.357  11.357  18.666  0.00  0.00    +0.000 A 
ATOM     20  C   UNL     1      -0.432  10.076  19.223  0.00  0.00    +0.000 A 
ENDBRANCH  14  15
ENDBRANCH  13  14
ENDBRANCH  12  13
ENDBRANCH  11  12
ENDBRANCH  10  11
ENDBRANCH   3   5
BRANCH   2  21
ATOM     21  C   UNL     1       4.501   6.161  17.413  0.00  0.00    +0.000 C 
BRANCH  21  22
ATOM     22  C   UNL     1       5.043   6.052  15.968  0.00  0.00    +0.000 C 
ATOM     23  O   UNL     1       5.077   7.072  15.272  0.00  0.00    +0.000 OA
ATOM     24  N   UNL     1       5.420   4.788  15.544  0.00  0.00    +0.000 N 
ATOM     25  H   UNL     1       5.183   4.014  16.154  0.00  0.00    +0.000 HD
BRANCH  24  26
ATOM     26  C   UNL     1       6.001   4.468  14.287  0.00  0.00    +0.000 A 
ATOM     27  C   UNL     1       7.211   5.014  13.834  0.00  0.00    +0.000 A 
ATOM     28  C   UNL     1       7.720   4.703  12.566  0.00  0.00    +0.000 A 
ATOM     29  C   UNL     1       7.026   3.836  11.734  0.00  0.00    +0.000 A 
ATOM     30  C   UNL     1       5.847   3.262  12.188  0.00  0.00    +0.000 A 
ATOM     31  F   UNL     1       5.175   2.425  11.387  0.00  0.00    +0.000 F 
ATOM     32  C   UNL     1       5.340   3.555  13.457  0.00  0.00    +0.000 A 
ENDBRANCH  24  26
ENDBRANCH  21  22
ENDBRANCH   2  21
TORSDOF 9
ENDMDL
MODEL 4
REMARK VINA RESULT:      -8.0      1.147      1.429
REMARK  Name = 
REMARK  10 active torsions:
REMARK  status: ('A' for Active; 'I' for Inactive)
REMARK    1  A    between atoms: C_1  and  N_2
REMARK    2  A    between atoms: N_2  and  C_3
REMARK    3  A    between atoms: C_3  and  C_4
REMARK    4  A    between atoms: N_6  and  C_7
REMARK    5  A    between atoms: C_14  and  C_16
REMARK    6  A    between atoms: C_21  and  O_22
REMARK    7  A    between atoms: O_22  and  C_23
REMARK    8  A    between atoms: C_23  and  C_24
REMARK    9  A    between atoms: C_24  and  O_25
REMARK   10  A    between atoms: O_25  and  C_26
REMARK                            x       y       z     vdW  Elec       q    Type
REMARK                         _______ _______ _______ _____ _____    ______ ____
ROOT
ATOM      1  C   UNL     1       6.793   6.232  18.444  0.00  0.00    +0.000 C 
ATOM      2  N   UNL     1       5.417   5.779  18.242  0.00  0.00    +0.000 N 
ATOM      3  C   UNL     1       5.024   4.606  18.946  0.00  0.00    +0.000 C 
ATOM      4  O   UNL     1       5.813   4.064  19.721  0.00  0.00    +0.000 OA
ENDROOT
BRANCH   3   5
ATOM      5  C   UNL     1       3.637   4.027  18.811  0.00  0.00    +0.000 A 
ATOM      6  C   UNL     1       3.490   2.794  18.155  0.00  0.00    +0.000 A 
ATOM      7  C   UNL     1       2.265   2.142  18.069  0.00  0.00    +0.000 A 
ATOM      8  C   UNL     1       1.128   2.757  18.558  0.00  0.00    +0.000 A 
ATOM      9  C   UNL     1       1.221   4.034  19.106  0.00  0.00    +0.000 A 
ATOM     10  C   UNL     1       2.459   4.696  19.227  0.00  0.00    +0.000 A 
BRANCH  10  11
ATOM     11  O   UNL     1       2.552   5.964  19.744  0.00  0.00    +0.000 OA
BRANCH  11  12
ATOM     12  C   UNL     1       1.898   6.259  20.995  0.00  0.00    +0.000 C 
BRANCH  12  13
ATOM     13  C   UNL     1       0.889   7.399  20.828  0.00  0.00    +0.000 C 
BRANCH  13  14
ATOM     14  O   UNL     1       1.237   8.403  21.782  0.00  0.00    +0.000 OA
BRANCH  14  15
ATOM     15  C   UNL     1       0.456   9.518  21.814  0.00  0.00    +0.000 A 
ATOM     16  C   UNL     1      -0.290   9.667  22.984  0.00  0.00    +0.000 A 
ATOM     17  C   UNL     1      -1.080  10.797  23.179  0.00  0.00    +0.000 A 
ATOM     18  C   UNL     1      -1.113  11.793  22.206  0.00  0.00    +0.000 A 
ATOM     19  C   UNL     1      -0.366  11.649  21.036  0.00  0.00    +0.000 A 
ATOM     20  C   UNL     1       0.419  10.509  20.837  0.00  0.00    +0.000 A 
ENDBRANCH  14  15
ENDBRANCH  13  14
ENDBRANCH  12  13
ENDBRANCH  11  12
ENDBRANCH  10  11
ENDBRANCH   3   5
BRANCH   2  21
ATOM     21  C   UNL     1       4.676   6.445  17.155  0.00  0.00    +0.000 C 
BRANCH  21  22
ATOM     22  C   UNL     1       5.131   6.213  15.695  0.00  0.00    +0.000 C 
ATOM     23  O   UNL     1       5.050   7.151  14.895  0.00  0.00    +0.000 OA
ATOM     24  N   UNL     1       5.567   4.936  15.379  0.00  0.00    +0.000 N 
ATOM     25  H   UNL     1       5.424   4.220  16.082  0.00  0.00    +0.000 HD
BRANCH  24  26
ATOM     26  C   UNL     1       6.089   4.518  14.125  0.00  0.00    +0.000 A 
ATOM     27  C   UNL     1       7.274   5.026  13.573  0.00  0.00    +0.000 A 
ATOM     28  C   UNL     1       7.722   4.616  12.310  0.00  0.00    +0.000 A 
ATOM     29  C   UNL     1       6.992   3.687  11.582  0.00  0.00    +0.000 A 
ATOM     30  C   UNL     1       5.838   3.151  12.136  0.00  0.00    +0.000 A 
ATOM     31  F   UNL     1       5.131   2.254  11.437  0.00  0.00    +0.000 F 
ATOM     32  C   UNL     1       5.391   3.543  13.402  0.00  0.00    +0.000 A 
ENDBRANCH  24  26
ENDBRANCH  21  22
ENDBRANCH   2  21
TORSDOF 9
ENDMDL
MODEL 5
REMARK VINA RESULT:      -7.9      1.755      2.079
REMARK  Name = 
REMARK  10 active torsions:
REMARK  status: ('A' for Active; 'I' for Inactive)
REMARK    1  A    between atoms: C_1  and  N_2
REMARK    2  A    between atoms: N_2  and  C_3
REMARK    3  A    between atoms: C_3  and  C_4
REMARK    4  A    between atoms: N_6  and  C_7
REMARK    5  A    between atoms: C_14  and  C_16
REMARK    6  A    between atoms: C_21  and  O_22
REMARK    7  A    between atoms: O_22  and  C_23
REMARK    8  A    between atoms: C_23  and  C_24
REMARK    9  A    between atoms: C_24  and  O_25
REMARK   10  A    between atoms: O_25  and  C_26
REMARK                            x       y       z     vdW  Elec       q    Type
REMARK                         _______ _______ _______ _____ _____    ______ ____
ROOT
ATOM      1  C   UNL     1       7.797   5.841  18.283  0.00  0.00    +0.000 C 
ATOM      2  N   UNL     1       6.433   5.579  17.821  0.00  0.00    +0.000 N 
ATOM      3  C   UNL     1       5.578   4.888  18.723  0.00  0.00    +0.000 C 
ATOM      4  O   UNL     1       5.984   4.595  19.848  0.00  0.00    +0.000 OA
ENDROOT
BRANCH   3   5
ATOM      5  C   UNL     1       4.154   4.543  18.361  0.00  0.00    +0.000 A 
ATOM      6  C   UNL     1       3.862   3.221  17.987  0.00  0.00    +0.000 A 
ATOM      7  C   UNL     1       2.564   2.794  17.730  0.00  0.00    +0.000 A 
ATOM      8  C   UNL     1       1.528   3.708  17.747  0.00  0.00    +0.000 A 
ATOM      9  C   UNL     1       1.802   5.051  17.996  0.00  0.00    +0.000 A 
ATOM     10  C   UNL     1       3.106   5.495  18.288  0.00  0.00    +0.000 A 
BRANCH  10  11
ATOM     11  O   UNL     1       3.385   6.821  18.508  0.00  0.00    +0.000 OA
BRANCH  11  12
ATOM     12  C   UNL     1       2.325   7.789  18.378  0.00  0.00    +0.000 C 
BRANCH  12  13
ATOM     13  C   UNL     1       1.796   8.210  19.753  0.00  0.00    +0.000 C 
BRANCH  13  14
ATOM     14  O   UNL     1       0.864   9.268  19.531  0.00  0.00    +0.000 OA
BRANCH  14  15
ATOM     15  C   UNL     1       0.264   9.800  20.632  0.00  0.00    +0.000 A 
ATOM     16  C   UNL     1       0.021   8.884  21.657  0.00  0.00    +0.000 A 
ATOM     17  C   UNL     1      -0.525   9.306  22.867  0.00  0.00    +0.000 A 
ATOM     18  C   UNL     1      -0.815  10.655  23.061  0.00  0.00    +0.000 A 
ATOM     19  C   UNL     1      -0.570  11.574  22.039  0.00  0.00    +0.000 A 
ATOM     20  C   UNL     1      -0.031  11.147  20.821  0.00  0.00    +0.000 A 
ENDBRANCH  14  15
ENDBRANCH  13  14
ENDBRANCH  12  13
ENDBRANCH  11  12
ENDBRANCH  10  11
ENDBRANCH   3   5
BRANCH   2  21
ATOM     21  C   UNL     1       6.179   5.845  16.393  0.00  0.00    +0.000 C 
BRANCH  21  22
ATOM     22  C   UNL     1       6.183   4.657  15.403  0.00  0.00    +0.000 C 
ATOM     23  O   UNL     1       6.468   3.533  15.830  0.00  0.00    +0.000 OA
ATOM     24  N   UNL     1       5.900   4.955  14.079  0.00  0.00    +0.000 N 
ATOM     25  H   UNL     1       5.851   5.938  13.835  0.00  0.00    +0.000 HD
BRANCH  24  26
ATOM     26  C   UNL     1       5.786   4.017  13.018  0.00  0.00    +0.000 A 
ATOM     27  C   UNL     1       4.559   3.626  12.461  0.00  0.00    +0.000 A 
ATOM     28  C   UNL     1       4.495   2.661  11.446  0.00  0.00    +0.000 A 
ATOM     29  C   UNL     1       5.660   2.076  10.972  0.00  0.00    +0.000 A 
ATOM     30  C   UNL     1       6.881   2.482  11.491  0.00  0.00    +0.000 A 
ATOM     31  F   UNL     1       8.008   1.919  11.036  0.00  0.00    +0.000 F 
ATOM     32  C   UNL     1       6.955   3.455  12.493  0.00  0.00    +0.000 A 
ENDBRANCH  24  26
ENDBRANCH  21  22
ENDBRANCH   2  21
TORSDOF 9
ENDMDL
MODEL 6
REMARK VINA RESULT:      -7.7      1.735      2.027
REMARK  Name = 
REMARK  10 active torsions:
REMARK  status: ('A' for Active; 'I' for Inactive)
REMARK    1  A    between atoms: C_1  and  N_2
REMARK    2  A    between atoms: N_2  and  C_3
REMARK    3  A    between atoms: C_3  and  C_4
REMARK    4  A    between atoms: N_6  and  C_7
REMARK    5  A    between atoms: C_14  and  C_16
REMARK    6  A    between atoms: C_21  and  O_22
REMARK    7  A    between atoms: O_22  and  C_23
REMARK    8  A    between atoms: C_23  and  C_24
REMARK    9  A    between atoms: C_24  and  O_25
REMARK   10  A    between atoms: O_25  and  C_26
REMARK                            x       y       z     vdW  Elec       q    Type
REMARK                         _______ _______ _______ _____ _____    ______ ____
ROOT
ATOM      1  C   UNL     1       7.613   6.285  18.399  0.00  0.00    +0.000 C 
ATOM      2  N   UNL     1       6.273   5.900  17.955  0.00  0.00    +0.000 N 
ATOM      3  C   UNL     1       5.603   4.916  18.733  0.00  0.00    +0.000 C 
ATOM      4  O   UNL     1       6.133   4.479  19.755  0.00  0.00    +0.000 OA
ENDROOT
BRANCH   3   5
ATOM      5  C   UNL     1       4.223   4.422  18.372  0.00  0.00    +0.000 A 
ATOM      6  C   UNL     1       4.115   3.287  17.553  0.00  0.00    +0.000 A 
ATOM      7  C   UNL     1       2.888   2.708  17.249  0.00  0.00    +0.000 A 
ATOM      8  C   UNL     1       1.722   3.310  17.681  0.00  0.00    +0.000 A 
ATOM      9  C   UNL     1       1.791   4.505  18.394  0.00  0.00    +0.000 A 
ATOM     10  C   UNL     1       3.026   5.089  18.736  0.00  0.00    +0.000 A 
BRANCH  10  11
ATOM     11  O   UNL     1       3.099   6.278  19.416  0.00  0.00    +0.000 OA
BRANCH  11  12
ATOM     12  C   UNL     1       2.118   6.564  20.433  0.00  0.00    +0.000 C 
BRANCH  12  13
ATOM     13  C   UNL     1       1.690   8.034  20.382  0.00  0.00    +0.000 C 
BRANCH  13  14
ATOM     14  O   UNL     1       1.003   8.306  21.604  0.00  0.00    +0.000 OA
BRANCH  14  15
ATOM     15  C   UNL     1       0.235   9.431  21.639  0.00  0.00    +0.000 A 
ATOM     16  C   UNL     1      -0.351   9.692  22.879  0.00  0.00    +0.000 A 
ATOM     17  C   UNL     1      -1.105  10.846  23.074  0.00  0.00    +0.000 A 
ATOM     18  C   UNL     1      -1.264  11.754  22.030  0.00  0.00    +0.000 A 
ATOM     19  C   UNL     1      -0.678  11.497  20.789  0.00  0.00    +0.000 A 
ATOM     20  C   UNL     1       0.072  10.333  20.591  0.00  0.00    +0.000 A 
ENDBRANCH  14  15
ENDBRANCH  13  14
ENDBRANCH  12  13
ENDBRANCH  11  12
ENDBRANCH  10  11
ENDBRANCH   3   5
BRANCH   2  21
ATOM     21  C   UNL     1       5.873   6.395  16.624  0.00  0.00    +0.000 C 
BRANCH  21  22
ATOM     22  C   UNL     1       6.336   5.616  15.371  0.00  0.00    +0.000 C 
ATOM     23  O   UNL     1       7.536   5.626  15.079  0.00  0.00    +0.000 OA
ATOM     24  N   UNL     1       5.345   4.986  14.635  0.00  0.00    +0.000 N 
ATOM     25  H   UNL     1       4.386   5.198  14.888  0.00  0.00    +0.000 HD
BRANCH  24  26
ATOM     26  C   UNL     1       5.546   4.166  13.492  0.00  0.00    +0.000 A 
ATOM     27  C   UNL     1       6.810   3.731  13.067  0.00  0.00    +0.000 A 
ATOM     28  C   UNL     1       6.962   2.962  11.905  0.00  0.00    +0.000 A 
ATOM     29  C   UNL     1       5.849   2.614  11.153  0.00  0.00    +0.000 A 
ATOM     30  C   UNL     1       4.591   3.009  11.585  0.00  0.00    +0.000 A 
ATOM     31  F   UNL     1       3.514   2.675  10.862  0.00  0.00    +0.000 F 
ATOM     32  C   UNL     1       4.429   3.763  12.751  0.00  0.00    +0.000 A 
ENDBRANCH  24  26
ENDBRANCH  21  22
ENDBRANCH   2  21
TORSDOF 9
ENDMDL
MODEL 7
REMARK VINA RESULT:      -7.6      1.715      2.080
REMARK  Name = 
REMARK  10 active torsions:
REMARK  status: ('A' for Active; 'I' for Inactive)
REMARK    1  A    between atoms: C_1  and  N_2
REMARK    2  A    between atoms: N_2  and  C_3
REMARK    3  A    between atoms: C_3  and  C_4
REMARK    4  A    between atoms: N_6  and  C_7
REMARK    5  A    between atoms: C_14  and  C_16
REMARK    6  A    between atoms: C_21  and  O_22
REMARK    7  A    between atoms: O_22  and  C_23
REMARK    8  A    between atoms: C_23  and  C_24
REMARK    9  A    between atoms: C_24  and  O_25
REMARK   10  A    between atoms: O_25  and  C_26
REMARK                            x       y       z     vdW  Elec       q    Type
REMARK                         _______ _______ _______ _____ _____    ______ ____
ROOT
ATOM      1  C   UNL     1       7.592   5.773  19.296  0.00  0.00    +0.000 C 
ATOM      2  N   UNL     1       6.257   5.766  18.698  0.00  0.00    +0.000 N 
ATOM      3  C   UNL     1       5.415   4.671  19.036  0.00  0.00    +0.000 C 
ATOM      4  O   UNL     1       5.805   3.824  19.841  0.00  0.00    +0.000 OA
ENDROOT
BRANCH   3   5
ATOM      5  C   UNL     1       4.020   4.539  18.474  0.00  0.00    +0.000 A 
ATOM      6  C   UNL     1       3.763   3.496  17.569  0.00  0.00    +0.000 A 
ATOM      7  C   UNL     1       2.488   3.242  17.076  0.00  0.00    +0.000 A 
ATOM      8  C   UNL     1       1.447   4.090  17.403  0.00  0.00    +0.000 A 
ATOM      9  C   UNL     1       1.695   5.204  18.202  0.00  0.00    +0.000 A 
ATOM     10  C   UNL     1       2.974   5.459  18.733  0.00  0.00    +0.000 A 
BRANCH  10  11
ATOM     11  O   UNL     1       3.229   6.568  19.500  0.00  0.00    +0.000 OA
BRANCH  11  12
ATOM     12  C   UNL     1       2.247   7.622  19.553  0.00  0.00    +0.000 C 
BRANCH  12  13
ATOM     13  C   UNL     1       1.686   7.775  20.971  0.00  0.00    +0.000 C 
BRANCH  13  14
ATOM     14  O   UNL     1       0.411   8.405  20.845  0.00  0.00    +0.000 OA
BRANCH  14  15
ATOM     15  C   UNL     1       0.406   9.706  20.441  0.00  0.00    +0.000 A 
ATOM     16  C   UNL     1      -0.378   9.959  19.314  0.00  0.00    +0.000 A 
ATOM     17  C   UNL     1      -0.528  11.257  18.834  0.00  0.00    +0.000 A 
ATOM     18  C   UNL     1       0.097  12.314  19.493  0.00  0.00    +0.000 A 
ATOM     19  C   UNL     1       0.880  12.065  20.621  0.00  0.00    +0.000 A 
ATOM     20  C   UNL     1       1.037  10.760  21.097  0.00  0.00    +0.000 A 
ENDBRANCH  14  15
ENDBRANCH  13  14
ENDBRANCH  12  13
ENDBRANCH  11  12
ENDBRANCH  10  11
ENDBRANCH   3   5
BRANCH   2  21
ATOM     21  C   UNL     1       6.028   6.760  17.633  0.00  0.00    +0.000 C 
BRANCH  21  22
ATOM     22  C   UNL     1       5.860   6.264  16.177  0.00  0.00    +0.000 C 
ATOM     23  O   UNL     1       4.817   6.540  15.576  0.00  0.00    +0.000 OA
ATOM     24  N   UNL     1       6.896   5.501  15.661  0.00  0.00    +0.000 N 
ATOM     25  H   UNL     1       7.614   5.208  16.315  0.00  0.00    +0.000 HD
BRANCH  24  26
ATOM     26  C   UNL     1       6.984   4.999  14.335  0.00  0.00    +0.000 A 
ATOM     27  C   UNL     1       7.843   5.532  13.363  0.00  0.00    +0.000 A 
ATOM     28  C   UNL     1       7.859   5.033  12.053  0.00  0.00    +0.000 A 
ATOM     29  C   UNL     1       7.017   3.988  11.699  0.00  0.00    +0.000 A 
ATOM     30  C   UNL     1       6.190   3.431  12.663  0.00  0.00    +0.000 A 
ATOM     31  F   UNL     1       5.375   2.422  12.325  0.00  0.00    +0.000 F 
ATOM     32  C   UNL     1       6.178   3.912  13.976  0.00  0.00    +0.000 A 
ENDBRANCH  24  26
ENDBRANCH  21  22
ENDBRANCH   2  21
TORSDOF 9
ENDMDL
MODEL 8
REMARK VINA RESULT:      -7.6      3.143      8.604
REMARK  Name = 
REMARK  10 active torsions:
REMARK  status: ('A' for Active; 'I' for Inactive)
REMARK    1  A    between atoms: C_1  and  N_2
REMARK    2  A    between atoms: N_2  and  C_3
REMARK    3  A    between atoms: C_3  and  C_4
REMARK    4  A    between atoms: N_6  and  C_7
REMARK    5  A    between atoms: C_14  and  C_16
REMARK    6  A    between atoms: C_21  and  O_22
REMARK    7  A    between atoms: O_22  and  C_23
REMARK    8  A    between atoms: C_23  and  C_24
REMARK    9  A    between atoms: C_24  and  O_25
REMARK   10  A    between atoms: O_25  and  C_26
REMARK                            x       y       z     vdW  Elec       q    Type
REMARK                         _______ _______ _______ _____ _____    ______ ____
ROOT
ATOM      1  C   UNL     1       5.841   6.920  18.120  0.00  0.00    +0.000 C 
ATOM      2  N   UNL     1       4.519   6.332  18.332  0.00  0.00    +0.000 N 
ATOM      3  C   UNL     1       4.472   5.128  19.088  0.00  0.00    +0.000 C 
ATOM      4  O   UNL     1       5.507   4.669  19.571  0.00  0.00    +0.000 OA
ENDROOT
BRANCH   3   5
ATOM      5  C   UNL     1       3.172   4.413  19.363  0.00  0.00    +0.000 A 
ATOM      6  C   UNL     1       2.683   4.403  20.680  0.00  0.00    +0.000 A 
ATOM      7  C   UNL     1       1.449   3.851  21.007  0.00  0.00    +0.000 A 
ATOM      8  C   UNL     1       0.709   3.206  20.034  0.00  0.00    +0.000 A 
ATOM      9  C   UNL     1       1.223   3.093  18.744  0.00  0.00    +0.000 A 
ATOM     10  C   UNL     1       2.457   3.672  18.390  0.00  0.00    +0.000 A 
BRANCH  10  11
ATOM     11  O   UNL     1       2.978   3.542  17.127  0.00  0.00    +0.000 OA
BRANCH  11  12
ATOM     12  C   UNL     1       4.114   2.678  16.924  0.00  0.00    +0.000 C 
BRANCH  12  13
ATOM     13  C   UNL     1       5.330   3.476  16.442  0.00  0.00    +0.000 C 
BRANCH  13  14
ATOM     14  O   UNL     1       4.918   4.192  15.278  0.00  0.00    +0.000 OA
BRANCH  14  15
ATOM     15  C   UNL     1       5.785   4.209  14.228  0.00  0.00    +0.000 A 
ATOM     16  C   UNL     1       5.375   3.456  13.127  0.00  0.00    +0.000 A 
ATOM     17  C   UNL     1       6.134   3.440  11.959  0.00  0.00    +0.000 A 
ATOM     18  C   UNL     1       7.303   4.194  11.884  0.00  0.00    +0.000 A 
ATOM     19  C   UNL     1       7.714   4.951  12.983  0.00  0.00    +0.000 A 
ATOM     20  C   UNL     1       6.957   4.958  14.158  0.00  0.00    +0.000 A 
ENDBRANCH  14  15
ENDBRANCH  13  14
ENDBRANCH  12  13
ENDBRANCH  11  12
ENDBRANCH  10  11
ENDBRANCH   3   5
BRANCH   2  21
ATOM     21  C   UNL     1       3.423   6.919  17.539  0.00  0.00    +0.000 C 
BRANCH  21  22
ATOM     22  C   UNL     1       2.575   8.051  18.166  0.00  0.00    +0.000 C 
ATOM     23  O   UNL     1       2.401   9.087  17.516  0.00  0.00    +0.000 OA
ATOM     24  N   UNL     1       2.099   7.829  19.448  0.00  0.00    +0.000 N 
ATOM     25  H   UNL     1       2.456   7.011  19.930  0.00  0.00    +0.000 HD
BRANCH  24  26
ATOM     26  C   UNL     1       1.252   8.698  20.187  0.00  0.00    +0.000 A 
ATOM     27  C   UNL     1       0.404   9.642  19.590  0.00  0.00    +0.000 A 
ATOM     28  C   UNL     1      -0.378  10.510  20.365  0.00  0.00    +0.000 A 
ATOM     29  C   UNL     1      -0.326  10.442  21.749  0.00  0.00    +0.000 A 
ATOM     30  C   UNL     1       0.482   9.486  22.349  0.00  0.00    +0.000 A 
ATOM     31  F   UNL     1       0.535   9.417  23.685  0.00  0.00    +0.000 F 
ATOM     32  C   UNL     1       1.254   8.606  21.584  0.00  0.00    +0.000 A 
ENDBRANCH  24  26
ENDBRANCH  21  22
ENDBRANCH   2  21
TORSDOF 9
ENDMDL
MODEL 9
REMARK VINA RESULT:      -7.5      4.944      8.513
REMARK  Name = 
REMARK  10 active torsions:
REMARK  status: ('A' for Active; 'I' for Inactive)
REMARK    1  A    between atoms: C_1  and  N_2
REMARK    2  A    between atoms: N_2  and  C_3
REMARK    3  A    between atoms: C_3  and  C_4
REMARK    4  A    between atoms: N_6  and  C_7
REMARK    5  A    between atoms: C_14  and  C_16
REMARK    6  A    between atoms: C_21  and  O_22
REMARK    7  A    between atoms: O_22  and  C_23
REMARK    8  A    between atoms: C_23  and  C_24
REMARK    9  A    between atoms: C_24  and  O_25
REMARK   10  A    between atoms: O_25  and  C_26
REMARK                            x       y       z     vdW  Elec       q    Type
REMARK                         _______ _______ _______ _____ _____    ______ ____
ROOT
ATOM      1  C   UNL     1       2.301   7.230  19.838  0.00  0.00    +0.000 C 
ATOM      2  N   UNL     1       2.952   6.937  18.562  0.00  0.00    +0.000 N 
ATOM      3  C   UNL     1       3.977   5.951  18.583  0.00  0.00    +0.000 C 
ATOM      4  O   UNL     1       4.233   5.356  19.630  0.00  0.00    +0.000 OA
ENDROOT
BRANCH   3   5
ATOM      5  C   UNL     1       4.737   5.568  17.336  0.00  0.00    +0.000 A 
ATOM      6  C   UNL     1       4.413   4.355  16.704  0.00  0.00    +0.000 A 
ATOM      7  C   UNL     1       4.995   3.970  15.502  0.00  0.00    +0.000 A 
ATOM      8  C   UNL     1       5.992   4.747  14.944  0.00  0.00    +0.000 A 
ATOM      9  C   UNL     1       6.421   5.894  15.609  0.00  0.00    +0.000 A 
ATOM     10  C   UNL     1       5.822   6.314  16.813  0.00  0.00    +0.000 A 
BRANCH  10  11
ATOM     11  O   UNL     1       6.258   7.429  17.484  0.00  0.00    +0.000 OA
BRANCH  11  12
ATOM     12  C   UNL     1       7.664   7.567  17.771  0.00  0.00    +0.000 C 
BRANCH  12  13
ATOM     13  C   UNL     1       8.063   9.045  17.847  0.00  0.00    +0.000 C 
BRANCH  13  14
ATOM     14  O   UNL     1       8.890   9.190  19.001  0.00  0.00    +0.000 OA
BRANCH  14  15
ATOM     15  C   UNL     1       9.366  10.439  19.263  0.00  0.00    +0.000 A 
ATOM     16  C   UNL     1       9.563  11.232  18.131  0.00  0.00    +0.000 A 
ATOM     17  C   UNL     1       9.981  12.554  18.258  0.00  0.00    +0.000 A 
ATOM     18  C   UNL     1      10.189  13.094  19.525  0.00  0.00    +0.000 A 
ATOM     19  C   UNL     1       9.990  12.306  20.659  0.00  0.00    +0.000 A 
ATOM     20  C   UNL     1       9.580  10.975  20.530  0.00  0.00    +0.000 A 
ENDBRANCH  14  15
ENDBRANCH  13  14
ENDBRANCH  12  13
ENDBRANCH  11  12
ENDBRANCH  10  11
ENDBRANCH   3   5
BRANCH   2  21
ATOM     21  C   UNL     1       2.641   7.861  17.456  0.00  0.00    +0.000 C 
BRANCH  21  22
ATOM     22  C   UNL     1       1.830   9.143  17.764  0.00  0.00    +0.000 C 
ATOM     23  O   UNL     1       2.415  10.231  17.738  0.00  0.00    +0.000 OA
ATOM     24  N   UNL     1       0.495   8.966  18.089  0.00  0.00    +0.000 N 
ATOM     25  H   UNL     1       0.186   8.012  18.239  0.00  0.00    +0.000 HD
BRANCH  24  26
ATOM     26  C   UNL     1      -0.447   9.999  18.343  0.00  0.00    +0.000 A 
ATOM     27  C   UNL     1      -1.417  10.405  17.415  0.00  0.00    +0.000 A 
ATOM     28  C   UNL     1      -2.294  11.462  17.695  0.00  0.00    +0.000 A 
ATOM     29  C   UNL     1      -2.214  12.126  18.910  0.00  0.00    +0.000 A 
ATOM     30  C   UNL     1      -1.282  11.708  19.849  0.00  0.00    +0.000 A 
ATOM     31  F   UNL     1      -1.202  12.347  21.024  0.00  0.00    +0.000 F 
ATOM     32  C   UNL     1      -0.414  10.645  19.585  0.00  0.00    +0.000 A 
ENDBRANCH  24  26
ENDBRANCH  21  22
ENDBRANCH   2  21
TORSDOF 9
ENDMDL
