MODEL 1
REMARK VINA RESULT:      -8.2      0.000      0.000
REMARK  Name = 
REMARK  11 active torsions:
REMARK  status: ('A' for Active; 'I' for Inactive)
REMARK    1  A    between atoms: C_1  and  C_2
REMARK    2  A    between atoms: C_2  and  C_3
REMARK    3  A    between atoms: C_2  and  N_4
REMARK    4  A    between atoms: C_6  and  C_7
REMARK    5  A    between atoms: N_9  and  C_10
REMARK    6  A    between atoms: C_10  and  C_11
REMARK    7  A    between atoms: C_11  and  C_12
REMARK    8  A    between atoms: C_12  and  O_13
REMARK    9  A    between atoms: O_13  and  C_14
REMARK   10  A    between atoms: N_17  and  C_18
REMARK   11  A    between atoms: C_18  and  C_19
REMARK                            x       y       z     vdW  Elec       q    Type
REMARK                         _______ _______ _______ _____ _____    ______ ____
ROOT
ATOM      1  C   UNL     1       8.754   9.615  18.376  0.00  0.00    +0.000 C 
ENDROOT
BRANCH   1   4
ATOM      2  C   UNL     1       9.679  11.906  18.193  0.00  0.00    +0.000 C 
ATOM      3  O   UNL     1      10.851  11.537  18.195  0.00  0.00    +0.000 OA
ATOM      4  N   UNL     1       8.603  11.044  18.221  0.00  0.00    +0.000 N 
ATOM      5  H   UNL     1       7.702  11.496  18.356  0.00  0.00    +0.000 HD
BRANCH   2   8
ATOM      6  N   UNL     1       8.060  15.088  18.211  0.00  0.00    +0.000 N 
ATOM      7  N   UNL     1       8.014  13.738  18.341  0.00  0.00    +0.000 NA
ATOM      8  C   UNL     1       9.292  13.330  18.154  0.00  0.00    +0.000 A 
ATOM      9  C   UNL     1      10.140  14.439  17.926  0.00  0.00    +0.000 A 
ATOM     10  C   UNL     1       9.313  15.537  17.926  0.00  0.00    +0.000 A 
ATOM     11  C   UNL     1       9.797  16.923  17.707  0.00  0.00    +0.000 C 
ATOM     12  C   UNL     1      11.209  16.841  17.083  0.00  0.00    +0.000 C 
ATOM     13  O   UNL     1      12.059  15.922  17.797  0.00  0.00    +0.000 OA
ATOM     14  C   UNL     1      11.603  14.546  17.691  0.00  0.00    +0.000 C 
BRANCH   6  16
ATOM     15  C   UNL     1       5.587  15.142  18.028  0.00  0.00    +0.000 C 
ATOM     16  C   UNL     1       6.859  15.888  18.430  0.00  0.00    +0.000 C 
ATOM     17  C   UNL     1       6.782  16.382  19.874  0.00  0.00    +0.000 C 
ENDBRANCH   6  16
ENDBRANCH   2   8
ENDBRANCH   1   4
BRANCH   1  18
ATOM     18  C   UNL     1       7.665   8.839  17.640  0.00  0.00    +0.000 C 
BRANCH  18  19
ATOM     19  C   UNL     1       7.799   7.342  17.904  0.00  0.00    +0.000 C 
BRANCH  19  20
ATOM     20  O   UNL     1       7.013   6.608  16.961  0.00  0.00    +0.000 OA
BRANCH  20  21
ATOM     21  C   UNL     1       7.282   5.194  16.969  0.00  0.00    +0.000 C 
ATOM     22  C   UNL     1       6.638   4.464  15.790  0.00  0.00    +0.000 C 
ATOM     23  C   UNL     1       5.116   4.510  15.889  0.00  0.00    +0.000 C 
ATOM     24  N   UNL     1       4.643   3.870  17.131  0.00  0.00    +0.000 NA
ATOM     25  C   UNL     1       5.207   4.566  18.302  0.00  0.00    +0.000 C 
ATOM     26  C   UNL     1       6.741   4.595  18.270  0.00  0.00    +0.000 C 
BRANCH  24  27
ATOM     27  C   UNL     1       3.166   3.898  17.140  0.00  0.00    +0.000 C 
BRANCH  27  28
ATOM     28  C   UNL     1       2.526   3.733  18.503  0.00  0.00    +0.000 A 
ATOM     29  C   UNL     1       2.034   4.854  19.190  0.00  0.00    +0.000 A 
ATOM     30  C   UNL     1       1.401   4.710  20.425  0.00  0.00    +0.000 A 
ATOM     31  C   UNL     1       1.250   3.444  20.987  0.00  0.00    +0.000 A 
ATOM     32  C   UNL     1       1.738   2.323  20.317  0.00  0.00    +0.000 A 
ATOM     33  C   UNL     1       2.373   2.467  19.082  0.00  0.00    +0.000 A 
ENDBRANCH  27  28
ENDBRANCH  24  27
ENDBRANCH  20  21
ENDBRANCH  19  20
ENDBRANCH  18  19
ENDBRANCH   1  18
TORSDOF 9
ENDMDL
MODEL 2
REMARK VINA RESULT:      -8.0      1.044      1.405
REMARK  Name = 
REMARK  11 active torsions:
REMARK  status: ('A' for Active; 'I' for Inactive)
REMARK    1  A    between atoms: C_1  and  C_2
REMARK    2  A    between atoms: C_2  and  C_3
REMARK    3  A    between atoms: C_2  and  N_4
REMARK    4  A    between atoms: C_6  and  C_7
REMARK    5  A    between atoms: N_9  and  C_10
REMARK    6  A    between atoms: C_10  and  C_11
REMARK    7  A    between atoms: C_11  and  C_12
REMARK    8  A    between atoms: C_12  and  O_13
REMARK    9  A    between atoms: O_13  and  C_14
REMARK   10  A    between atoms: N_17  and  C_18
REMARK   11  A    between atoms: C_18  and  C_19
REMARK                            x       y       z     vdW  Elec       q    Type
REMARK                         _______ _______ _______ _____ _____    ______ ____
ROOT
ATOM      1  C   UNL     1       8.777   9.453  18.146  0.00  0.00    +0.000 C 
ENDROOT
BRANCH   1   4
ATOM      2  C   UNL     1       9.723  11.740  18.023  0.00  0.00    +0.000 C 
ATOM      3  O   UNL     1      10.843  11.363  17.687  0.00  0.00    +0.000 OA
ATOM      4  N   UNL     1       8.652  10.891  18.212  0.00  0.00    +0.000 N 
ATOM      5  H   UNL     1       7.832  11.330  18.624  0.00  0.00    +0.000 HD
BRANCH   2   8
ATOM      6  N   UNL     1       8.330  14.903  18.918  0.00  0.00    +0.000 N 
ATOM      7  N   UNL     1       8.287  13.546  18.929  0.00  0.00    +0.000 NA
ATOM      8  C   UNL     1       9.398  13.160  18.260  0.00  0.00    +0.000 A 
ATOM      9  C   UNL     1      10.148  14.287  17.847  0.00  0.00    +0.000 A 
ATOM     10  C   UNL     1       9.414  15.379  18.246  0.00  0.00    +0.000 A 
ATOM     11  C   UNL     1       9.836  16.781  17.999  0.00  0.00    +0.000 C 
ATOM     12  C   UNL     1      10.929  16.762  16.905  0.00  0.00    +0.000 C 
ATOM     13  O   UNL     1      11.945  15.776  17.178  0.00  0.00    +0.000 OA
ATOM     14  C   UNL     1      11.433  14.418  17.114  0.00  0.00    +0.000 C 
BRANCH   6  16
ATOM     15  C   UNL     1       6.170  16.102  18.711  0.00  0.00    +0.000 C 
ATOM     16  C   UNL     1       7.316  15.676  19.627  0.00  0.00    +0.000 C 
ATOM     17  C   UNL     1       6.799  14.917  20.850  0.00  0.00    +0.000 C 
ENDBRANCH   6  16
ENDBRANCH   2   8
ENDBRANCH   1   4
BRANCH   1  18
ATOM     18  C   UNL     1       7.494   8.787  17.658  0.00  0.00    +0.000 C 
BRANCH  18  19
ATOM     19  C   UNL     1       7.682   7.277  17.542  0.00  0.00    +0.000 C 
BRANCH  19  20
ATOM     20  O   UNL     1       6.474   6.606  17.908  0.00  0.00    +0.000 OA
BRANCH  20  21
ATOM     21  C   UNL     1       5.439   6.704  16.912  0.00  0.00    +0.000 C 
ATOM     22  C   UNL     1       4.034   6.598  17.508  0.00  0.00    +0.000 C 
ATOM     23  C   UNL     1       3.796   5.210  18.094  0.00  0.00    +0.000 C 
ATOM     24  N   UNL     1       3.930   4.166  17.061  0.00  0.00    +0.000 NA
ATOM     25  C   UNL     1       5.286   4.200  16.482  0.00  0.00    +0.000 C 
ATOM     26  C   UNL     1       5.624   5.577  15.894  0.00  0.00    +0.000 C 
BRANCH  24  27
ATOM     27  C   UNL     1       3.634   2.856  17.677  0.00  0.00    +0.000 C 
BRANCH  27  28
ATOM     28  C   UNL     1       2.834   2.913  18.962  0.00  0.00    +0.000 A 
ATOM     29  C   UNL     1       1.458   3.186  18.922  0.00  0.00    +0.000 A 
ATOM     30  C   UNL     1       0.701   3.196  20.095  0.00  0.00    +0.000 A 
ATOM     31  C   UNL     1       1.311   2.930  21.319  0.00  0.00    +0.000 A 
ATOM     32  C   UNL     1       2.677   2.661  21.373  0.00  0.00    +0.000 A 
ATOM     33  C   UNL     1       3.436   2.653  20.200  0.00  0.00    +0.000 A 
ENDBRANCH  27  28
ENDBRANCH  24  27
ENDBRANCH  20  21
ENDBRANCH  19  20
ENDBRANCH  18  19
ENDBRANCH   1  18
TORSDOF 9
ENDMDL
MODEL 3
REMARK VINA RESULT:      -7.9      2.014      3.082
REMARK  Name = 
REMARK  11 active torsions:
REMARK  status: ('A' for Active; 'I' for Inactive)
REMARK    1  A    between atoms: C_1  and  C_2
REMARK    2  A    between atoms: C_2  and  C_3
REMARK    3  A    between atoms: C_2  and  N_4
REMARK    4  A    between atoms: C_6  and  C_7
REMARK    5  A    between atoms: N_9  and  C_10
REMARK    6  A    between atoms: C_10  and  C_11
REMARK    7  A    between atoms: C_11  and  C_12
REMARK    8  A    between atoms: C_12  and  O_13
REMARK    9  A    between atoms: O_13  and  C_14
REMARK   10  A    between atoms: N_17  and  C_18
REMARK   11  A    between atoms: C_18  and  C_19
REMARK                            x       y       z     vdW  Elec       q    Type
REMARK                         _______ _______ _______ _____ _____    ______ ____
ROOT
ATOM      1  C   UNL     1       9.379  10.588  17.830  0.00  0.00    +0.000 C 
ENDROOT
BRANCH   1   4
ATOM      2  C   UNL     1       8.266  12.800  17.734  0.00  0.00    +0.000 C 
ATOM      3  O   UNL     1       7.549  12.506  16.781  0.00  0.00    +0.000 OA
ATOM      4  N   UNL     1       9.138  11.919  18.339  0.00  0.00    +0.000 N 
ATOM      5  H   UNL     1       9.763  12.343  19.020  0.00  0.00    +0.000 HD
BRANCH   2   8
ATOM      6  N   UNL     1       8.991  15.916  19.319  0.00  0.00    +0.000 N 
ATOM      7  N   UNL     1       9.396  14.717  18.828  0.00  0.00    +0.000 NA
ATOM      8  C   UNL     1       8.268  14.144  18.345  0.00  0.00    +0.000 A 
ATOM      9  C   UNL     1       7.158  15.003  18.521  0.00  0.00    +0.000 A 
ATOM     10  C   UNL     1       7.649  16.103  19.183  0.00  0.00    +0.000 A 
ATOM     11  C   UNL     1       6.807  17.259  19.582  0.00  0.00    +0.000 C 
ATOM     12  C   UNL     1       5.327  16.814  19.518  0.00  0.00    +0.000 C 
ATOM     13  O   UNL     1       5.024  16.136  18.283  0.00  0.00    +0.000 OA
ATOM     14  C   UNL     1       5.724  14.870  18.157  0.00  0.00    +0.000 C 
BRANCH   6  16
ATOM     15  C   UNL     1      10.567  16.376  21.177  0.00  0.00    +0.000 C 
ATOM     16  C   UNL     1       9.968  16.857  19.857  0.00  0.00    +0.000 C 
ATOM     17  C   UNL     1      11.057  17.167  18.830  0.00  0.00    +0.000 C 
ENDBRANCH   6  16
ENDBRANCH   2   8
ENDBRANCH   1   4
BRANCH   1  18
ATOM     18  C   UNL     1       8.645   9.522  18.638  0.00  0.00    +0.000 C 
BRANCH  18  19
ATOM     19  C   UNL     1       8.017   8.483  17.713  0.00  0.00    +0.000 C 
BRANCH  19  20
ATOM     20  O   UNL     1       7.804   7.262  18.425  0.00  0.00    +0.000 OA
BRANCH  20  21
ATOM     21  C   UNL     1       7.442   6.158  17.574  0.00  0.00    +0.000 C 
ATOM     22  C   UNL     1       6.418   6.546  16.507  0.00  0.00    +0.000 C 
ATOM     23  C   UNL     1       5.083   6.919  17.145  0.00  0.00    +0.000 C 
ATOM     24  N   UNL     1       4.528   5.792  17.918  0.00  0.00    +0.000 NA
ATOM     25  C   UNL     1       5.465   5.406  18.989  0.00  0.00    +0.000 C 
ATOM     26  C   UNL     1       6.850   5.041  18.437  0.00  0.00    +0.000 C 
BRANCH  24  27
ATOM     27  C   UNL     1       3.216   6.198  18.462  0.00  0.00    +0.000 C 
BRANCH  27  28
ATOM     28  C   UNL     1       2.355   5.066  18.983  0.00  0.00    +0.000 A 
ATOM     29  C   UNL     1       1.857   4.096  18.098  0.00  0.00    +0.000 A 
ATOM     30  C   UNL     1       1.102   3.023  18.572  0.00  0.00    +0.000 A 
ATOM     31  C   UNL     1       0.838   2.904  19.935  0.00  0.00    +0.000 A 
ATOM     32  C   UNL     1       1.323   3.862  20.823  0.00  0.00    +0.000 A 
ATOM     33  C   UNL     1       2.077   4.939  20.349  0.00  0.00    +0.000 A 
ENDBRANCH  27  28
ENDBRANCH  24  27
ENDBRANCH  20  21
ENDBRANCH  19  20
ENDBRANCH  18  19
ENDBRANCH   1  18
TORSDOF 9
ENDMDL
MODEL 4
REMARK VINA RESULT:      -7.8      6.859     11.512
REMARK  Name = 
REMARK  11 active torsions:
REMARK  status: ('A' for Active; 'I' for Inactive)
REMARK    1  A    between atoms: C_1  and  C_2
REMARK    2  A    between atoms: C_2  and  C_3
REMARK    3  A    between atoms: C_2  and  N_4
REMARK    4  A    between atoms: C_6  and  C_7
REMARK    5  A    between atoms: N_9  and  C_10
REMARK    6  A    between atoms: C_10  and  C_11
REMARK    7  A    between atoms: C_11  and  C_12
REMARK    8  A    between atoms: C_12  and  O_13
REMARK    9  A    between atoms: O_13  and  C_14
REMARK   10  A    between atoms: N_17  and  C_18
REMARK   11  A    between atoms: C_18  and  C_19
REMARK                            x       y       z     vdW  Elec       q    Type
REMARK                         _______ _______ _______ _____ _____    ______ ____
ROOT
ATOM      1  C   UNL     1       0.476   8.321  21.428  0.00  0.00    +0.000 C 
ENDROOT
BRANCH   1   4
ATOM      2  C   UNL     1       2.041   7.312  19.793  0.00  0.00    +0.000 C 
ATOM      3  O   UNL     1       1.973   8.251  19.003  0.00  0.00    +0.000 OA
ATOM      4  N   UNL     1       1.396   7.287  21.012  0.00  0.00    +0.000 N 
ATOM      5  H   UNL     1       1.431   6.390  21.490  0.00  0.00    +0.000 HD
BRANCH   2   8
ATOM      6  N   UNL     1       4.480   4.854  18.926  0.00  0.00    +0.000 N 
ATOM      7  N   UNL     1       4.111   6.152  19.075  0.00  0.00    +0.000 NA
ATOM      8  C   UNL     1       2.833   6.097  19.520  0.00  0.00    +0.000 A 
ATOM      9  C   UNL     1       2.414   4.754  19.667  0.00  0.00    +0.000 A 
ATOM     10  C   UNL     1       3.475   3.991  19.237  0.00  0.00    +0.000 A 
ATOM     11  C   UNL     1       3.456   2.507  19.211  0.00  0.00    +0.000 C 
ATOM     12  C   UNL     1       1.983   2.049  19.319  0.00  0.00    +0.000 C 
ATOM     13  O   UNL     1       1.286   2.726  20.383  0.00  0.00    +0.000 OA
ATOM     14  C   UNL     1       1.140   4.150  20.134  0.00  0.00    +0.000 C 
BRANCH   6  16
ATOM     15  C   UNL     1       5.982   4.354  17.016  0.00  0.00    +0.000 C 
ATOM     16  C   UNL     1       5.845   4.521  18.529  0.00  0.00    +0.000 C 
ATOM     17  C   UNL     1       6.842   5.546  19.069  0.00  0.00    +0.000 C 
ENDBRANCH   6  16
ENDBRANCH   2   8
ENDBRANCH   1   4
BRANCH   1  18
ATOM     18  C   UNL     1       1.195   9.509  22.059  0.00  0.00    +0.000 C 
BRANCH  18  19
ATOM     19  C   UNL     1       0.748  10.816  21.409  0.00  0.00    +0.000 C 
BRANCH  19  20
ATOM     20  O   UNL     1      -0.299  10.559  20.470  0.00  0.00    +0.000 OA
BRANCH  20  21
ATOM     21  C   UNL     1      -0.310  11.476  19.359  0.00  0.00    +0.000 C 
ATOM     22  C   UNL     1      -1.491  12.446  19.406  0.00  0.00    +0.000 C 
ATOM     23  C   UNL     1      -2.812  11.702  19.231  0.00  0.00    +0.000 C 
ATOM     24  N   UNL     1      -2.858  10.995  17.938  0.00  0.00    +0.000 NA
ATOM     25  C   UNL     1      -1.758  10.015  17.861  0.00  0.00    +0.000 C 
ATOM     26  C   UNL     1      -0.386  10.674  18.058  0.00  0.00    +0.000 C 
BRANCH  24  27
ATOM     27  C   UNL     1      -4.177  10.343  17.807  0.00  0.00    +0.000 C 
BRANCH  27  28
ATOM     28  C   UNL     1      -5.369  11.271  17.927  0.00  0.00    +0.000 A 
ATOM     29  C   UNL     1      -6.268  11.127  18.996  0.00  0.00    +0.000 A 
ATOM     30  C   UNL     1      -7.343  12.003  19.143  0.00  0.00    +0.000 A 
ATOM     31  C   UNL     1      -7.532  13.035  18.226  0.00  0.00    +0.000 A 
ATOM     32  C   UNL     1      -6.650  13.186  17.158  0.00  0.00    +0.000 A 
ATOM     33  C   UNL     1      -5.574  12.307  17.008  0.00  0.00    +0.000 A 
ENDBRANCH  27  28
ENDBRANCH  24  27
ENDBRANCH  20  21
ENDBRANCH  19  20
ENDBRANCH  18  19
ENDBRANCH   1  18
TORSDOF 9
ENDMDL
MODEL 5
REMARK VINA RESULT:      -7.8      7.798     12.324
REMARK  Name = 
REMARK  11 active torsions:
REMARK  status: ('A' for Active; 'I' for Inactive)
REMARK    1  A    between atoms: C_1  and  C_2
REMARK    2  A    between atoms: C_2  and  C_3
REMARK    3  A    between atoms: C_2  and  N_4
REMARK    4  A    between atoms: C_6  and  C_7
REMARK    5  A    between atoms: N_9  and  C_10
REMARK    6  A    between atoms: C_10  and  C_11
REMARK    7  A    between atoms: C_11  and  C_12
REMARK    8  A    between atoms: C_12  and  O_13
REMARK    9  A    between atoms: O_13  and  C_14
REMARK   10  A    between atoms: N_17  and  C_18
REMARK   11  A    between atoms: C_18  and  C_19
REMARK                            x       y       z     vdW  Elec       q    Type
REMARK                         _______ _______ _______ _____ _____    ______ ____
ROOT
ATOM      1  C   UNL     1       1.220   9.096  21.840  0.00  0.00    +0.000 C 
ENDROOT
BRANCH   1   4
ATOM      2  C   UNL     1       1.939   7.746  19.890  0.00  0.00    +0.000 C 
ATOM      3  O   UNL     1       1.800   8.661  19.083  0.00  0.00    +0.000 OA
ATOM      4  N   UNL     1       1.735   7.883  21.247  0.00  0.00    +0.000 N 
ATOM      5  H   UNL     1       1.751   7.008  21.768  0.00  0.00    +0.000 HD
BRANCH   2   8
ATOM      6  N   UNL     1       2.478   4.242  19.467  0.00  0.00    +0.000 N 
ATOM      7  N   UNL     1       1.851   5.275  20.085  0.00  0.00    +0.000 NA
ATOM      8  C   UNL     1       2.349   6.385  19.490  0.00  0.00    +0.000 A 
ATOM      9  C   UNL     1       3.277   6.036  18.481  0.00  0.00    +0.000 A 
ATOM     10  C   UNL     1       3.366   4.665  18.525  0.00  0.00    +0.000 A 
ATOM     11  C   UNL     1       4.249   3.874  17.631  0.00  0.00    +0.000 C 
ATOM     12  C   UNL     1       5.288   4.839  17.015  0.00  0.00    +0.000 C 
ATOM     13  O   UNL     1       4.670   6.032  16.492  0.00  0.00    +0.000 OA
ATOM     14  C   UNL     1       4.077   6.853  17.533  0.00  0.00    +0.000 C 
BRANCH   6  16
ATOM     15  C   UNL     1       1.839   2.688  21.291  0.00  0.00    +0.000 C 
ATOM     16  C   UNL     1       2.127   2.865  19.801  0.00  0.00    +0.000 C 
ATOM     17  C   UNL     1       0.961   2.371  18.945  0.00  0.00    +0.000 C 
ENDBRANCH   6  16
ENDBRANCH   2   8
ENDBRANCH   1   4
BRANCH   1  18
ATOM     18  C   UNL     1      -0.138   8.880  22.503  0.00  0.00    +0.000 C 
BRANCH  18  19
ATOM     19  C   UNL     1      -0.708  10.204  23.004  0.00  0.00    +0.000 C 
BRANCH  19  20
ATOM     20  O   UNL     1      -0.970  11.072  21.898  0.00  0.00    +0.000 OA
BRANCH  20  21
ATOM     21  C   UNL     1      -0.893  12.470  22.235  0.00  0.00    +0.000 C 
ATOM     22  C   UNL     1      -1.927  12.882  23.283  0.00  0.00    +0.000 C 
ATOM     23  C   UNL     1      -3.343  12.756  22.729  0.00  0.00    +0.000 C 
ATOM     24  N   UNL     1      -3.530  13.615  21.545  0.00  0.00    +0.000 NA
ATOM     25  C   UNL     1      -2.579  13.228  20.486  0.00  0.00    +0.000 C 
ATOM     26  C   UNL     1      -1.124  13.297  20.968  0.00  0.00    +0.000 C 
BRANCH  24  27
ATOM     27  C   UNL     1      -4.930  13.489  21.091  0.00  0.00    +0.000 C 
BRANCH  27  28
ATOM     28  C   UNL     1      -5.978  13.693  22.166  0.00  0.00    +0.000 A 
ATOM     29  C   UNL     1      -6.762  12.611  22.598  0.00  0.00    +0.000 A 
ATOM     30  C   UNL     1      -7.697  12.775  23.620  0.00  0.00    +0.000 A 
ATOM     31  C   UNL     1      -7.859  14.020  24.224  0.00  0.00    +0.000 A 
ATOM     32  C   UNL     1      -7.090  15.103  23.801  0.00  0.00    +0.000 A 
ATOM     33  C   UNL     1      -6.155  14.940  22.777  0.00  0.00    +0.000 A 
ENDBRANCH  27  28
ENDBRANCH  24  27
ENDBRANCH  20  21
ENDBRANCH  19  20
ENDBRANCH  18  19
ENDBRANCH   1  18
TORSDOF 9
ENDMDL
MODEL 6
REMARK VINA RESULT:      -7.8      1.759      2.192
REMARK  Name = 
REMARK  11 active torsions:
REMARK  status: ('A' for Active; 'I' for Inactive)
REMARK    1  A    between atoms: C_1  and  C_2
REMARK    2  A    between atoms: C_2  and  C_3
REMARK    3  A    between atoms: C_2  and  N_4
REMARK    4  A    between atoms: C_6  and  C_7
REMARK    5  A    between atoms: N_9  and  C_10
REMARK    6  A    between atoms: C_10  and  C_11
REMARK    7  A    between atoms: C_11  and  C_12
REMARK    8  A    between atoms: C_12  and  O_13
REMARK    9  A    between atoms: O_13  and  C_14
REMARK   10  A    between atoms: N_17  and  C_18
REMARK   11  A    between atoms: C_18  and  C_19
REMARK                            x       y       z     vdW  Elec       q    Type
REMARK                         _______ _______ _______ _____ _____    ______ ____
ROOT
ATOM      1  C   UNL     1       9.062   9.705  19.033  0.00  0.00    +0.000 C 
ENDROOT
BRANCH   1   4
ATOM      2  C   UNL     1      10.144  11.891  18.599  0.00  0.00    +0.000 C 
ATOM      3  O   UNL     1      10.878  11.460  17.712  0.00  0.00    +0.000 OA
ATOM      4  N   UNL     1       9.199  11.127  19.251  0.00  0.00    +0.000 N 
ATOM      5  H   UNL     1       8.768  11.581  20.053  0.00  0.00    +0.000 HD
BRANCH   2   8
ATOM      6  N   UNL     1       9.979  14.999  20.347  0.00  0.00    +0.000 N 
ATOM      7  N   UNL     1       9.813  13.652  20.312  0.00  0.00    +0.000 NA
ATOM      8  C   UNL     1      10.193  13.291  19.064  0.00  0.00    +0.000 A 
ATOM      9  C   UNL     1      10.616  14.421  18.325  0.00  0.00    +0.000 A 
ATOM     10  C   UNL     1      10.424  15.496  19.161  0.00  0.00    +0.000 A 
ATOM     11  C   UNL     1      10.732  16.896  18.774  0.00  0.00    +0.000 C 
ATOM     12  C   UNL     1      10.864  16.945  17.234  0.00  0.00    +0.000 C 
ATOM     13  O   UNL     1      11.712  15.892  16.734  0.00  0.00    +0.000 OA
ATOM     14  C   UNL     1      11.141  14.573  16.944  0.00  0.00    +0.000 C 
BRANCH   6  16
ATOM     15  C   UNL     1       9.018  14.888  22.631  0.00  0.00    +0.000 C 
ATOM     16  C   UNL     1       9.737  15.736  21.584  0.00  0.00    +0.000 C 
ATOM     17  C   UNL     1      11.036  16.323  22.137  0.00  0.00    +0.000 C 
ENDBRANCH   6  16
ENDBRANCH   2   8
ENDBRANCH   1   4
BRANCH   1  18
ATOM     18  C   UNL     1       8.025   9.385  17.961  0.00  0.00    +0.000 C 
BRANCH  18  19
ATOM     19  C   UNL     1       8.140   7.929  17.518  0.00  0.00    +0.000 C 
BRANCH  19  20
ATOM     20  O   UNL     1       6.924   7.513  16.891  0.00  0.00    +0.000 OA
BRANCH  20  21
ATOM     21  C   UNL     1       6.888   6.105  16.589  0.00  0.00    +0.000 C 
ATOM     22  C   UNL     1       5.495   5.625  16.178  0.00  0.00    +0.000 C 
ATOM     23  C   UNL     1       4.516   5.737  17.343  0.00  0.00    +0.000 C 
ATOM     24  N   UNL     1       4.957   4.921  18.489  0.00  0.00    +0.000 NA
ATOM     25  C   UNL     1       6.282   5.373  18.950  0.00  0.00    +0.000 C 
ATOM     26  C   UNL     1       7.328   5.323  17.829  0.00  0.00    +0.000 C 
BRANCH  24  27
ATOM     27  C   UNL     1       3.943   5.028  19.559  0.00  0.00    +0.000 C 
BRANCH  27  28
ATOM     28  C   UNL     1       2.749   4.107  19.411  0.00  0.00    +0.000 A 
ATOM     29  C   UNL     1       2.765   3.083  18.450  0.00  0.00    +0.000 A 
ATOM     30  C   UNL     1       1.691   2.200  18.335  0.00  0.00    +0.000 A 
ATOM     31  C   UNL     1       0.590   2.328  19.180  0.00  0.00    +0.000 A 
ATOM     32  C   UNL     1       0.560   3.342  20.134  0.00  0.00    +0.000 A 
ATOM     33  C   UNL     1       1.634   4.229  20.249  0.00  0.00    +0.000 A 
ENDBRANCH  27  28
ENDBRANCH  24  27
ENDBRANCH  20  21
ENDBRANCH  19  20
ENDBRANCH  18  19
ENDBRANCH   1  18
TORSDOF 9
ENDMDL
MODEL 7
REMARK VINA RESULT:      -7.7      1.438      1.632
REMARK  Name = 
REMARK  11 active torsions:
REMARK  status: ('A' for Active; 'I' for Inactive)
REMARK    1  A    between atoms: C_1  and  C_2
REMARK    2  A    between atoms: C_2  and  C_3
REMARK    3  A    between atoms: C_2  and  N_4
REMARK    4  A    between atoms: C_6  and  C_7
REMARK    5  A    between atoms: N_9  and  C_10
REMARK    6  A    between atoms: C_10  and  C_11
REMARK    7  A    between atoms: C_11  and  C_12
REMARK    8  A    between atoms: C_12  and  O_13
REMARK    9  A    between atoms: O_13  and  C_14
REMARK   10  A    between atoms: N_17  and  C_18
REMARK   11  A    between atoms: C_18  and  C_19
REMARK                            x       y       z     vdW  Elec       q    Type
REMARK                         _______ _______ _______ _____ _____    ______ ____
ROOT
ATOM      1  C   UNL     1       8.953   9.499  18.805  0.00  0.00    +0.000 C 
ENDROOT
BRANCH   1   4
ATOM      2  C   UNL     1      10.154  11.629  19.210  0.00  0.00    +0.000 C 
ATOM      3  O   UNL     1      11.267  11.109  19.232  0.00  0.00    +0.000 OA
ATOM      4  N   UNL     1       8.989  10.936  18.955  0.00  0.00    +0.000 N 
ATOM      5  H   UNL     1       8.137  11.471  19.108  0.00  0.00    +0.000 HD
BRANCH   2   8
ATOM      6  N   UNL     1       9.337  14.884  20.427  0.00  0.00    +0.000 N 
ATOM      7  N   UNL     1       9.380  13.538  20.590  0.00  0.00    +0.000 NA
ATOM      8  C   UNL     1       9.942  13.070  19.451  0.00  0.00    +0.000 A 
ATOM      9  C   UNL     1      10.268  14.138  18.582  0.00  0.00    +0.000 A 
ATOM     10  C   UNL     1       9.829  15.274  19.219  0.00  0.00    +0.000 A 
ATOM     11  C   UNL     1       9.963  16.636  18.644  0.00  0.00    +0.000 C 
ATOM     12  C   UNL     1      10.252  16.487  17.132  0.00  0.00    +0.000 C 
ATOM     13  O   UNL     1      11.296  15.527  16.877  0.00  0.00    +0.000 OA
ATOM     14  C   UNL     1      10.910  14.176  17.243  0.00  0.00    +0.000 C 
BRANCH   6  16
ATOM     15  C   UNL     1       7.346  15.960  21.441  0.00  0.00    +0.000 C 
ATOM     16  C   UNL     1       8.856  15.740  21.507  0.00  0.00    +0.000 C 
ATOM     17  C   UNL     1       9.281  15.196  22.871  0.00  0.00    +0.000 C 
ENDBRANCH   6  16
ENDBRANCH   2   8
ENDBRANCH   1   4
BRANCH   1  18
ATOM     18  C   UNL     1       8.241   9.072  17.526  0.00  0.00    +0.000 C 
BRANCH  18  19
ATOM     19  C   UNL     1       7.061   8.159  17.846  0.00  0.00    +0.000 C 
BRANCH  19  20
ATOM     20  O   UNL     1       7.074   7.023  16.978  0.00  0.00    +0.000 OA
BRANCH  20  21
ATOM     21  C   UNL     1       7.558   5.823  17.612  0.00  0.00    +0.000 C 
ATOM     22  C   UNL     1       7.322   4.572  16.765  0.00  0.00    +0.000 C 
ATOM     23  C   UNL     1       5.830   4.288  16.619  0.00  0.00    +0.000 C 
ATOM     24  N   UNL     1       5.199   4.071  17.934  0.00  0.00    +0.000 NA
ATOM     25  C   UNL     1       5.364   5.270  18.776  0.00  0.00    +0.000 C 
ATOM     26  C   UNL     1       6.841   5.649  18.952  0.00  0.00    +0.000 C 
BRANCH  24  27
ATOM     27  C   UNL     1       3.773   3.747  17.721  0.00  0.00    +0.000 C 
BRANCH  27  28
ATOM     28  C   UNL     1       2.942   3.630  18.983  0.00  0.00    +0.000 A 
ATOM     29  C   UNL     1       1.794   4.422  19.145  0.00  0.00    +0.000 A 
ATOM     30  C   UNL     1       0.996   4.291  20.282  0.00  0.00    +0.000 A 
ATOM     31  C   UNL     1       1.333   3.365  21.267  0.00  0.00    +0.000 A 
ATOM     32  C   UNL     1       2.472   2.576  21.120  0.00  0.00    +0.000 A 
ATOM     33  C   UNL     1       3.274   2.708  19.983  0.00  0.00    +0.000 A 
ENDBRANCH  27  28
ENDBRANCH  24  27
ENDBRANCH  20  21
ENDBRANCH  19  20
ENDBRANCH  18  19
ENDBRANCH   1  18
TORSDOF 9
ENDMDL
MODEL 8
REMARK VINA RESULT:      -7.6      4.747     11.380
REMARK  Name = 
REMARK  11 active torsions:
REMARK  status: ('A' for Active; 'I' for Inactive)
REMARK    1  A    between atoms: C_1  and  C_2
REMARK    2  A    between atoms: C_2  and  C_3
REMARK    3  A    between atoms: C_2  and  N_4
REMARK    4  A    between atoms: C_6  and  C_7
REMARK    5  A    between atoms: N_9  and  C_10
REMARK    6  A    between atoms: C_10  and  C_11
REMARK    7  A    between atoms: C_11  and  C_12
REMARK    8  A    between atoms: C_12  and  O_13
REMARK    9  A    between atoms: O_13  and  C_14
REMARK   10  A    between atoms: N_17  and  C_18
REMARK   11  A    between atoms: C_18  and  C_19
REMARK                            x       y       z     vdW  Elec       q    Type
REMARK                         _______ _______ _______ _____ _____    ______ ____
ROOT
ATOM      1  C   UNL     1       1.431   8.645  20.112  0.00  0.00    +0.000 C 
ENDROOT
BRANCH   1   4
ATOM      2  C   UNL     1       2.661   7.498  18.293  0.00  0.00    +0.000 C 
ATOM      3  O   UNL     1       2.535   8.422  17.493  0.00  0.00    +0.000 OA
ATOM      4  N   UNL     1       2.209   7.543  19.595  0.00  0.00    +0.000 N 
ATOM      5  H   UNL     1       2.259   6.656  20.091  0.00  0.00    +0.000 HD
BRANCH   2   8
ATOM      6  N   UNL     1       4.780   4.862  17.147  0.00  0.00    +0.000 N 
ATOM      7  N   UNL     1       4.520   6.185  17.309  0.00  0.00    +0.000 NA
ATOM      8  C   UNL     1       3.325   6.226  17.943  0.00  0.00    +0.000 A 
ATOM      9  C   UNL     1       2.849   4.918  18.194  0.00  0.00    +0.000 A 
ATOM     10  C   UNL     1       3.781   4.076  17.635  0.00  0.00    +0.000 A 
ATOM     11  C   UNL     1       3.664   2.597  17.660  0.00  0.00    +0.000 C 
ATOM     12  C   UNL     1       2.199   2.241  18.003  0.00  0.00    +0.000 C 
ATOM     13  O   UNL     1       1.718   2.988  19.138  0.00  0.00    +0.000 OA
ATOM     14  C   UNL     1       1.626   4.412  18.868  0.00  0.00    +0.000 C 
BRANCH   6  16
ATOM     15  C   UNL     1       6.253   4.995  15.156  0.00  0.00    +0.000 C 
ATOM     16  C   UNL     1       6.044   4.429  16.560  0.00  0.00    +0.000 C 
ATOM     17  C   UNL     1       7.221   4.763  17.476  0.00  0.00    +0.000 C 
ENDBRANCH   6  16
ENDBRANCH   2   8
ENDBRANCH   1   4
BRANCH   1  18
ATOM     18  C   UNL     1       0.941   8.386  21.534  0.00  0.00    +0.000 C 
BRANCH  18  19
ATOM     19  C   UNL     1      -0.138   9.393  21.923  0.00  0.00    +0.000 C 
BRANCH  19  20
ATOM     20  O   UNL     1      -0.640  10.045  20.753  0.00  0.00    +0.000 OA
BRANCH  20  21
ATOM     21  C   UNL     1      -1.038  11.410  20.985  0.00  0.00    +0.000 C 
ATOM     22  C   UNL     1      -1.547  12.100  19.718  0.00  0.00    +0.000 C 
ATOM     23  C   UNL     1      -0.426  12.253  18.695  0.00  0.00    +0.000 C 
ATOM     24  N   UNL     1       0.682  13.062  19.237  0.00  0.00    +0.000 NA
ATOM     25  C   UNL     1       1.236  12.415  20.441  0.00  0.00    +0.000 C 
ATOM     26  C   UNL     1       0.165  12.192  21.517  0.00  0.00    +0.000 C 
BRANCH  24  27
ATOM     27  C   UNL     1       1.707  13.219  18.184  0.00  0.00    +0.000 C 
BRANCH  27  28
ATOM     28  C   UNL     1       2.607  14.428  18.334  0.00  0.00    +0.000 A 
ATOM     29  C   UNL     1       3.998  14.290  18.208  0.00  0.00    +0.000 A 
ATOM     30  C   UNL     1       4.834  15.403  18.299  0.00  0.00    +0.000 A 
ATOM     31  C   UNL     1       4.289  16.668  18.514  0.00  0.00    +0.000 A 
ATOM     32  C   UNL     1       2.911  16.818  18.645  0.00  0.00    +0.000 A 
ATOM     33  C   UNL     1       2.073  15.704  18.557  0.00  0.00    +0.000 A 
ENDBRANCH  27  28
ENDBRANCH  24  27
ENDBRANCH  20  21
ENDBRANCH  19  20
ENDBRANCH  18  19
ENDBRANCH   1  18
TORSDOF 9
ENDMDL
MODEL 9
REMARK VINA RESULT:      -7.6      5.557     11.695
REMARK  Name = 
REMARK  11 active torsions:
REMARK  status: ('A' for Active; 'I' for Inactive)
REMARK    1  A    between atoms: C_1  and  C_2
REMARK    2  A    between atoms: C_2  and  C_3
REMARK    3  A    between atoms: C_2  and  N_4
REMARK    4  A    between atoms: C_6  and  C_7
REMARK    5  A    between atoms: N_9  and  C_10
REMARK    6  A    between atoms: C_10  and  C_11
REMARK    7  A    between atoms: C_11  and  C_12
REMARK    8  A    between atoms: C_12  and  O_13
REMARK    9  A    between atoms: O_13  and  C_14
REMARK   10  A    between atoms: N_17  and  C_18
REMARK   11  A    between atoms: C_18  and  C_19
REMARK                            x       y       z     vdW  Elec       q    Type
REMARK                         _______ _______ _______ _____ _____    ______ ____
ROOT
ATOM      1  C   UNL     1       1.206   9.060  21.767  0.00  0.00    +0.000 C 
ENDROOT
BRANCH   1   4
ATOM      2  C   UNL     1       1.951   7.655  19.867  0.00  0.00    +0.000 C 
ATOM      3  O   UNL     1       1.858   8.556  19.038  0.00  0.00    +0.000 OA
ATOM      4  N   UNL     1       1.711   7.824  21.215  0.00  0.00    +0.000 N 
ATOM      5  H   UNL     1       1.691   6.960  21.753  0.00  0.00    +0.000 HD
BRANCH   2   8
ATOM      6  N   UNL     1       2.424   4.132  19.530  0.00  0.00    +0.000 N 
ATOM      7  N   UNL     1       1.803   5.192  20.109  0.00  0.00    +0.000 NA
ATOM      8  C   UNL     1       2.343   6.278  19.507  0.00  0.00    +0.000 A 
ATOM      9  C   UNL     1       3.292   5.888  18.533  0.00  0.00    +0.000 A 
ATOM     10  C   UNL     1       3.348   4.516  18.607  0.00  0.00    +0.000 A 
ATOM     11  C   UNL     1       4.239   3.688  17.756  0.00  0.00    +0.000 C 
ATOM     12  C   UNL     1       5.317   4.617  17.152  0.00  0.00    +0.000 C 
ATOM     13  O   UNL     1       4.742   5.811  16.587  0.00  0.00    +0.000 OA
ATOM     14  C   UNL     1       4.137   6.667  17.593  0.00  0.00    +0.000 C 
BRANCH   6  16
ATOM     15  C   UNL     1       1.528   2.668  21.320  0.00  0.00    +0.000 C 
ATOM     16  C   UNL     1       2.032   2.770  19.882  0.00  0.00    +0.000 C 
ATOM     17  C   UNL     1       1.008   2.219  18.890  0.00  0.00    +0.000 C 
ENDBRANCH   6  16
ENDBRANCH   2   8
ENDBRANCH   1   4
BRANCH   1  18
ATOM     18  C   UNL     1      -0.212   8.910  22.311  0.00  0.00    +0.000 C 
BRANCH  18  19
ATOM     19  C   UNL     1      -0.659  10.191  23.010  0.00  0.00    +0.000 C 
BRANCH  19  20
ATOM     20  O   UNL     1      -0.986  11.187  22.038  0.00  0.00    +0.000 OA
BRANCH  20  21
ATOM     21  C   UNL     1      -1.799  12.255  22.563  0.00  0.00    +0.000 C 
ATOM     22  C   UNL     1      -2.834  12.758  21.557  0.00  0.00    +0.000 C 
ATOM     23  C   UNL     1      -2.154  13.420  20.362  0.00  0.00    +0.000 C 
ATOM     24  N   UNL     1      -1.336  14.572  20.786  0.00  0.00    +0.000 NA
ATOM     25  C   UNL     1      -0.293  14.129  21.729  0.00  0.00    +0.000 C 
ATOM     26  C   UNL     1      -0.888  13.422  22.954  0.00  0.00    +0.000 C 
BRANCH  24  27
ATOM     27  C   UNL     1      -0.752  15.199  19.582  0.00  0.00    +0.000 C 
BRANCH  27  28
ATOM     28  C   UNL     1       0.637  14.719  19.215  0.00  0.00    +0.000 A 
ATOM     29  C   UNL     1       0.811  13.463  18.613  0.00  0.00    +0.000 A 
ATOM     30  C   UNL     1       2.080  13.029  18.228  0.00  0.00    +0.000 A 
ATOM     31  C   UNL     1       3.189  13.847  18.436  0.00  0.00    +0.000 A 
ATOM     32  C   UNL     1       3.030  15.094  19.036  0.00  0.00    +0.000 A 
ATOM     33  C   UNL     1       1.761  15.529  19.424  0.00  0.00    +0.000 A 
ENDBRANCH  27  28
ENDBRANCH  24  27
ENDBRANCH  20  21
ENDBRANCH  19  20
ENDBRANCH  18  19
ENDBRANCH   1  18
TORSDOF 9
ENDMDL
