MODEL 1
REMARK VINA RESULT:      -7.3      0.000      0.000
REMARK  Name = 
REMARK  13 active torsions:
REMARK  status: ('A' for Active; 'I' for Inactive)
REMARK    1  A    between atoms: C_1  and  O_2
REMARK    2  A    between atoms: O_2  and  C_3
REMARK    3  A    between atoms: C_3  and  C_4
REMARK    4  A    between atoms: C_6  and  C_7
REMARK    5  A    between atoms: C_7  and  N_8
REMARK    6  A    between atoms: N_11  and  C_12
REMARK    7  A    between atoms: C_12  and  C_13
REMARK    8  A    between atoms: C_13  and  C_14
REMARK    9  A    between atoms: C_20  and  C_21
REMARK   10  A    between atoms: C_21  and  C_22
REMARK   11  A    between atoms: C_22  and  O_23
REMARK   12  A    between atoms: C_27  and  O_28
REMARK   13  A    between atoms: O_28  and  C_29
REMARK                            x       y       z     vdW  Elec       q    Type
REMARK                         _______ _______ _______ _____ _____    ______ ____
ROOT
ATOM      1  N   UNL     1       2.685   6.468  18.093  0.00  0.00    +0.000 NA
ATOM      2  C   UNL     1       4.018   6.882  17.624  0.00  0.00    +0.000 C 
ATOM      3  C   UNL     1       5.196   5.990  18.096  0.00  0.00    +0.000 C 
ATOM      4  N   UNL     1       5.049   4.523  17.909  0.00  0.00    +0.000 NA
ATOM      5  C   UNL     1       3.681   4.096  18.325  0.00  0.00    +0.000 C 
ATOM      6  C   UNL     1       2.541   5.022  17.778  0.00  0.00    +0.000 C 
ENDROOT
BRANCH   1   7
ATOM      7  C   UNL     1       2.500   6.692  19.540  0.00  0.00    +0.000 C 
BRANCH   7  10
ATOM      8  C   UNL     1       0.478  10.037  19.621  0.00  0.00    +0.000 A 
ATOM      9  C   UNL     1       1.359   9.000  19.176  0.00  0.00    +0.000 A 
ATOM     10  C   UNL     1       1.738   7.928  19.998  0.00  0.00    +0.000 A 
ATOM     11  C   UNL     1       1.249   7.915  21.307  0.00  0.00    +0.000 A 
ATOM     12  C   UNL     1       0.368   8.893  21.751  0.00  0.00    +0.000 A 
ATOM     13  C   UNL     1      -0.056   9.945  20.920  0.00  0.00    +0.000 A 
BRANCH  13  14
ATOM     14  O   UNL     1      -1.020  10.672  21.558  0.00  0.00    +0.000 OA
ATOM     15  C   UNL     1      -0.768  11.405  22.735  0.00  0.00    +0.000 C 
ENDBRANCH  13  14
BRANCH   8  16
ATOM     16  C   UNL     1       0.146  11.122  18.623  0.00  0.00    +0.000 C 
BRANCH  16  18
ATOM     17  C   UNL     1      -1.782  10.319  17.512  0.00  0.00    +0.000 C 
ATOM     18  O   UNL     1      -1.268  11.237  18.466  0.00  0.00    +0.000 OA
ENDBRANCH  16  18
ENDBRANCH   8  16
ENDBRANCH   7  10
ENDBRANCH   1   7
BRANCH   4  19
ATOM     19  C   UNL     1       5.439   4.095  16.551  0.00  0.00    +0.000 C 
BRANCH  19  20
ATOM     20  C   UNL     1       6.406   5.075  15.846  0.00  0.00    +0.000 C 
BRANCH  20  21
ATOM     21  C   UNL     1       6.635   4.664  14.411  0.00  0.00    +0.000 A 
ATOM     22  C   UNL     1       7.612   5.313  13.642  0.00  0.00    +0.000 A 
ATOM     23  C   UNL     1       7.786   4.983  12.299  0.00  0.00    +0.000 A 
ATOM     24  C   UNL     1       6.984   4.003  11.714  0.00  0.00    +0.000 A 
ATOM     25  C   UNL     1       6.017   3.347  12.473  0.00  0.00    +0.000 A 
ATOM     26  C   UNL     1       5.842   3.675  13.818  0.00  0.00    +0.000 A 
ENDBRANCH  20  21
ENDBRANCH  19  20
ENDBRANCH   4  19
BRANCH   5  27
ATOM     27  C   UNL     1       3.293   2.618  18.064  0.00  0.00    +0.000 C 
BRANCH  27  28
ATOM     28  C   UNL     1       3.864   1.631  19.077  0.00  0.00    +0.000 C 
BRANCH  28  29
ATOM     29  O   UNL     1       4.970   2.230  19.747  0.00  0.00    +0.000 OA
ATOM     30  H   UNL     1       5.649   2.437  19.080  0.00  0.00    +0.000 HD
ENDBRANCH  28  29
ENDBRANCH  27  28
ENDBRANCH   5  27
TORSDOF 11
ENDMDL
MODEL 2
REMARK VINA RESULT:      -7.0      1.116      2.117
REMARK  Name = 
REMARK  13 active torsions:
REMARK  status: ('A' for Active; 'I' for Inactive)
REMARK    1  A    between atoms: C_1  and  O_2
REMARK    2  A    between atoms: O_2  and  C_3
REMARK    3  A    between atoms: C_3  and  C_4
REMARK    4  A    between atoms: C_6  and  C_7
REMARK    5  A    between atoms: C_7  and  N_8
REMARK    6  A    between atoms: N_11  and  C_12
REMARK    7  A    between atoms: C_12  and  C_13
REMARK    8  A    between atoms: C_13  and  C_14
REMARK    9  A    between atoms: C_20  and  C_21
REMARK   10  A    between atoms: C_21  and  C_22
REMARK   11  A    between atoms: C_22  and  O_23
REMARK   12  A    between atoms: C_27  and  O_28
REMARK   13  A    between atoms: O_28  and  C_29
REMARK                            x       y       z     vdW  Elec       q    Type
REMARK                         _______ _______ _______ _____ _____    ______ ____
ROOT
ATOM      1  N   UNL     1       2.761   6.416  17.948  0.00  0.00    +0.000 NA
ATOM      2  C   UNL     1       4.047   6.881  17.398  0.00  0.00    +0.000 C 
ATOM      3  C   UNL     1       5.308   6.194  17.984  0.00  0.00    +0.000 C 
ATOM      4  N   UNL     1       5.308   4.709  18.031  0.00  0.00    +0.000 NA
ATOM      5  C   UNL     1       3.990   4.220  18.531  0.00  0.00    +0.000 C 
ATOM      6  C   UNL     1       2.763   4.932  17.865  0.00  0.00    +0.000 C 
ENDROOT
BRANCH   1   7
ATOM      7  C   UNL     1       2.557   6.846  19.345  0.00  0.00    +0.000 C 
BRANCH   7  10
ATOM      8  C   UNL     1       0.635   9.769  21.089  0.00  0.00    +0.000 A 
ATOM      9  C   UNL     1       1.239   8.490  20.868  0.00  0.00    +0.000 A 
ATOM     10  C   UNL     1       1.728   8.094  19.613  0.00  0.00    +0.000 A 
ATOM     11  C   UNL     1       1.578   8.989  18.551  0.00  0.00    +0.000 A 
ATOM     12  C   UNL     1       1.025  10.247  18.749  0.00  0.00    +0.000 A 
ATOM     13  C   UNL     1       0.575  10.673  20.012  0.00  0.00    +0.000 A 
BRANCH  13  14
ATOM     14  O   UNL     1       0.214  11.988  19.951  0.00  0.00    +0.000 OA
ATOM     15  C   UNL     1      -1.025  12.416  19.431  0.00  0.00    +0.000 C 
ENDBRANCH  13  14
BRANCH   8  16
ATOM     16  C   UNL     1       0.165  10.064  22.495  0.00  0.00    +0.000 C 
BRANCH  16  18
ATOM     17  C   UNL     1      -1.308  11.822  23.077  0.00  0.00    +0.000 C 
ATOM     18  O   UNL     1      -1.181  10.539  22.479  0.00  0.00    +0.000 OA
ENDBRANCH  16  18
ENDBRANCH   8  16
ENDBRANCH   7  10
ENDBRANCH   1   7
BRANCH   4  19
ATOM     19  C   UNL     1       5.738   4.114  16.750  0.00  0.00    +0.000 C 
BRANCH  19  20
ATOM     20  C   UNL     1       6.878   4.893  16.056  0.00  0.00    +0.000 C 
BRANCH  20  21
ATOM     21  C   UNL     1       6.902   4.605  14.573  0.00  0.00    +0.000 A 
ATOM     22  C   UNL     1       7.757   5.329  13.730  0.00  0.00    +0.000 A 
ATOM     23  C   UNL     1       7.738   5.113  12.353  0.00  0.00    +0.000 A 
ATOM     24  C   UNL     1       6.864   4.173  11.808  0.00  0.00    +0.000 A 
ATOM     25  C   UNL     1       6.017   3.442  12.640  0.00  0.00    +0.000 A 
ATOM     26  C   UNL     1       6.036   3.656  14.019  0.00  0.00    +0.000 A 
ENDBRANCH  20  21
ENDBRANCH  19  20
ENDBRANCH   4  19
BRANCH   5  27
ATOM     27  C   UNL     1       3.751   2.688  18.510  0.00  0.00    +0.000 C 
BRANCH  27  28
ATOM     28  C   UNL     1       2.501   2.259  17.750  0.00  0.00    +0.000 C 
BRANCH  28  29
ATOM     29  O   UNL     1       1.640   1.537  18.626  0.00  0.00    +0.000 OA
ATOM     30  H   UNL     1       2.191   1.122  19.314  0.00  0.00    +0.000 HD
ENDBRANCH  28  29
ENDBRANCH  27  28
ENDBRANCH   5  27
TORSDOF 11
ENDMDL
MODEL 3
REMARK VINA RESULT:      -6.9      0.837      1.240
REMARK  Name = 
REMARK  13 active torsions:
REMARK  status: ('A' for Active; 'I' for Inactive)
REMARK    1  A    between atoms: C_1  and  O_2
REMARK    2  A    between atoms: O_2  and  C_3
REMARK    3  A    between atoms: C_3  and  C_4
REMARK    4  A    between atoms: C_6  and  C_7
REMARK    5  A    between atoms: C_7  and  N_8
REMARK    6  A    between atoms: N_11  and  C_12
REMARK    7  A    between atoms: C_12  and  C_13
REMARK    8  A    between atoms: C_13  and  C_14
REMARK    9  A    between atoms: C_20  and  C_21
REMARK   10  A    between atoms: C_21  and  C_22
REMARK   11  A    between atoms: C_22  and  O_23
REMARK   12  A    between atoms: C_27  and  O_28
REMARK   13  A    between atoms: O_28  and  C_29
REMARK                            x       y       z     vdW  Elec       q    Type
REMARK                         _______ _______ _______ _____ _____    ______ ____
ROOT
ATOM      1  N   UNL     1       2.242   6.449  18.538  0.00  0.00    +0.000 NA
ATOM      2  C   UNL     1       3.116   7.054  17.517  0.00  0.00    +0.000 C 
ATOM      3  C   UNL     1       4.625   6.722  17.652  0.00  0.00    +0.000 C 
ATOM      4  N   UNL     1       4.990   5.291  17.819  0.00  0.00    +0.000 NA
ATOM      5  C   UNL     1       4.075   4.649  18.809  0.00  0.00    +0.000 C 
ATOM      6  C   UNL     1       2.564   4.999  18.583  0.00  0.00    +0.000 C 
ENDROOT
BRANCH   1   7
ATOM      7  C   UNL     1       2.430   7.053  19.871  0.00  0.00    +0.000 C 
BRANCH   7  10
ATOM      8  C   UNL     1       0.182  10.247  19.700  0.00  0.00    +0.000 A 
ATOM      9  C   UNL     1       1.084   9.206  19.310  0.00  0.00    +0.000 A 
ATOM     10  C   UNL     1       1.633   8.299  20.230  0.00  0.00    +0.000 A 
ATOM     11  C   UNL     1       1.295   8.462  21.575  0.00  0.00    +0.000 A 
ATOM     12  C   UNL     1       0.397   9.444  21.973  0.00  0.00    +0.000 A 
ATOM     13  C   UNL     1      -0.196  10.328  21.054  0.00  0.00    +0.000 A 
BRANCH  13  14
ATOM     14  O   UNL     1      -1.135  11.088  21.689  0.00  0.00    +0.000 OA
ATOM     15  C   UNL     1      -1.295  11.089  23.089  0.00  0.00    +0.000 C 
ENDBRANCH  13  14
BRANCH   8  16
ATOM     16  C   UNL     1      -0.340  11.141  18.600  0.00  0.00    +0.000 C 
BRANCH  16  18
ATOM     17  C   UNL     1      -1.895  10.016  17.218  0.00  0.00    +0.000 C 
ATOM     18  O   UNL     1      -1.716  10.863  18.344  0.00  0.00    +0.000 OA
ENDBRANCH  16  18
ENDBRANCH   8  16
ENDBRANCH   7  10
ENDBRANCH   1   7
BRANCH   4  19
ATOM     19  C   UNL     1       5.085   4.588  16.524  0.00  0.00    +0.000 C 
BRANCH  19  20
ATOM     20  C   UNL     1       6.535   4.265  16.099  0.00  0.00    +0.000 C 
BRANCH  20  21
ATOM     21  C   UNL     1       6.683   4.335  14.598  0.00  0.00    +0.000 A 
ATOM     22  C   UNL     1       5.918   3.495  13.776  0.00  0.00    +0.000 A 
ATOM     23  C   UNL     1       6.095   3.509  12.394  0.00  0.00    +0.000 A 
ATOM     24  C   UNL     1       7.038   4.362  11.822  0.00  0.00    +0.000 A 
ATOM     25  C   UNL     1       7.797   5.207  12.630  0.00  0.00    +0.000 A 
ATOM     26  C   UNL     1       7.620   5.195  14.014  0.00  0.00    +0.000 A 
ENDBRANCH  20  21
ENDBRANCH  19  20
ENDBRANCH   4  19
BRANCH   5  27
ATOM     27  C   UNL     1       4.211   3.118  19.005  0.00  0.00    +0.000 C 
BRANCH  27  28
ATOM     28  C   UNL     1       2.882   2.370  19.043  0.00  0.00    +0.000 C 
BRANCH  28  29
ATOM     29  O   UNL     1       2.748   1.585  17.861  0.00  0.00    +0.000 OA
ATOM     30  H   UNL     1       2.498   0.682  18.128  0.00  0.00    +0.000 HD
ENDBRANCH  28  29
ENDBRANCH  27  28
ENDBRANCH   5  27
TORSDOF 11
ENDMDL
MODEL 4
REMARK VINA RESULT:      -6.8      1.032      1.522
REMARK  Name = 
REMARK  13 active torsions:
REMARK  status: ('A' for Active; 'I' for Inactive)
REMARK    1  A    between atoms: C_1  and  O_2
REMARK    2  A    between atoms: O_2  and  C_3
REMARK    3  A    between atoms: C_3  and  C_4
REMARK    4  A    between atoms: C_6  and  C_7
REMARK    5  A    between atoms: C_7  and  N_8
REMARK    6  A    between atoms: N_11  and  C_12
REMARK    7  A    between atoms: C_12  and  C_13
REMARK    8  A    between atoms: C_13  and  C_14
REMARK    9  A    between atoms: C_20  and  C_21
REMARK   10  A    between atoms: C_21  and  C_22
REMARK   11  A    between atoms: C_22  and  O_23
REMARK   12  A    between atoms: C_27  and  O_28
REMARK   13  A    between atoms: O_28  and  C_29
REMARK                            x       y       z     vdW  Elec       q    Type
REMARK                         _______ _______ _______ _____ _____    ______ ____
ROOT
ATOM      1  N   UNL     1       2.220   6.774  18.233  0.00  0.00    +0.000 NA
ATOM      2  C   UNL     1       3.533   7.180  17.701  0.00  0.00    +0.000 C 
ATOM      3  C   UNL     1       4.700   6.202  17.994  0.00  0.00    +0.000 C 
ATOM      4  N   UNL     1       4.472   4.766  17.684  0.00  0.00    +0.000 NA
ATOM      5  C   UNL     1       3.121   4.354  18.165  0.00  0.00    +0.000 C 
ATOM      6  C   UNL     1       1.987   5.372  17.797  0.00  0.00    +0.000 C 
ENDROOT
BRANCH   1   7
ATOM      7  C   UNL     1       2.154   6.867  19.704  0.00  0.00    +0.000 C 
BRANCH   7  10
ATOM      8  C   UNL     1       0.558  10.382  20.316  0.00  0.00    +0.000 A 
ATOM      9  C   UNL     1       1.145   9.262  19.645  0.00  0.00    +0.000 A 
ATOM     10  C   UNL     1       1.699   8.173  20.337  0.00  0.00    +0.000 A 
ATOM     11  C   UNL     1       1.692   8.227  21.733  0.00  0.00    +0.000 A 
ATOM     12  C   UNL     1       1.100   9.288  22.406  0.00  0.00    +0.000 A 
ATOM     13  C   UNL     1       0.499  10.361  21.722  0.00  0.00    +0.000 A 
BRANCH  13  14
ATOM     14  O   UNL     1      -0.124  11.183  22.616  0.00  0.00    +0.000 OA
ATOM     15  C   UNL     1      -1.412  10.920  23.125  0.00  0.00    +0.000 C 
ENDBRANCH  13  14
BRANCH   8  16
ATOM     16  C   UNL     1      -0.010  11.476  19.442  0.00  0.00    +0.000 C 
BRANCH  16  18
ATOM     17  C   UNL     1       0.512  13.757  19.791  0.00  0.00    +0.000 C 
ATOM     18  O   UNL     1       0.951  12.514  19.258  0.00  0.00    +0.000 OA
ENDBRANCH  16  18
ENDBRANCH   8  16
ENDBRANCH   7  10
ENDBRANCH   1   7
BRANCH   4  19
ATOM     19  C   UNL     1       4.740   4.456  16.266  0.00  0.00    +0.000 C 
BRANCH  19  20
ATOM     20  C   UNL     1       6.208   4.064  15.984  0.00  0.00    +0.000 C 
BRANCH  20  21
ATOM     21  C   UNL     1       6.532   4.216  14.516  0.00  0.00    +0.000 A 
ATOM     22  C   UNL     1       5.913   3.386  13.571  0.00  0.00    +0.000 A 
ATOM     23  C   UNL     1       6.254   3.477  12.222  0.00  0.00    +0.000 A 
ATOM     24  C   UNL     1       7.216   4.397  11.808  0.00  0.00    +0.000 A 
ATOM     25  C   UNL     1       7.831   5.231  12.740  0.00  0.00    +0.000 A 
ATOM     26  C   UNL     1       7.490   5.143  14.091  0.00  0.00    +0.000 A 
ENDBRANCH  20  21
ENDBRANCH  19  20
ENDBRANCH   4  19
BRANCH   5  27
ATOM     27  C   UNL     1       2.647   2.924  17.800  0.00  0.00    +0.000 C 
BRANCH  27  28
ATOM     28  C   UNL     1       3.108   1.844  18.772  0.00  0.00    +0.000 C 
BRANCH  28  29
ATOM     29  O   UNL     1       4.527   1.887  18.889  0.00  0.00    +0.000 OA
ATOM     30  H   UNL     1       4.753   1.832  19.835  0.00  0.00    +0.000 HD
ENDBRANCH  28  29
ENDBRANCH  27  28
ENDBRANCH   5  27
TORSDOF 11
ENDMDL
MODEL 5
REMARK VINA RESULT:      -6.7      4.925      7.408
REMARK  Name = 
REMARK  13 active torsions:
REMARK  status: ('A' for Active; 'I' for Inactive)
REMARK    1  A    between atoms: C_1  and  O_2
REMARK    2  A    between atoms: O_2  and  C_3
REMARK    3  A    between atoms: C_3  and  C_4
REMARK    4  A    between atoms: C_6  and  C_7
REMARK    5  A    between atoms: C_7  and  N_8
REMARK    6  A    between atoms: N_11  and  C_12
REMARK    7  A    between atoms: C_12  and  C_13
REMARK    8  A    between atoms: C_13  and  C_14
REMARK    9  A    between atoms: C_20  and  C_21
REMARK   10  A    between atoms: C_21  and  C_22
REMARK   11  A    between atoms: C_22  and  O_23
REMARK   12  A    between atoms: C_27  and  O_28
REMARK   13  A    between atoms: O_28  and  C_29
REMARK                            x       y       z     vdW  Elec       q    Type
REMARK                         _______ _______ _______ _____ _____    ______ ____
ROOT
ATOM      1  N   UNL     1       7.515   6.646  17.634  0.00  0.00    +0.000 NA
ATOM      2  C   UNL     1       6.887   6.032  18.817  0.00  0.00    +0.000 C 
ATOM      3  C   UNL     1       5.365   5.756  18.694  0.00  0.00    +0.000 C 
ATOM      4  N   UNL     1       4.904   5.044  17.474  0.00  0.00    +0.000 NA
ATOM      5  C   UNL     1       5.577   5.616  16.271  0.00  0.00    +0.000 C 
ATOM      6  C   UNL     1       7.119   5.829  16.457  0.00  0.00    +0.000 C 
ENDROOT
BRANCH   1   7
ATOM      7  C   UNL     1       7.102   8.049  17.440  0.00  0.00    +0.000 C 
BRANCH   7  10
ATOM      8  C   UNL     1       8.785  11.521  18.070  0.00  0.00    +0.000 A 
ATOM      9  C   UNL     1       8.027  10.479  17.445  0.00  0.00    +0.000 A 
ATOM     10  C   UNL     1       8.028   9.158  17.919  0.00  0.00    +0.000 A 
ATOM     11  C   UNL     1       8.834   8.870  19.023  0.00  0.00    +0.000 A 
ATOM     12  C   UNL     1       9.553   9.870  19.664  0.00  0.00    +0.000 A 
ATOM     13  C   UNL     1       9.521  11.207  19.227  0.00  0.00    +0.000 A 
BRANCH  13  14
ATOM     14  O   UNL     1      10.196  11.995  20.114  0.00  0.00    +0.000 OA
ATOM     15  C   UNL     1       9.613  13.118  20.734  0.00  0.00    +0.000 C 
ENDBRANCH  13  14
BRANCH   8  16
ATOM     16  C   UNL     1       8.677  12.898  17.458  0.00  0.00    +0.000 C 
BRANCH  16  18
ATOM     17  C   UNL     1       7.019  14.570  17.689  0.00  0.00    +0.000 C 
ATOM     18  O   UNL     1       7.308  13.247  17.258  0.00  0.00    +0.000 OA
ENDBRANCH  16  18
ENDBRANCH   8  16
ENDBRANCH   7  10
ENDBRANCH   1   7
BRANCH   4  19
ATOM     19  C   UNL     1       5.027   3.579  17.608  0.00  0.00    +0.000 C 
BRANCH  19  20
ATOM     20  C   UNL     1       3.677   2.832  17.510  0.00  0.00    +0.000 C 
BRANCH  20  21
ATOM     21  C   UNL     1       2.902   2.952  18.801  0.00  0.00    +0.000 A 
ATOM     22  C   UNL     1       1.604   3.483  18.794  0.00  0.00    +0.000 A 
ATOM     23  C   UNL     1       0.907   3.656  19.989  0.00  0.00    +0.000 A 
ATOM     24  C   UNL     1       1.502   3.301  21.199  0.00  0.00    +0.000 A 
ATOM     25  C   UNL     1       2.788   2.763  21.214  0.00  0.00    +0.000 A 
ATOM     26  C   UNL     1       3.487   2.588  20.019  0.00  0.00    +0.000 A 
ENDBRANCH  20  21
ENDBRANCH  19  20
ENDBRANCH   4  19
BRANCH   5  27
ATOM     27  C   UNL     1       5.330   4.902  14.918  0.00  0.00    +0.000 C 
BRANCH  27  28
ATOM     28  C   UNL     1       6.591   4.353  14.259  0.00  0.00    +0.000 C 
BRANCH  28  29
ATOM     29  O   UNL     1       6.233   3.333  13.330  0.00  0.00    +0.000 OA
ATOM     30  H   UNL     1       6.975   2.704  13.275  0.00  0.00    +0.000 HD
ENDBRANCH  28  29
ENDBRANCH  27  28
ENDBRANCH   5  27
TORSDOF 11
ENDMDL
MODEL 6
REMARK VINA RESULT:      -6.7      1.019      2.279
REMARK  Name = 
REMARK  13 active torsions:
REMARK  status: ('A' for Active; 'I' for Inactive)
REMARK    1  A    between atoms: C_1  and  O_2
REMARK    2  A    between atoms: O_2  and  C_3
REMARK    3  A    between atoms: C_3  and  C_4
REMARK    4  A    between atoms: C_6  and  C_7
REMARK    5  A    between atoms: C_7  and  N_8
REMARK    6  A    between atoms: N_11  and  C_12
REMARK    7  A    between atoms: C_12  and  C_13
REMARK    8  A    between atoms: C_13  and  C_14
REMARK    9  A    between atoms: C_20  and  C_21
REMARK   10  A    between atoms: C_21  and  C_22
REMARK   11  A    between atoms: C_22  and  O_23
REMARK   12  A    between atoms: C_27  and  O_28
REMARK   13  A    between atoms: O_28  and  C_29
REMARK                            x       y       z     vdW  Elec       q    Type
REMARK                         _______ _______ _______ _____ _____    ______ ____
ROOT
ATOM      1  N   UNL     1       2.886   6.559  17.801  0.00  0.00    +0.000 NA
ATOM      2  C   UNL     1       4.230   6.918  17.316  0.00  0.00    +0.000 C 
ATOM      3  C   UNL     1       5.401   6.122  17.948  0.00  0.00    +0.000 C 
ATOM      4  N   UNL     1       5.273   4.641  17.975  0.00  0.00    +0.000 NA
ATOM      5  C   UNL     1       3.897   4.261  18.410  0.00  0.00    +0.000 C 
ATOM      6  C   UNL     1       2.766   5.081  17.699  0.00  0.00    +0.000 C 
ENDROOT
BRANCH   1   7
ATOM      7  C   UNL     1       2.655   6.992  19.193  0.00  0.00    +0.000 C 
BRANCH   7  10
ATOM      8  C   UNL     1       0.613   9.855  20.899  0.00  0.00    +0.000 A 
ATOM      9  C   UNL     1       1.262   8.596  20.692  0.00  0.00    +0.000 A 
ATOM     10  C   UNL     1       1.781   8.212  19.445  0.00  0.00    +0.000 A 
ATOM     11  C   UNL     1       1.614   9.097  18.377  0.00  0.00    +0.000 A 
ATOM     12  C   UNL     1       1.015  10.336  18.562  0.00  0.00    +0.000 A 
ATOM     13  C   UNL     1       0.535  10.751  19.817  0.00  0.00    +0.000 A 
BRANCH  13  14
ATOM     14  O   UNL     1       0.130  12.053  19.745  0.00  0.00    +0.000 OA
ATOM     15  C   UNL     1       0.706  12.983  18.856  0.00  0.00    +0.000 C 
ENDBRANCH  13  14
BRANCH   8  16
ATOM     16  C   UNL     1       0.115  10.140  22.297  0.00  0.00    +0.000 C 
BRANCH  16  18
ATOM     17  C   UNL     1      -1.270  11.937  22.966  0.00  0.00    +0.000 C 
ATOM     18  O   UNL     1      -1.192  10.710  22.253  0.00  0.00    +0.000 OA
ENDBRANCH  16  18
ENDBRANCH   8  16
ENDBRANCH   7  10
ENDBRANCH   1   7
BRANCH   4  19
ATOM     19  C   UNL     1       5.709   4.024  16.707  0.00  0.00    +0.000 C 
BRANCH  19  20
ATOM     20  C   UNL     1       6.921   4.730  16.058  0.00  0.00    +0.000 C 
BRANCH  20  21
ATOM     21  C   UNL     1       6.891   4.576  14.556  0.00  0.00    +0.000 A 
ATOM     22  C   UNL     1       6.040   3.633  13.963  0.00  0.00    +0.000 A 
ATOM     23  C   UNL     1       6.053   3.440  12.583  0.00  0.00    +0.000 A 
ATOM     24  C   UNL     1       6.917   4.188  11.784  0.00  0.00    +0.000 A 
ATOM     25  C   UNL     1       7.761   5.135  12.364  0.00  0.00    +0.000 A 
ATOM     26  C   UNL     1       7.748   5.330  13.745  0.00  0.00    +0.000 A 
ENDBRANCH  20  21
ENDBRANCH  19  20
ENDBRANCH   4  19
BRANCH   5  27
ATOM     27  C   UNL     1       3.531   2.755  18.358  0.00  0.00    +0.000 C 
BRANCH  27  28
ATOM     28  C   UNL     1       2.759   2.256  19.574  0.00  0.00    +0.000 C 
BRANCH  28  29
ATOM     29  O   UNL     1       2.864   3.211  20.626  0.00  0.00    +0.000 OA
ATOM     30  H   UNL     1       2.151   3.865  20.511  0.00  0.00    +0.000 HD
ENDBRANCH  28  29
ENDBRANCH  27  28
ENDBRANCH   5  27
TORSDOF 11
ENDMDL
MODEL 7
REMARK VINA RESULT:      -6.6      2.419      9.005
REMARK  Name = 
REMARK  13 active torsions:
REMARK  status: ('A' for Active; 'I' for Inactive)
REMARK    1  A    between atoms: C_1  and  O_2
REMARK    2  A    between atoms: O_2  and  C_3
REMARK    3  A    between atoms: C_3  and  C_4
REMARK    4  A    between atoms: C_6  and  C_7
REMARK    5  A    between atoms: C_7  and  N_8
REMARK    6  A    between atoms: N_11  and  C_12
REMARK    7  A    between atoms: C_12  and  C_13
REMARK    8  A    between atoms: C_13  and  C_14
REMARK    9  A    between atoms: C_20  and  C_21
REMARK   10  A    between atoms: C_21  and  C_22
REMARK   11  A    between atoms: C_22  and  O_23
REMARK   12  A    between atoms: C_27  and  O_28
REMARK   13  A    between atoms: O_28  and  C_29
REMARK                            x       y       z     vdW  Elec       q    Type
REMARK                         _______ _______ _______ _____ _____    ______ ____
ROOT
ATOM      1  N   UNL     1       2.024   4.518  18.464  0.00  0.00    +0.000 NA
ATOM      2  C   UNL     1       1.379   4.382  19.782  0.00  0.00    +0.000 C 
ATOM      3  C   UNL     1       1.968   5.275  20.905  0.00  0.00    +0.000 C 
ATOM      4  N   UNL     1       2.147   6.718  20.597  0.00  0.00    +0.000 NA
ATOM      5  C   UNL     1       2.746   6.874  19.239  0.00  0.00    +0.000 C 
ATOM      6  C   UNL     1       2.073   5.970  18.150  0.00  0.00    +0.000 C 
ENDROOT
BRANCH   1   7
ATOM      7  C   UNL     1       3.384   3.947  18.440  0.00  0.00    +0.000 C 
BRANCH   7  10
ATOM      8  C   UNL     1       6.560   5.872  17.221  0.00  0.00    +0.000 A 
ATOM      9  C   UNL     1       5.482   5.432  18.054  0.00  0.00    +0.000 A 
ATOM     10  C   UNL     1       4.444   4.616  17.578  0.00  0.00    +0.000 A 
ATOM     11  C   UNL     1       4.472   4.262  16.227  0.00  0.00    +0.000 A 
ATOM     12  C   UNL     1       5.523   4.650  15.407  0.00  0.00    +0.000 A 
ATOM     13  C   UNL     1       6.593   5.428  15.886  0.00  0.00    +0.000 A 
BRANCH  13  14
ATOM     14  O   UNL     1       7.546   5.542  14.915  0.00  0.00    +0.000 OA
ATOM     15  C   UNL     1       7.466   4.862  13.683  0.00  0.00    +0.000 C 
ENDBRANCH  13  14
BRANCH   8  16
ATOM     16  C   UNL     1       7.613   6.736  17.872  0.00  0.00    +0.000 C 
BRANCH  16  18
ATOM     17  C   UNL     1       8.007   9.069  17.891  0.00  0.00    +0.000 C 
ATOM     18  O   UNL     1       7.850   7.906  17.090  0.00  0.00    +0.000 OA
ENDBRANCH  16  18
ENDBRANCH   8  16
ENDBRANCH   7  10
ENDBRANCH   1   7
BRANCH   4  19
ATOM     19  C   UNL     1       0.907   7.489  20.814  0.00  0.00    +0.000 C 
BRANCH  19  20
ATOM     20  C   UNL     1       1.028   8.560  21.922  0.00  0.00    +0.000 C 
BRANCH  20  21
ATOM     21  C   UNL     1       0.112   9.728  21.643  0.00  0.00    +0.000 A 
ATOM     22  C   UNL     1      -0.084  10.168  20.325  0.00  0.00    +0.000 A 
ATOM     23  C   UNL     1      -0.877  11.284  20.066  0.00  0.00    +0.000 A 
ATOM     24  C   UNL     1      -1.480  11.970  21.119  0.00  0.00    +0.000 A 
ATOM     25  C   UNL     1      -1.298  11.534  22.431  0.00  0.00    +0.000 A 
ATOM     26  C   UNL     1      -0.505  10.416  22.693  0.00  0.00    +0.000 A 
ENDBRANCH  20  21
ENDBRANCH  19  20
ENDBRANCH   4  19
BRANCH   5  27
ATOM     27  C   UNL     1       2.872   8.316  18.685  0.00  0.00    +0.000 C 
BRANCH  27  28
ATOM     28  C   UNL     1       1.825   8.679  17.638  0.00  0.00    +0.000 C 
BRANCH  28  29
ATOM     29  O   UNL     1       1.836  10.088  17.427  0.00  0.00    +0.000 OA
ATOM     30  H   UNL     1       1.091  10.310  16.841  0.00  0.00    +0.000 HD
ENDBRANCH  28  29
ENDBRANCH  27  28
ENDBRANCH   5  27
TORSDOF 11
ENDMDL
MODEL 8
REMARK VINA RESULT:      -6.6      1.214      2.521
REMARK  Name = 
REMARK  13 active torsions:
REMARK  status: ('A' for Active; 'I' for Inactive)
REMARK    1  A    between atoms: C_1  and  O_2
REMARK    2  A    between atoms: O_2  and  C_3
REMARK    3  A    between atoms: C_3  and  C_4
REMARK    4  A    between atoms: C_6  and  C_7
REMARK    5  A    between atoms: C_7  and  N_8
REMARK    6  A    between atoms: N_11  and  C_12
REMARK    7  A    between atoms: C_12  and  C_13
REMARK    8  A    between atoms: C_13  and  C_14
REMARK    9  A    between atoms: C_20  and  C_21
REMARK   10  A    between atoms: C_21  and  C_22
REMARK   11  A    between atoms: C_22  and  O_23
REMARK   12  A    between atoms: C_27  and  O_28
REMARK   13  A    between atoms: O_28  and  C_29
REMARK                            x       y       z     vdW  Elec       q    Type
REMARK                         _______ _______ _______ _____ _____    ______ ____
ROOT
ATOM      1  N   UNL     1       3.078   6.146  17.791  0.00  0.00    +0.000 NA
ATOM      2  C   UNL     1       4.266   6.734  17.150  0.00  0.00    +0.000 C 
ATOM      3  C   UNL     1       5.619   6.419  17.840  0.00  0.00    +0.000 C 
ATOM      4  N   UNL     1       5.896   4.995  18.164  0.00  0.00    +0.000 NA
ATOM      5  C   UNL     1       4.680   4.368  18.762  0.00  0.00    +0.000 C 
ATOM      6  C   UNL     1       3.359   4.699  17.987  0.00  0.00    +0.000 C 
ENDROOT
BRANCH   1   7
ATOM      7  C   UNL     1       2.761   6.781  19.084  0.00  0.00    +0.000 C 
BRANCH   7  10
ATOM      8  C   UNL     1       0.859  10.012  20.190  0.00  0.00    +0.000 A 
ATOM      9  C   UNL     1       1.445   8.707  20.233  0.00  0.00    +0.000 A 
ATOM     10  C   UNL     1       1.949   8.068  19.089  0.00  0.00    +0.000 A 
ATOM     11  C   UNL     1       1.832   8.742  17.871  0.00  0.00    +0.000 A 
ATOM     12  C   UNL     1       1.296  10.022  17.810  0.00  0.00    +0.000 A 
ATOM     13  C   UNL     1       0.831  10.690  18.957  0.00  0.00    +0.000 A 
BRANCH  13  14
ATOM     14  O   UNL     1       0.493  11.973  18.634  0.00  0.00    +0.000 OA
ATOM     15  C   UNL     1      -0.831  12.363  18.347  0.00  0.00    +0.000 C 
ENDBRANCH  13  14
BRANCH   8  16
ATOM     16  C   UNL     1       0.369  10.580  21.502  0.00  0.00    +0.000 C 
BRANCH  16  18
ATOM     17  C   UNL     1      -0.063   9.440  23.529  0.00  0.00    +0.000 C 
ATOM     18  O   UNL     1       0.926   9.853  22.596  0.00  0.00    +0.000 OA
ENDBRANCH  16  18
ENDBRANCH   8  16
ENDBRANCH   7  10
ENDBRANCH   1   7
BRANCH   4  19
ATOM     19  C   UNL     1       6.461   4.264  17.013  0.00  0.00    +0.000 C 
BRANCH  19  20
ATOM     20  C   UNL     1       5.441   4.005  15.881  0.00  0.00    +0.000 C 
BRANCH  20  21
ATOM     21  C   UNL     1       6.076   4.213  14.527  0.00  0.00    +0.000 A 
ATOM     22  C   UNL     1       5.622   3.484  13.418  0.00  0.00    +0.000 A 
ATOM     23  C   UNL     1       6.246   3.624  12.179  0.00  0.00    +0.000 A 
ATOM     24  C   UNL     1       7.328   4.493  12.039  0.00  0.00    +0.000 A 
ATOM     25  C   UNL     1       7.780   5.228  13.133  0.00  0.00    +0.000 A 
ATOM     26  C   UNL     1       7.156   5.090  14.374  0.00  0.00    +0.000 A 
ENDBRANCH  20  21
ENDBRANCH  19  20
ENDBRANCH   4  19
BRANCH   5  27
ATOM     27  C   UNL     1       4.733   2.842  19.031  0.00  0.00    +0.000 C 
BRANCH  27  28
ATOM     28  C   UNL     1       3.541   2.067  18.480  0.00  0.00    +0.000 C 
BRANCH  28  29
ATOM     29  O   UNL     1       3.950   0.742  18.151  0.00  0.00    +0.000 OA
ATOM     30  H   UNL     1       4.585   0.799  17.414  0.00  0.00    +0.000 HD
ENDBRANCH  28  29
ENDBRANCH  27  28
ENDBRANCH   5  27
TORSDOF 11
ENDMDL
MODEL 9
REMARK VINA RESULT:      -6.6      1.017      1.179
REMARK  Name = 
REMARK  13 active torsions:
REMARK  status: ('A' for Active; 'I' for Inactive)
REMARK    1  A    between atoms: C_1  and  O_2
REMARK    2  A    between atoms: O_2  and  C_3
REMARK    3  A    between atoms: C_3  and  C_4
REMARK    4  A    between atoms: C_6  and  C_7
REMARK    5  A    between atoms: C_7  and  N_8
REMARK    6  A    between atoms: N_11  and  C_12
REMARK    7  A    between atoms: C_12  and  C_13
REMARK    8  A    between atoms: C_13  and  C_14
REMARK    9  A    between atoms: C_20  and  C_21
REMARK   10  A    between atoms: C_21  and  C_22
REMARK   11  A    between atoms: C_22  and  O_23
REMARK   12  A    between atoms: C_27  and  O_28
REMARK   13  A    between atoms: O_28  and  C_29
REMARK                            x       y       z     vdW  Elec       q    Type
REMARK                         _______ _______ _______ _____ _____    ______ ____
ROOT
ATOM      1  N   UNL     1       2.234   6.782  18.329  0.00  0.00    +0.000 NA
ATOM      2  C   UNL     1       3.336   7.414  17.583  0.00  0.00    +0.000 C 
ATOM      3  C   UNL     1       4.747   6.834  17.863  0.00  0.00    +0.000 C 
ATOM      4  N   UNL     1       4.896   5.357  17.793  0.00  0.00    +0.000 NA
ATOM      5  C   UNL     1       3.754   4.701  18.496  0.00  0.00    +0.000 C 
ATOM      6  C   UNL     1       2.358   5.315  18.132  0.00  0.00    +0.000 C 
ENDROOT
BRANCH   1   7
ATOM      7  C   UNL     1       2.269   7.106  19.768  0.00  0.00    +0.000 C 
BRANCH   7  10
ATOM      8  C   UNL     1      -0.043  10.252  19.980  0.00  0.00    +0.000 A 
ATOM      9  C   UNL     1       0.847   9.261  19.455  0.00  0.00    +0.000 A 
ATOM     10  C   UNL     1       1.477   8.306  20.269  0.00  0.00    +0.000 A 
ATOM     11  C   UNL     1       1.234   8.369  21.643  0.00  0.00    +0.000 A 
ATOM     12  C   UNL     1       0.350   9.301  22.171  0.00  0.00    +0.000 A 
ATOM     13  C   UNL     1      -0.324  10.231  21.359  0.00  0.00    +0.000 A 
BRANCH  13  14
ATOM     14  O   UNL     1      -1.228  10.925  22.111  0.00  0.00    +0.000 OA
ATOM     15  C   UNL     1      -0.903  12.119  22.785  0.00  0.00    +0.000 C 
ENDBRANCH  13  14
BRANCH   8  16
ATOM     16  C   UNL     1      -0.659  11.207  18.985  0.00  0.00    +0.000 C 
BRANCH  16  18
ATOM     17  C   UNL     1      -0.239  13.437  18.315  0.00  0.00    +0.000 C 
ATOM     18  O   UNL     1      -0.467  12.557  19.407  0.00  0.00    +0.000 OA
ENDBRANCH  16  18
ENDBRANCH   8  16
ENDBRANCH   7  10
ENDBRANCH   1   7
BRANCH   4  19
ATOM     19  C   UNL     1       5.119   4.887  16.412  0.00  0.00    +0.000 C 
BRANCH  19  20
ATOM     20  C   UNL     1       6.598   4.948  15.967  0.00  0.00    +0.000 C 
BRANCH  20  21
ATOM     21  C   UNL     1       6.731   4.627  14.497  0.00  0.00    +0.000 A 
ATOM     22  C   UNL     1       7.680   5.300  13.714  0.00  0.00    +0.000 A 
ATOM     23  C   UNL     1       7.765   5.055  12.345  0.00  0.00    +0.000 A 
ATOM     24  C   UNL     1       6.903   4.137  11.747  0.00  0.00    +0.000 A 
ATOM     25  C   UNL     1       5.962   3.457  12.519  0.00  0.00    +0.000 A 
ATOM     26  C   UNL     1       5.877   3.700  13.891  0.00  0.00    +0.000 A 
ENDBRANCH  20  21
ENDBRANCH  19  20
ENDBRANCH   4  19
BRANCH   5  27
ATOM     27  C   UNL     1       3.661   3.156  18.401  0.00  0.00    +0.000 C 
BRANCH  27  28
ATOM     28  C   UNL     1       2.257   2.628  18.132  0.00  0.00    +0.000 C 
BRANCH  28  29
ATOM     29  O   UNL     1       1.710   2.102  19.339  0.00  0.00    +0.000 OA
ATOM     30  H   UNL     1       2.442   1.975  19.969  0.00  0.00    +0.000 HD
ENDBRANCH  28  29
ENDBRANCH  27  28
ENDBRANCH   5  27
TORSDOF 11
ENDMDL
