MODEL 1
REMARK VINA RESULT:      -7.9      0.000      0.000
REMARK  Name = 
REMARK  12 active torsions:
REMARK  status: ('A' for Active; 'I' for Inactive)
REMARK    1  A    between atoms: C_2  and  O_3
REMARK    2  A    between atoms: C_2  and  C_4
REMARK    3  A    between atoms: C_4  and  N_5
REMARK    4  A    between atoms: N_5  and  C_6
REMARK    5  A    between atoms: N_5  and  C_19
REMARK    6  A    between atoms: C_6  and  C_7
REMARK    7  A    between atoms: C_10  and  C_11
REMARK    8  A    between atoms: C_11  and  O_13
REMARK    9  A    between atoms: C_14  and  C_15
REMARK   10  A    between atoms: C_15  and  O_17
REMARK   11  A    between atoms: C_19  and  C_20
REMARK   12  A    between atoms: C_25  and  C_26
REMARK                            x       y       z     vdW  Elec       q    Type
REMARK                         _______ _______ _______ _____ _____    ______ ____
ROOT
ATOM      1  N   UNL     1       3.574   3.960  18.749  0.00  0.00    +0.000 NA
ENDROOT
BRANCH   1   2
ATOM      2  C   UNL     1       2.790   2.690  18.743  0.00  0.00    +0.000 C 
BRANCH   2   4
ATOM      3  O   UNL     1       0.373   2.432  18.880  0.00  0.00    +0.000 OA
ATOM      4  C   UNL     1       1.339   2.954  18.348  0.00  0.00    +0.000 C 
BRANCH   4   5
ATOM      5  O   UNL     1       1.237   3.846  17.331  0.00  0.00    +0.000 OA
ATOM      6  H   UNL     1       1.499   4.736  17.658  0.00  0.00    +0.000 HD
ENDBRANCH   4   5
ENDBRANCH   2   4
ENDBRANCH   1   2
BRANCH   1   7
ATOM      7  C   UNL     1       3.145   4.767  19.942  0.00  0.00    +0.000 C 
BRANCH   7   8
ATOM      8  C   UNL     1       2.717   6.186  19.610  0.00  0.00    +0.000 A 
ATOM      9  C   UNL     1       2.989   6.738  18.358  0.00  0.00    +0.000 A 
ATOM     10  C   UNL     1       2.493   8.001  18.019  0.00  0.00    +0.000 A 
ATOM     11  C   UNL     1       1.697   8.760  18.906  0.00  0.00    +0.000 A 
ATOM     12  C   UNL     1       1.473   8.223  20.187  0.00  0.00    +0.000 A 
ATOM     13  C   UNL     1       2.020   6.966  20.539  0.00  0.00    +0.000 A 
BRANCH  11  14
ATOM     14  C   UNL     1       1.110   9.998  18.287  0.00  0.00    +0.000 C 
ATOM     15  O   UNL     1      -0.101  10.096  18.136  0.00  0.00    +0.000 OA
BRANCH  14  16
ATOM     16  O   UNL     1       1.914  11.026  17.969  0.00  0.00    +0.000 OA
ATOM     17  H   UNL     1       2.000  11.763  18.618  0.00  0.00    +0.000 HD
ENDBRANCH  14  16
ENDBRANCH  11  14
BRANCH  12  18
ATOM     18  C   UNL     1       0.708   8.931  21.232  0.00  0.00    +0.000 C 
ATOM     19  O   UNL     1      -0.398   8.555  21.586  0.00  0.00    +0.000 OA
BRANCH  18  20
ATOM     20  O   UNL     1       1.342   9.977  21.795  0.00  0.00    +0.000 OA
ATOM     21  H   UNL     1       2.316  10.000  21.718  0.00  0.00    +0.000 HD
ENDBRANCH  18  20
ENDBRANCH  12  18
ENDBRANCH   7   8
ENDBRANCH   1   7
BRANCH   1  22
ATOM     22  C   UNL     1       5.018   3.658  18.870  0.00  0.00    +0.000 C 
BRANCH  22  23
ATOM     23  C   UNL     1       6.002   4.648  18.262  0.00  0.00    +0.000 A 
ATOM     24  C   UNL     1       6.779   5.408  19.173  0.00  0.00    +0.000 A 
ATOM     25  C   UNL     1       7.548   6.493  18.753  0.00  0.00    +0.000 A 
ATOM     26  C   UNL     1       7.563   6.849  17.415  0.00  0.00    +0.000 A 
ATOM     27  C   UNL     1       6.852   6.083  16.492  0.00  0.00    +0.000 A 
ATOM     28  C   UNL     1       6.085   4.962  16.886  0.00  0.00    +0.000 A 
BRANCH  28  29
ATOM     29  C   UNL     1       5.403   4.217  15.765  0.00  0.00    +0.000 C 
ATOM     30  F   UNL     1       5.552   4.717  14.507  0.00  0.00    +0.000 F 
ATOM     31  F   UNL     1       5.827   2.925  15.663  0.00  0.00    +0.000 F 
ATOM     32  F   UNL     1       4.052   4.143  15.954  0.00  0.00    +0.000 F 
ENDBRANCH  28  29
ENDBRANCH  22  23
ENDBRANCH   1  22
TORSDOF 12
ENDMDL
MODEL 2
REMARK VINA RESULT:      -7.9      0.386      1.146
REMARK  Name = 
REMARK  12 active torsions:
REMARK  status: ('A' for Active; 'I' for Inactive)
REMARK    1  A    between atoms: C_2  and  O_3
REMARK    2  A    between atoms: C_2  and  C_4
REMARK    3  A    between atoms: C_4  and  N_5
REMARK    4  A    between atoms: N_5  and  C_6
REMARK    5  A    between atoms: N_5  and  C_19
REMARK    6  A    between atoms: C_6  and  C_7
REMARK    7  A    between atoms: C_10  and  C_11
REMARK    8  A    between atoms: C_11  and  O_13
REMARK    9  A    between atoms: C_14  and  C_15
REMARK   10  A    between atoms: C_15  and  O_17
REMARK   11  A    between atoms: C_19  and  C_20
REMARK   12  A    between atoms: C_25  and  C_26
REMARK                            x       y       z     vdW  Elec       q    Type
REMARK                         _______ _______ _______ _____ _____    ______ ____
ROOT
ATOM      1  N   UNL     1       3.807   3.885  18.671  0.00  0.00    +0.000 NA
ENDROOT
BRANCH   1   2
ATOM      2  C   UNL     1       3.137   2.552  18.608  0.00  0.00    +0.000 C 
BRANCH   2   4
ATOM      3  O   UNL     1       1.272   3.582  17.429  0.00  0.00    +0.000 OA
ATOM      4  C   UNL     1       1.684   2.700  18.166  0.00  0.00    +0.000 C 
BRANCH   4   5
ATOM      5  O   UNL     1       0.888   1.731  18.682  0.00  0.00    +0.000 OA
ATOM      6  H   UNL     1      -0.042   1.900  18.410  0.00  0.00    +0.000 HD
ENDBRANCH   4   5
ENDBRANCH   2   4
ENDBRANCH   1   2
BRANCH   1   7
ATOM      7  C   UNL     1       3.228   4.643  19.834  0.00  0.00    +0.000 C 
BRANCH   7   8
ATOM      8  C   UNL     1       2.852   6.078  19.513  0.00  0.00    +0.000 A 
ATOM      9  C   UNL     1       3.127   6.624  18.258  0.00  0.00    +0.000 A 
ATOM     10  C   UNL     1       2.677   7.908  17.932  0.00  0.00    +0.000 A 
ATOM     11  C   UNL     1       1.925   8.694  18.833  0.00  0.00    +0.000 A 
ATOM     12  C   UNL     1       1.699   8.161  20.116  0.00  0.00    +0.000 A 
ATOM     13  C   UNL     1       2.201   6.882  20.455  0.00  0.00    +0.000 A 
BRANCH  11  14
ATOM     14  C   UNL     1       1.379   9.957  18.227  0.00  0.00    +0.000 C 
ATOM     15  O   UNL     1       2.129  10.890  17.969  0.00  0.00    +0.000 OA
BRANCH  14  16
ATOM     16  O   UNL     1       0.078  10.029  17.902  0.00  0.00    +0.000 OA
ATOM     17  H   UNL     1      -0.552   9.446  18.387  0.00  0.00    +0.000 HD
ENDBRANCH  14  16
ENDBRANCH  11  14
BRANCH  12  18
ATOM     18  C   UNL     1       0.979   8.896  21.174  0.00  0.00    +0.000 C 
ATOM     19  O   UNL     1      -0.197   9.201  21.058  0.00  0.00    +0.000 OA
BRANCH  18  20
ATOM     20  O   UNL     1       1.696   9.147  22.285  0.00  0.00    +0.000 OA
ATOM     21  H   UNL     1       1.305   8.875  23.138  0.00  0.00    +0.000 HD
ENDBRANCH  18  20
ENDBRANCH  12  18
ENDBRANCH   7   8
ENDBRANCH   1   7
BRANCH   1  22
ATOM     22  C   UNL     1       5.260   3.707  18.892  0.00  0.00    +0.000 C 
BRANCH  22  23
ATOM     23  C   UNL     1       6.200   4.739  18.285  0.00  0.00    +0.000 A 
ATOM     24  C   UNL     1       6.998   5.480  19.193  0.00  0.00    +0.000 A 
ATOM     25  C   UNL     1       7.729   6.596  18.784  0.00  0.00    +0.000 A 
ATOM     26  C   UNL     1       7.684   7.002  17.461  0.00  0.00    +0.000 A 
ATOM     27  C   UNL     1       6.952   6.256  16.539  0.00  0.00    +0.000 A 
ATOM     28  C   UNL     1       6.223   5.105  16.920  0.00  0.00    +0.000 A 
BRANCH  28  29
ATOM     29  C   UNL     1       5.512   4.388  15.798  0.00  0.00    +0.000 C 
ATOM     30  F   UNL     1       4.160   4.264  15.899  0.00  0.00    +0.000 F 
ATOM     31  F   UNL     1       5.704   4.990  14.589  0.00  0.00    +0.000 F 
ATOM     32  F   UNL     1       5.969   3.110  15.645  0.00  0.00    +0.000 F 
ENDBRANCH  28  29
ENDBRANCH  22  23
ENDBRANCH   1  22
TORSDOF 12
ENDMDL
MODEL 3
REMARK VINA RESULT:      -7.6      1.563      2.335
REMARK  Name = 
REMARK  12 active torsions:
REMARK  status: ('A' for Active; 'I' for Inactive)
REMARK    1  A    between atoms: C_2  and  O_3
REMARK    2  A    between atoms: C_2  and  C_4
REMARK    3  A    between atoms: C_4  and  N_5
REMARK    4  A    between atoms: N_5  and  C_6
REMARK    5  A    between atoms: N_5  and  C_19
REMARK    6  A    between atoms: C_6  and  C_7
REMARK    7  A    between atoms: C_10  and  C_11
REMARK    8  A    between atoms: C_11  and  O_13
REMARK    9  A    between atoms: C_14  and  C_15
REMARK   10  A    between atoms: C_15  and  O_17
REMARK   11  A    between atoms: C_19  and  C_20
REMARK   12  A    between atoms: C_25  and  C_26
REMARK                            x       y       z     vdW  Elec       q    Type
REMARK                         _______ _______ _______ _____ _____    ______ ____
ROOT
ATOM      1  N   UNL     1       3.437   4.312  18.540  0.00  0.00    +0.000 NA
ENDROOT
BRANCH   1   2
ATOM      2  C   UNL     1       2.649   3.115  18.961  0.00  0.00    +0.000 C 
BRANCH   2   4
ATOM      3  O   UNL     1       0.406   2.290  18.496  0.00  0.00    +0.000 OA
ATOM      4  C   UNL     1       1.307   3.071  18.235  0.00  0.00    +0.000 C 
BRANCH   4   5
ATOM      5  O   UNL     1       1.219   4.008  17.259  0.00  0.00    +0.000 OA
ATOM      6  H   UNL     1       0.270   4.192  17.074  0.00  0.00    +0.000 HD
ENDBRANCH   4   5
ENDBRANCH   2   4
ENDBRANCH   1   2
BRANCH   1   7
ATOM      7  C   UNL     1       3.493   5.265  19.701  0.00  0.00    +0.000 C 
BRANCH   7   8
ATOM      8  C   UNL     1       2.862   6.618  19.423  0.00  0.00    +0.000 A 
ATOM      9  C   UNL     1       2.930   7.190  18.152  0.00  0.00    +0.000 A 
ATOM     10  C   UNL     1       2.252   8.380  17.875  0.00  0.00    +0.000 A 
ATOM     11  C   UNL     1       1.467   9.044  18.845  0.00  0.00    +0.000 A 
ATOM     12  C   UNL     1       1.447   8.493  20.140  0.00  0.00    +0.000 A 
ATOM     13  C   UNL     1       2.178   7.315  20.425  0.00  0.00    +0.000 A 
BRANCH  11  14
ATOM     14  C   UNL     1       0.672  10.196  18.298  0.00  0.00    +0.000 C 
ATOM     15  O   UNL     1      -0.511  10.050  18.018  0.00  0.00    +0.000 OA
BRANCH  14  16
ATOM     16  O   UNL     1       1.245  11.406  18.188  0.00  0.00    +0.000 OA
ATOM     17  H   UNL     1       0.656  12.186  18.063  0.00  0.00    +0.000 HD
ENDBRANCH  14  16
ENDBRANCH  11  14
BRANCH  12  18
ATOM     18  C   UNL     1       0.717   9.112  21.263  0.00  0.00    +0.000 C 
ATOM     19  O   UNL     1       1.178  10.053  21.889  0.00  0.00    +0.000 OA
BRANCH  18  20
ATOM     20  O   UNL     1      -0.505   8.601  21.501  0.00  0.00    +0.000 OA
ATOM     21  H   UNL     1      -0.574   7.629  21.574  0.00  0.00    +0.000 HD
ENDBRANCH  18  20
ENDBRANCH  12  18
ENDBRANCH   7   8
ENDBRANCH   1   7
BRANCH   1  22
ATOM     22  C   UNL     1       4.816   3.906  18.188  0.00  0.00    +0.000 C 
BRANCH  22  23
ATOM     23  C   UNL     1       5.381   4.396  16.861  0.00  0.00    +0.000 A 
ATOM     24  C   UNL     1       4.816   3.837  15.688  0.00  0.00    +0.000 A 
ATOM     25  C   UNL     1       5.390   4.034  14.432  0.00  0.00    +0.000 A 
ATOM     26  C   UNL     1       6.541   4.793  14.313  0.00  0.00    +0.000 A 
ATOM     27  C   UNL     1       7.084   5.399  15.445  0.00  0.00    +0.000 A 
ATOM     28  C   UNL     1       6.508   5.238  16.727  0.00  0.00    +0.000 A 
BRANCH  28  29
ATOM     29  C   UNL     1       7.193   5.988  17.844  0.00  0.00    +0.000 C 
ATOM     30  F   UNL     1       6.394   6.587  18.769  0.00  0.00    +0.000 F 
ATOM     31  F   UNL     1       8.018   5.189  18.579  0.00  0.00    +0.000 F 
ATOM     32  F   UNL     1       7.988   6.991  17.367  0.00  0.00    +0.000 F 
ENDBRANCH  28  29
ENDBRANCH  22  23
ENDBRANCH   1  22
TORSDOF 12
ENDMDL
MODEL 4
REMARK VINA RESULT:      -7.5      1.110      1.633
REMARK  Name = 
REMARK  12 active torsions:
REMARK  status: ('A' for Active; 'I' for Inactive)
REMARK    1  A    between atoms: C_2  and  O_3
REMARK    2  A    between atoms: C_2  and  C_4
REMARK    3  A    between atoms: C_4  and  N_5
REMARK    4  A    between atoms: N_5  and  C_6
REMARK    5  A    between atoms: N_5  and  C_19
REMARK    6  A    between atoms: C_6  and  C_7
REMARK    7  A    between atoms: C_10  and  C_11
REMARK    8  A    between atoms: C_11  and  O_13
REMARK    9  A    between atoms: C_14  and  C_15
REMARK   10  A    between atoms: C_15  and  O_17
REMARK   11  A    between atoms: C_19  and  C_20
REMARK   12  A    between atoms: C_25  and  C_26
REMARK                            x       y       z     vdW  Elec       q    Type
REMARK                         _______ _______ _______ _____ _____    ______ ____
ROOT
ATOM      1  N   UNL     1       3.092   4.842  17.979  0.00  0.00    +0.000 NA
ENDROOT
BRANCH   1   2
ATOM      2  C   UNL     1       1.932   3.925  17.772  0.00  0.00    +0.000 C 
BRANCH   2   4
ATOM      3  O   UNL     1       2.027   2.481  19.730  0.00  0.00    +0.000 OA
ATOM      4  C   UNL     1       2.144   2.612  18.523  0.00  0.00    +0.000 C 
BRANCH   4   5
ATOM      5  O   UNL     1       2.475   1.592  17.692  0.00  0.00    +0.000 OA
ATOM      6  H   UNL     1       2.342   0.739  18.163  0.00  0.00    +0.000 HD
ENDBRANCH   4   5
ENDBRANCH   2   4
ENDBRANCH   1   2
BRANCH   1   7
ATOM      7  C   UNL     1       2.930   5.505  19.318  0.00  0.00    +0.000 C 
BRANCH   7   8
ATOM      8  C   UNL     1       2.408   6.929  19.246  0.00  0.00    +0.000 A 
ATOM      9  C   UNL     1       2.457   7.647  18.050  0.00  0.00    +0.000 A 
ATOM     10  C   UNL     1       1.874   8.915  17.962  0.00  0.00    +0.000 A 
ATOM     11  C   UNL     1       1.207   9.514  19.054  0.00  0.00    +0.000 A 
ATOM     12  C   UNL     1       1.209   8.811  20.273  0.00  0.00    +0.000 A 
ATOM     13  C   UNL     1       1.846   7.550  20.366  0.00  0.00    +0.000 A 
BRANCH  11  14
ATOM     14  C   UNL     1       0.489  10.787  18.702  0.00  0.00    +0.000 C 
ATOM     15  O   UNL     1       0.894  11.861  19.131  0.00  0.00    +0.000 OA
BRANCH  14  16
ATOM     16  O   UNL     1      -0.553  10.750  17.856  0.00  0.00    +0.000 OA
ATOM     17  H   UNL     1      -0.364  10.778  16.889  0.00  0.00    +0.000 HD
ENDBRANCH  14  16
ENDBRANCH  11  14
BRANCH  12  18
ATOM     18  C   UNL     1       0.601   9.342  21.507  0.00  0.00    +0.000 C 
ATOM     19  O   UNL     1       1.084  10.290  22.106  0.00  0.00    +0.000 OA
BRANCH  18  20
ATOM     20  O   UNL     1      -0.546   8.745  21.883  0.00  0.00    +0.000 OA
ATOM     21  H   UNL     1      -1.371   9.066  21.470  0.00  0.00    +0.000 HD
ENDBRANCH  18  20
ENDBRANCH  12  18
ENDBRANCH   7   8
ENDBRANCH   1   7
BRANCH   1  22
ATOM     22  C   UNL     1       4.353   4.066  17.979  0.00  0.00    +0.000 C 
BRANCH  22  23
ATOM     23  C   UNL     1       5.662   4.842  17.975  0.00  0.00    +0.000 A 
ATOM     24  C   UNL     1       6.322   4.976  19.223  0.00  0.00    +0.000 A 
ATOM     25  C   UNL     1       7.403   5.842  19.391  0.00  0.00    +0.000 A 
ATOM     26  C   UNL     1       7.853   6.596  18.321  0.00  0.00    +0.000 A 
ATOM     27  C   UNL     1       7.257   6.440  17.071  0.00  0.00    +0.000 A 
ATOM     28  C   UNL     1       6.177   5.550  16.865  0.00  0.00    +0.000 A 
BRANCH  28  29
ATOM     29  C   UNL     1       5.666   5.468  15.447  0.00  0.00    +0.000 C 
ATOM     30  F   UNL     1       4.841   4.428  15.145  0.00  0.00    +0.000 F 
ATOM     31  F   UNL     1       4.959   6.575  15.082  0.00  0.00    +0.000 F 
ATOM     32  F   UNL     1       6.688   5.376  14.545  0.00  0.00    +0.000 F 
ENDBRANCH  28  29
ENDBRANCH  22  23
ENDBRANCH   1  22
TORSDOF 12
ENDMDL
MODEL 5
REMARK VINA RESULT:      -7.5      2.583      4.746
REMARK  Name = 
REMARK  12 active torsions:
REMARK  status: ('A' for Active; 'I' for Inactive)
REMARK    1  A    between atoms: C_2  and  O_3
REMARK    2  A    between atoms: C_2  and  C_4
REMARK    3  A    between atoms: C_4  and  N_5
REMARK    4  A    between atoms: N_5  and  C_6
REMARK    5  A    between atoms: N_5  and  C_19
REMARK    6  A    between atoms: C_6  and  C_7
REMARK    7  A    between atoms: C_10  and  C_11
REMARK    8  A    between atoms: C_11  and  O_13
REMARK    9  A    between atoms: C_14  and  C_15
REMARK   10  A    between atoms: C_15  and  O_17
REMARK   11  A    between atoms: C_19  and  C_20
REMARK   12  A    between atoms: C_25  and  C_26
REMARK                            x       y       z     vdW  Elec       q    Type
REMARK                         _______ _______ _______ _____ _____    ______ ____
ROOT
ATOM      1  N   UNL     1       4.920   5.126  17.736  0.00  0.00    +0.000 NA
ENDROOT
BRANCH   1   2
ATOM      2  C   UNL     1       6.291   5.301  17.172  0.00  0.00    +0.000 C 
BRANCH   2   4
ATOM      3  O   UNL     1       7.381   5.310  19.349  0.00  0.00    +0.000 OA
ATOM      4  C   UNL     1       7.350   4.905  18.198  0.00  0.00    +0.000 C 
BRANCH   4   5
ATOM      5  O   UNL     1       8.262   4.041  17.689  0.00  0.00    +0.000 OA
ATOM      6  H   UNL     1       7.961   3.120  17.858  0.00  0.00    +0.000 HD
ENDBRANCH   4   5
ENDBRANCH   2   4
ENDBRANCH   1   2
BRANCH   1   7
ATOM      7  C   UNL     1       4.039   6.200  17.163  0.00  0.00    +0.000 C 
BRANCH   7   8
ATOM      8  C   UNL     1       3.125   6.861  18.180  0.00  0.00    +0.000 A 
ATOM      9  C   UNL     1       2.939   6.298  19.443  0.00  0.00    +0.000 A 
ATOM     10  C   UNL     1       2.187   6.970  20.412  0.00  0.00    +0.000 A 
ATOM     11  C   UNL     1       1.602   8.233  20.170  0.00  0.00    +0.000 A 
ATOM     12  C   UNL     1       1.745   8.769  18.877  0.00  0.00    +0.000 A 
ATOM     13  C   UNL     1       2.466   8.059  17.887  0.00  0.00    +0.000 A 
BRANCH  11  14
ATOM     14  C   UNL     1       0.999   8.867  21.392  0.00  0.00    +0.000 C 
ATOM     15  O   UNL     1      -0.216   8.989  21.488  0.00  0.00    +0.000 OA
BRANCH  14  16
ATOM     16  O   UNL     1       1.794   9.233  22.411  0.00  0.00    +0.000 OA
ATOM     17  H   UNL     1       1.798   8.669  23.219  0.00  0.00    +0.000 HD
ENDBRANCH  14  16
ENDBRANCH  11  14
BRANCH  12  18
ATOM     18  C   UNL     1       1.139  10.051  18.468  0.00  0.00    +0.000 C 
ATOM     19  O   UNL     1       1.658  11.122  18.738  0.00  0.00    +0.000 OA
BRANCH  18  20
ATOM     20  O   UNL     1       0.015   9.945  17.736  0.00  0.00    +0.000 OA
ATOM     21  H   UNL     1       0.122   9.814  16.773  0.00  0.00    +0.000 HD
ENDBRANCH  18  20
ENDBRANCH  12  18
ENDBRANCH   7   8
ENDBRANCH   1   7
BRANCH   1  22
ATOM     22  C   UNL     1       4.380   3.804  17.343  0.00  0.00    +0.000 C 
BRANCH  22  23
ATOM     23  C   UNL     1       3.154   3.291  18.085  0.00  0.00    +0.000 A 
ATOM     24  C   UNL     1       1.894   3.584  17.505  0.00  0.00    +0.000 A 
ATOM     25  C   UNL     1       0.700   3.364  18.193  0.00  0.00    +0.000 A 
ATOM     26  C   UNL     1       0.732   2.847  19.477  0.00  0.00    +0.000 A 
ATOM     27  C   UNL     1       1.955   2.497  20.047  0.00  0.00    +0.000 A 
ATOM     28  C   UNL     1       3.178   2.685  19.362  0.00  0.00    +0.000 A 
BRANCH  28  29
ATOM     29  C   UNL     1       4.412   2.223  20.100  0.00  0.00    +0.000 C 
ATOM     30  F   UNL     1       5.041   1.114  19.623  0.00  0.00    +0.000 F 
ATOM     31  F   UNL     1       5.388   3.175  20.131  0.00  0.00    +0.000 F 
ATOM     32  F   UNL     1       4.141   1.936  21.408  0.00  0.00    +0.000 F 
ENDBRANCH  28  29
ENDBRANCH  22  23
ENDBRANCH   1  22
TORSDOF 12
ENDMDL
MODEL 6
REMARK VINA RESULT:      -7.5      1.747      2.464
REMARK  Name = 
REMARK  12 active torsions:
REMARK  status: ('A' for Active; 'I' for Inactive)
REMARK    1  A    between atoms: C_2  and  O_3
REMARK    2  A    between atoms: C_2  and  C_4
REMARK    3  A    between atoms: C_4  and  N_5
REMARK    4  A    between atoms: N_5  and  C_6
REMARK    5  A    between atoms: N_5  and  C_19
REMARK    6  A    between atoms: C_6  and  C_7
REMARK    7  A    between atoms: C_10  and  C_11
REMARK    8  A    between atoms: C_11  and  O_13
REMARK    9  A    between atoms: C_14  and  C_15
REMARK   10  A    between atoms: C_15  and  O_17
REMARK   11  A    between atoms: C_19  and  C_20
REMARK   12  A    between atoms: C_25  and  C_26
REMARK                            x       y       z     vdW  Elec       q    Type
REMARK                         _______ _______ _______ _____ _____    ______ ____
ROOT
ATOM      1  N   UNL     1       3.599   4.768  18.562  0.00  0.00    +0.000 NA
ENDROOT
BRANCH   1   2
ATOM      2  C   UNL     1       2.805   3.577  18.987  0.00  0.00    +0.000 C 
BRANCH   2   4
ATOM      3  O   UNL     1       1.142   4.047  17.272  0.00  0.00    +0.000 OA
ATOM      4  C   UNL     1       1.756   3.226  17.935  0.00  0.00    +0.000 C 
BRANCH   4   5
ATOM      5  O   UNL     1       1.579   1.887  17.810  0.00  0.00    +0.000 OA
ATOM      6  H   UNL     1       1.901   1.444  18.627  0.00  0.00    +0.000 HD
ENDBRANCH   4   5
ENDBRANCH   2   4
ENDBRANCH   1   2
BRANCH   1   7
ATOM      7  C   UNL     1       3.597   5.757  19.694  0.00  0.00    +0.000 C 
BRANCH   7   8
ATOM      8  C   UNL     1       2.784   7.010  19.421  0.00  0.00    +0.000 A 
ATOM      9  C   UNL     1       2.720   7.554  18.137  0.00  0.00    +0.000 A 
ATOM     10  C   UNL     1       1.880   8.640  17.870  0.00  0.00    +0.000 A 
ATOM     11  C   UNL     1       1.061   9.221  18.864  0.00  0.00    +0.000 A 
ATOM     12  C   UNL     1       1.172   8.706  20.169  0.00  0.00    +0.000 A 
ATOM     13  C   UNL     1       2.061   7.639  20.441  0.00  0.00    +0.000 A 
BRANCH  11  14
ATOM     14  C   UNL     1       0.099  10.247  18.335  0.00  0.00    +0.000 C 
ATOM     15  O   UNL     1       0.155  11.405  18.730  0.00  0.00    +0.000 OA
BRANCH  14  16
ATOM     16  O   UNL     1      -0.773   9.906  17.372  0.00  0.00    +0.000 OA
ATOM     17  H   UNL     1      -0.779   8.968  17.066  0.00  0.00    +0.000 HD
ENDBRANCH  14  16
ENDBRANCH  11  14
BRANCH  12  18
ATOM     18  C   UNL     1       0.419   9.253  21.314  0.00  0.00    +0.000 C 
ATOM     19  O   UNL     1      -0.467   8.619  21.863  0.00  0.00    +0.000 OA
BRANCH  18  20
ATOM     20  O   UNL     1       0.822  10.466  21.735  0.00  0.00    +0.000 OA
ATOM     21  H   UNL     1       0.275  10.905  22.415  0.00  0.00    +0.000 HD
ENDBRANCH  18  20
ENDBRANCH  12  18
ENDBRANCH   7   8
ENDBRANCH   1   7
BRANCH   1  22
ATOM     22  C   UNL     1       4.996   4.367  18.280  0.00  0.00    +0.000 C 
BRANCH  22  23
ATOM     23  C   UNL     1       5.550   4.656  16.893  0.00  0.00    +0.000 A 
ATOM     24  C   UNL     1       5.191   3.748  15.865  0.00  0.00    +0.000 A 
ATOM     25  C   UNL     1       5.806   3.777  14.613  0.00  0.00    +0.000 A 
ATOM     26  C   UNL     1       6.794   4.711  14.353  0.00  0.00    +0.000 A 
ATOM     27  C   UNL     1       7.124   5.651  15.328  0.00  0.00    +0.000 A 
ATOM     28  C   UNL     1       6.498   5.662  16.597  0.00  0.00    +0.000 A 
BRANCH  28  29
ATOM     29  C   UNL     1       6.941   6.765  17.528  0.00  0.00    +0.000 C 
ATOM     30  F   UNL     1       7.318   6.401  18.785  0.00  0.00    +0.000 F 
ATOM     31  F   UNL     1       8.010   7.458  17.044  0.00  0.00    +0.000 F 
ATOM     32  F   UNL     1       5.957   7.695  17.714  0.00  0.00    +0.000 F 
ENDBRANCH  28  29
ENDBRANCH  22  23
ENDBRANCH   1  22
TORSDOF 12
ENDMDL
MODEL 7
REMARK VINA RESULT:      -7.5      1.709      2.379
REMARK  Name = 
REMARK  12 active torsions:
REMARK  status: ('A' for Active; 'I' for Inactive)
REMARK    1  A    between atoms: C_2  and  O_3
REMARK    2  A    between atoms: C_2  and  C_4
REMARK    3  A    between atoms: C_4  and  N_5
REMARK    4  A    between atoms: N_5  and  C_6
REMARK    5  A    between atoms: N_5  and  C_19
REMARK    6  A    between atoms: C_6  and  C_7
REMARK    7  A    between atoms: C_10  and  C_11
REMARK    8  A    between atoms: C_11  and  O_13
REMARK    9  A    between atoms: C_14  and  C_15
REMARK   10  A    between atoms: C_15  and  O_17
REMARK   11  A    between atoms: C_19  and  C_20
REMARK   12  A    between atoms: C_25  and  C_26
REMARK                            x       y       z     vdW  Elec       q    Type
REMARK                         _______ _______ _______ _____ _____    ______ ____
ROOT
ATOM      1  N   UNL     1       3.280   4.302  18.836  0.00  0.00    +0.000 NA
ENDROOT
BRANCH   1   2
ATOM      2  C   UNL     1       2.455   3.109  19.188  0.00  0.00    +0.000 C 
BRANCH   2   4
ATOM      3  O   UNL     1       0.291   2.246  18.481  0.00  0.00    +0.000 OA
ATOM      4  C   UNL     1       1.187   3.062  18.338  0.00  0.00    +0.000 C 
BRANCH   4   5
ATOM      5  O   UNL     1       1.160   4.040  17.399  0.00  0.00    +0.000 OA
ATOM      6  H   UNL     1       1.259   3.634  16.509  0.00  0.00    +0.000 HD
ENDBRANCH   4   5
ENDBRANCH   2   4
ENDBRANCH   1   2
BRANCH   1   7
ATOM      7  C   UNL     1       3.239   5.256  19.997  0.00  0.00    +0.000 C 
BRANCH   7   8
ATOM      8  C   UNL     1       2.663   6.620  19.658  0.00  0.00    +0.000 A 
ATOM      9  C   UNL     1       2.797   7.152  18.375  0.00  0.00    +0.000 A 
ATOM     10  C   UNL     1       2.168   8.355  18.039  0.00  0.00    +0.000 A 
ATOM     11  C   UNL     1       1.371   9.071  18.961  0.00  0.00    +0.000 A 
ATOM     12  C   UNL     1       1.286   8.559  20.269  0.00  0.00    +0.000 A 
ATOM     13  C   UNL     1       1.966   7.367  20.613  0.00  0.00    +0.000 A 
BRANCH  11  14
ATOM     14  C   UNL     1       0.635  10.232  18.353  0.00  0.00    +0.000 C 
ATOM     15  O   UNL     1       1.059  11.372  18.492  0.00  0.00    +0.000 OA
BRANCH  14  16
ATOM     16  O   UNL     1      -0.451  10.006  17.594  0.00  0.00    +0.000 OA
ATOM     17  H   UNL     1      -0.690  10.683  16.918  0.00  0.00    +0.000 HD
ENDBRANCH  14  16
ENDBRANCH  11  14
BRANCH  12  18
ATOM     18  C   UNL     1       0.536   9.233  21.346  0.00  0.00    +0.000 C 
ATOM     19  O   UNL     1       0.916   9.210  22.506  0.00  0.00    +0.000 OA
BRANCH  18  20
ATOM     20  O   UNL     1      -0.554   9.914  20.945  0.00  0.00    +0.000 OA
ATOM     21  H   UNL     1      -1.359   9.393  20.755  0.00  0.00    +0.000 HD
ENDBRANCH  18  20
ENDBRANCH  12  18
ENDBRANCH   7   8
ENDBRANCH   1   7
BRANCH   1  22
ATOM     22  C   UNL     1       4.684   3.891  18.605  0.00  0.00    +0.000 C 
BRANCH  22  23
ATOM     23  C   UNL     1       5.381   4.418  17.359  0.00  0.00    +0.000 A 
ATOM     24  C   UNL     1       4.791   4.083  16.114  0.00  0.00    +0.000 A 
ATOM     25  C   UNL     1       5.447   4.315  14.905  0.00  0.00    +0.000 A 
ATOM     26  C   UNL     1       6.708   4.887  14.906  0.00  0.00    +0.000 A 
ATOM     27  C   UNL     1       7.284   5.278  16.113  0.00  0.00    +0.000 A 
ATOM     28  C   UNL     1       6.631   5.079  17.352  0.00  0.00    +0.000 A 
BRANCH  28  29
ATOM     29  C   UNL     1       7.370   5.589  18.565  0.00  0.00    +0.000 C 
ATOM     30  F   UNL     1       8.374   4.808  19.052  0.00  0.00    +0.000 F 
ATOM     31  F   UNL     1       7.962   6.798  18.345  0.00  0.00    +0.000 F 
ATOM     32  F   UNL     1       6.531   5.781  19.626  0.00  0.00    +0.000 F 
ENDBRANCH  28  29
ENDBRANCH  22  23
ENDBRANCH   1  22
TORSDOF 12
ENDMDL
MODEL 8
REMARK VINA RESULT:      -7.4      2.189      4.028
REMARK  Name = 
REMARK  12 active torsions:
REMARK  status: ('A' for Active; 'I' for Inactive)
REMARK    1  A    between atoms: C_2  and  O_3
REMARK    2  A    between atoms: C_2  and  C_4
REMARK    3  A    between atoms: C_4  and  N_5
REMARK    4  A    between atoms: N_5  and  C_6
REMARK    5  A    between atoms: N_5  and  C_19
REMARK    6  A    between atoms: C_6  and  C_7
REMARK    7  A    between atoms: C_10  and  C_11
REMARK    8  A    between atoms: C_11  and  O_13
REMARK    9  A    between atoms: C_14  and  C_15
REMARK   10  A    between atoms: C_15  and  O_17
REMARK   11  A    between atoms: C_19  and  C_20
REMARK   12  A    between atoms: C_25  and  C_26
REMARK                            x       y       z     vdW  Elec       q    Type
REMARK                         _______ _______ _______ _____ _____    ______ ____
ROOT
ATOM      1  N   UNL     1       4.745   5.656  18.496  0.00  0.00    +0.000 NA
ENDROOT
BRANCH   1   2
ATOM      2  C   UNL     1       5.646   5.434  17.326  0.00  0.00    +0.000 C 
BRANCH   2   4
ATOM      3  O   UNL     1       6.703   7.614  17.094  0.00  0.00    +0.000 OA
ATOM      4  C   UNL     1       5.966   6.757  16.635  0.00  0.00    +0.000 C 
BRANCH   4   5
ATOM      5  O   UNL     1       5.341   6.877  15.438  0.00  0.00    +0.000 OA
ATOM      6  H   UNL     1       5.384   7.815  15.145  0.00  0.00    +0.000 HD
ENDBRANCH   4   5
ENDBRANCH   2   4
ENDBRANCH   1   2
BRANCH   1   7
ATOM      7  C   UNL     1       3.346   5.845  17.978  0.00  0.00    +0.000 C 
BRANCH   7   8
ATOM      8  C   UNL     1       2.708   7.162  18.382  0.00  0.00    +0.000 A 
ATOM      9  C   UNL     1       2.601   8.212  17.469  0.00  0.00    +0.000 A 
ATOM     10  C   UNL     1       1.912   9.380  17.813  0.00  0.00    +0.000 A 
ATOM     11  C   UNL     1       1.292   9.546  19.072  0.00  0.00    +0.000 A 
ATOM     12  C   UNL     1       1.452   8.507  20.008  0.00  0.00    +0.000 A 
ATOM     13  C   UNL     1       2.193   7.350  19.669  0.00  0.00    +0.000 A 
BRANCH  11  14
ATOM     14  C   UNL     1       0.448  10.785  19.173  0.00  0.00    +0.000 C 
ATOM     15  O   UNL     1       0.918  11.877  18.877  0.00  0.00    +0.000 OA
BRANCH  14  16
ATOM     16  O   UNL     1      -0.845  10.682  19.520  0.00  0.00    +0.000 OA
ATOM     17  H   UNL     1      -1.520  10.717  18.802  0.00  0.00    +0.000 HD
ENDBRANCH  14  16
ENDBRANCH  11  14
BRANCH  12  18
ATOM     18  C   UNL     1       0.907   8.572  21.377  0.00  0.00    +0.000 C 
ATOM     19  O   UNL     1      -0.280   8.400  21.606  0.00  0.00    +0.000 OA
BRANCH  18  20
ATOM     20  O   UNL     1       1.818   8.775  22.347  0.00  0.00    +0.000 OA
ATOM     21  H   UNL     1       2.170   9.682  22.443  0.00  0.00    +0.000 HD
ENDBRANCH  18  20
ENDBRANCH  12  18
ENDBRANCH   7   8
ENDBRANCH   1   7
BRANCH   1  22
ATOM     22  C   UNL     1       4.770   4.469  19.381  0.00  0.00    +0.000 C 
BRANCH  22  23
ATOM     23  C   UNL     1       3.435   3.863  19.792  0.00  0.00    +0.000 A 
ATOM     24  C   UNL     1       2.812   4.422  20.936  0.00  0.00    +0.000 A 
ATOM     25  C   UNL     1       1.708   3.817  21.538  0.00  0.00    +0.000 A 
ATOM     26  C   UNL     1       1.198   2.641  21.016  0.00  0.00    +0.000 A 
ATOM     27  C   UNL     1       1.758   2.103  19.859  0.00  0.00    +0.000 A 
ATOM     28  C   UNL     1       2.861   2.709  19.213  0.00  0.00    +0.000 A 
BRANCH  28  29
ATOM     29  C   UNL     1       3.329   2.024  17.951  0.00  0.00    +0.000 C 
ATOM     30  F   UNL     1       4.250   2.681  17.194  0.00  0.00    +0.000 F 
ATOM     31  F   UNL     1       3.901   0.811  18.197  0.00  0.00    +0.000 F 
ATOM     32  F   UNL     1       2.292   1.771  17.098  0.00  0.00    +0.000 F 
ENDBRANCH  28  29
ENDBRANCH  22  23
ENDBRANCH   1  22
TORSDOF 12
ENDMDL
MODEL 9
REMARK VINA RESULT:      -7.3      2.377      4.105
REMARK  Name = 
REMARK  12 active torsions:
REMARK  status: ('A' for Active; 'I' for Inactive)
REMARK    1  A    between atoms: C_2  and  O_3
REMARK    2  A    between atoms: C_2  and  C_4
REMARK    3  A    between atoms: C_4  and  N_5
REMARK    4  A    between atoms: N_5  and  C_6
REMARK    5  A    between atoms: N_5  and  C_19
REMARK    6  A    between atoms: C_6  and  C_7
REMARK    7  A    between atoms: C_10  and  C_11
REMARK    8  A    between atoms: C_11  and  O_13
REMARK    9  A    between atoms: C_14  and  C_15
REMARK   10  A    between atoms: C_15  and  O_17
REMARK   11  A    between atoms: C_19  and  C_20
REMARK   12  A    between atoms: C_25  and  C_26
REMARK                            x       y       z     vdW  Elec       q    Type
REMARK                         _______ _______ _______ _____ _____    ______ ____
ROOT
ATOM      1  N   UNL     1       4.223   6.223  18.346  0.00  0.00    +0.000 NA
ENDROOT
BRANCH   1   2
ATOM      2  C   UNL     1       4.855   5.998  17.013  0.00  0.00    +0.000 C 
BRANCH   2   4
ATOM      3  O   UNL     1       7.175   5.288  17.218  0.00  0.00    +0.000 OA
ATOM      4  C   UNL     1       6.367   6.194  17.094  0.00  0.00    +0.000 C 
BRANCH   4   5
ATOM      5  O   UNL     1       6.722   7.500  17.006  0.00  0.00    +0.000 OA
ATOM      6  H   UNL     1       5.911   8.048  16.912  0.00  0.00    +0.000 HD
ENDBRANCH   4   5
ENDBRANCH   2   4
ENDBRANCH   1   2
BRANCH   1   7
ATOM      7  C   UNL     1       2.744   6.394  18.138  0.00  0.00    +0.000 C 
BRANCH   7   8
ATOM      8  C   UNL     1       2.194   7.713  18.650  0.00  0.00    +0.000 A 
ATOM      9  C   UNL     1       2.008   8.792  17.784  0.00  0.00    +0.000 A 
ATOM     10  C   UNL     1       1.397   9.965  18.238  0.00  0.00    +0.000 A 
ATOM     11  C   UNL     1       0.935  10.109  19.566  0.00  0.00    +0.000 A 
ATOM     12  C   UNL     1       1.176   9.040  20.448  0.00  0.00    +0.000 A 
ATOM     13  C   UNL     1       1.840   7.876  19.993  0.00  0.00    +0.000 A 
BRANCH  11  14
ATOM     14  C   UNL     1       0.143  11.365  19.800  0.00  0.00    +0.000 C 
ATOM     15  O   UNL     1       0.599  12.451  19.466  0.00  0.00    +0.000 OA
BRANCH  14  16
ATOM     16  O   UNL     1      -1.097  11.283  20.309  0.00  0.00    +0.000 OA
ATOM     17  H   UNL     1      -1.500  12.104  20.677  0.00  0.00    +0.000 HD
ENDBRANCH  14  16
ENDBRANCH  11  14
BRANCH  12  18
ATOM     18  C   UNL     1       0.798   9.077  21.874  0.00  0.00    +0.000 C 
ATOM     19  O   UNL     1       1.592   9.406  22.741  0.00  0.00    +0.000 OA
BRANCH  18  20
ATOM     20  O   UNL     1      -0.489   8.778  22.133  0.00  0.00    +0.000 OA
ATOM     21  H   UNL     1      -0.826   7.929  21.788  0.00  0.00    +0.000 HD
ENDBRANCH  18  20
ENDBRANCH  12  18
ENDBRANCH   7   8
ENDBRANCH   1   7
BRANCH   1  22
ATOM     22  C   UNL     1       4.450   5.045  19.215  0.00  0.00    +0.000 C 
BRANCH  22  23
ATOM     23  C   UNL     1       3.232   4.251  19.665  0.00  0.00    +0.000 A 
ATOM     24  C   UNL     1       2.729   4.543  20.958  0.00  0.00    +0.000 A 
ATOM     25  C   UNL     1       1.765   3.740  21.568  0.00  0.00    +0.000 A 
ATOM     26  C   UNL     1       1.278   2.626  20.906  0.00  0.00    +0.000 A 
ATOM     27  C   UNL     1       1.716   2.351  19.612  0.00  0.00    +0.000 A 
ATOM     28  C   UNL     1       2.673   3.162  18.959  0.00  0.00    +0.000 A 
BRANCH  28  29
ATOM     29  C   UNL     1       3.016   2.751  17.547  0.00  0.00    +0.000 C 
ATOM     30  F   UNL     1       4.337   2.678  17.227  0.00  0.00    +0.000 F 
ATOM     31  F   UNL     1       2.524   1.520  17.228  0.00  0.00    +0.000 F 
ATOM     32  F   UNL     1       2.480   3.607  16.627  0.00  0.00    +0.000 F 
ENDBRANCH  28  29
ENDBRANCH  22  23
ENDBRANCH   1  22
TORSDOF 12
ENDMDL
