MODEL 1
REMARK VINA RESULT:      -8.4      0.000      0.000
REMARK  Name = 
REMARK  5 active torsions:
REMARK  status: ('A' for Active; 'I' for Inactive)
REMARK    1  A    between atoms: C_1  and  N_2
REMARK    2  A    between atoms: N_2  and  C_3
REMARK    3  A    between atoms: C_3  and  C_4
REMARK    4  A    between atoms: C_10  and  C_12
REMARK    5  A    between atoms: C_16  and  C_17
REMARK                            x       y       z     vdW  Elec       q    Type
REMARK                         _______ _______ _______ _____ _____    ______ ____
ROOT
ATOM      1  C   UNL     1       4.399   4.938  18.344  0.00  0.00    +0.000 A 
ATOM      2  C   UNL     1       3.560   3.953  17.809  0.00  0.00    +0.000 A 
ATOM      3  C   UNL     1       2.212   4.223  17.589  0.00  0.00    +0.000 A 
ATOM      4  C   UNL     1       1.693   5.472  17.929  0.00  0.00    +0.000 A 
ATOM      5  C   UNL     1       2.510   6.495  18.447  0.00  0.00    +0.000 A 
ATOM      6  C   UNL     1       3.883   6.211  18.595  0.00  0.00    +0.000 A 
ENDROOT
BRANCH   5   7
ATOM      7  C   UNL     1       1.955   7.813  18.840  0.00  0.00    +0.000 A 
ATOM      8  C   UNL     1       1.743   8.833  17.889  0.00  0.00    +0.000 A 
ATOM      9  C   UNL     1       1.176  10.072  18.230  0.00  0.00    +0.000 A 
ATOM     10  C   UNL     1       0.822  10.305  19.562  0.00  0.00    +0.000 A 
ATOM     11  N   UNL     1       0.258  11.412  20.147  0.00  0.00    +0.000 NA
ATOM     12  C   UNL     1       0.138  11.105  21.418  0.00  0.00    +0.000 A 
ATOM     13  N   UNL     1       0.599   9.850  21.682  0.00  0.00    +0.000 N 
ATOM     14  C   UNL     1       1.043   9.306  20.501  0.00  0.00    +0.000 A 
ATOM     15  C   UNL     1       1.594   8.062  20.184  0.00  0.00    +0.000 A 
ATOM     16  H   UNL     1       0.612   9.394  22.584  0.00  0.00    +0.000 HD
ENDBRANCH   5   7
BRANCH   1  19
ATOM     17  C   UNL     1       8.122   4.390  17.760  0.00  0.00    +0.000 C 
ATOM     18  N   UNL     1       6.770   4.839  17.462  0.00  0.00    +0.000 N 
ATOM     19  C   UNL     1       5.839   4.620  18.487  0.00  0.00    +0.000 C 
ATOM     20  O   UNL     1       6.186   4.169  19.581  0.00  0.00    +0.000 OA
BRANCH  18  21
ATOM     21  C   UNL     1       6.564   5.549  16.190  0.00  0.00    +0.000 C 
BRANCH  21  22
ATOM     22  C   UNL     1       6.881   4.750  14.914  0.00  0.00    +0.000 C 
ATOM     23  C   UNL     1       5.644   4.213  14.189  0.00  0.00    +0.000 C 
ATOM     24  C   UNL     1       6.076   3.468  12.923  0.00  0.00    +0.000 C 
ATOM     25  C   UNL     1       6.967   4.351  12.054  0.00  0.00    +0.000 C 
ATOM     26  C   UNL     1       8.098   4.954  12.878  0.00  0.00    +0.000 C 
ATOM     27  O   UNL     1       7.591   5.636  14.025  0.00  0.00    +0.000 OA
ENDBRANCH  21  22
ENDBRANCH  18  21
ENDBRANCH   1  19
TORSDOF 4
ENDMDL
MODEL 2
REMARK VINA RESULT:      -8.2      1.070      1.596
REMARK  Name = 
REMARK  5 active torsions:
REMARK  status: ('A' for Active; 'I' for Inactive)
REMARK    1  A    between atoms: C_1  and  N_2
REMARK    2  A    between atoms: N_2  and  C_3
REMARK    3  A    between atoms: C_3  and  C_4
REMARK    4  A    between atoms: C_10  and  C_12
REMARK    5  A    between atoms: C_16  and  C_17
REMARK                            x       y       z     vdW  Elec       q    Type
REMARK                         _______ _______ _______ _____ _____    ______ ____
ROOT
ATOM      1  C   UNL     1       4.535   4.980  19.170  0.00  0.00    +0.000 A 
ATOM      2  C   UNL     1       3.801   3.800  19.344  0.00  0.00    +0.000 A 
ATOM      3  C   UNL     1       2.438   3.857  19.622  0.00  0.00    +0.000 A 
ATOM      4  C   UNL     1       1.809   5.095  19.755  0.00  0.00    +0.000 A 
ATOM      5  C   UNL     1       2.510   6.302  19.565  0.00  0.00    +0.000 A 
ATOM      6  C   UNL     1       3.873   6.209  19.218  0.00  0.00    +0.000 A 
ENDROOT
BRANCH   5   7
ATOM      7  C   UNL     1       1.853   7.620  19.737  0.00  0.00    +0.000 A 
ATOM      8  C   UNL     1       1.234   7.979  20.953  0.00  0.00    +0.000 A 
ATOM      9  C   UNL     1       0.647   9.238  21.155  0.00  0.00    +0.000 A 
ATOM     10  C   UNL     1       0.665  10.163  20.107  0.00  0.00    +0.000 A 
ATOM     11  N   UNL     1       0.170  11.443  20.048  0.00  0.00    +0.000 NA
ATOM     12  C   UNL     1       0.451  11.864  18.836  0.00  0.00    +0.000 A 
ATOM     13  N   UNL     1       1.105  10.914  18.108  0.00  0.00    +0.000 N 
ATOM     14  C   UNL     1       1.262   9.806  18.905  0.00  0.00    +0.000 A 
ATOM     15  C   UNL     1       1.863   8.564  18.685  0.00  0.00    +0.000 A 
ATOM     16  H   UNL     1       1.422  11.005  17.153  0.00  0.00    +0.000 HD
ENDBRANCH   5   7
BRANCH   1  19
ATOM     17  C   UNL     1       7.830   4.466  17.333  0.00  0.00    +0.000 C 
ATOM     18  N   UNL     1       6.393   4.637  17.485  0.00  0.00    +0.000 N 
ATOM     19  C   UNL     1       5.965   4.859  18.801  0.00  0.00    +0.000 C 
ATOM     20  O   UNL     1       6.773   4.991  19.724  0.00  0.00    +0.000 OA
BRANCH  18  21
ATOM     21  C   UNL     1       5.585   4.660  16.256  0.00  0.00    +0.000 C 
BRANCH  21  22
ATOM     22  C   UNL     1       6.323   4.288  14.958  0.00  0.00    +0.000 C 
ATOM     23  C   UNL     1       5.406   3.780  13.842  0.00  0.00    +0.000 C 
ATOM     24  C   UNL     1       6.240   3.474  12.594  0.00  0.00    +0.000 C 
ATOM     25  C   UNL     1       7.085   4.682  12.200  0.00  0.00    +0.000 C 
ATOM     26  C   UNL     1       7.865   5.209  13.397  0.00  0.00    +0.000 C 
ATOM     27  O   UNL     1       6.998   5.476  14.500  0.00  0.00    +0.000 OA
ENDBRANCH  21  22
ENDBRANCH  18  21
ENDBRANCH   1  19
TORSDOF 4
ENDMDL
MODEL 3
REMARK VINA RESULT:      -8.1      1.993      3.493
REMARK  Name = 
REMARK  5 active torsions:
REMARK  status: ('A' for Active; 'I' for Inactive)
REMARK    1  A    between atoms: C_1  and  N_2
REMARK    2  A    between atoms: N_2  and  C_3
REMARK    3  A    between atoms: C_3  and  C_4
REMARK    4  A    between atoms: C_10  and  C_12
REMARK    5  A    between atoms: C_16  and  C_17
REMARK                            x       y       z     vdW  Elec       q    Type
REMARK                         _______ _______ _______ _____ _____    ______ ____
ROOT
ATOM      1  C   UNL     1       2.294   6.248  19.394  0.00  0.00    +0.000 A 
ATOM      2  C   UNL     1       2.736   6.717  18.151  0.00  0.00    +0.000 A 
ATOM      3  C   UNL     1       2.538   8.047  17.792  0.00  0.00    +0.000 A 
ATOM      4  C   UNL     1       1.873   8.908  18.666  0.00  0.00    +0.000 A 
ATOM      5  C   UNL     1       1.434   8.478  19.933  0.00  0.00    +0.000 A 
ATOM      6  C   UNL     1       1.709   7.142  20.293  0.00  0.00    +0.000 A 
ENDROOT
BRANCH   5   7
ATOM      7  C   UNL     1       0.698   9.381  20.851  0.00  0.00    +0.000 A 
ATOM      8  C   UNL     1       0.086   8.894  22.025  0.00  0.00    +0.000 A 
ATOM      9  C   UNL     1      -0.576   9.737  22.932  0.00  0.00    +0.000 A 
ATOM     10  C   UNL     1      -0.643  11.104  22.652  0.00  0.00    +0.000 A 
ATOM     11  N   UNL     1      -1.221  12.126  23.365  0.00  0.00    +0.000 NA
ATOM     12  C   UNL     1      -0.996  13.209  22.657  0.00  0.00    +0.000 A 
ATOM     13  N   UNL     1      -0.300  12.934  21.517  0.00  0.00    +0.000 N 
ATOM     14  C   UNL     1      -0.053  11.582  21.490  0.00  0.00    +0.000 A 
ATOM     15  C   UNL     1       0.622  10.766  20.579  0.00  0.00    +0.000 A 
ATOM     16  H   UNL     1      -0.013  13.602  20.815  0.00  0.00    +0.000 HD
ENDBRANCH   5   7
BRANCH   1  19
ATOM     17  C   UNL     1       3.965   2.873  19.958  0.00  0.00    +0.000 C 
ATOM     18  N   UNL     1       3.881   4.289  19.634  0.00  0.00    +0.000 N 
ATOM     19  C   UNL     1       2.598   4.842  19.753  0.00  0.00    +0.000 C 
ATOM     20  O   UNL     1       1.654   4.182  20.193  0.00  0.00    +0.000 OA
BRANCH  18  21
ATOM     21  C   UNL     1       5.140   4.985  19.327  0.00  0.00    +0.000 C 
BRANCH  21  22
ATOM     22  C   UNL     1       5.781   4.648  17.970  0.00  0.00    +0.000 C 
ATOM     23  C   UNL     1       4.793   4.122  16.925  0.00  0.00    +0.000 C 
ATOM     24  C   UNL     1       5.532   3.852  15.611  0.00  0.00    +0.000 C 
ATOM     25  C   UNL     1       6.305   5.089  15.164  0.00  0.00    +0.000 C 
ATOM     26  C   UNL     1       7.163   5.631  16.300  0.00  0.00    +0.000 C 
ATOM     27  O   UNL     1       6.381   5.861  17.472  0.00  0.00    +0.000 OA
ENDBRANCH  21  22
ENDBRANCH  18  21
ENDBRANCH   1  19
TORSDOF 4
ENDMDL
MODEL 4
REMARK VINA RESULT:      -8.0      4.425      8.952
REMARK  Name = 
REMARK  5 active torsions:
REMARK  status: ('A' for Active; 'I' for Inactive)
REMARK    1  A    between atoms: C_1  and  N_2
REMARK    2  A    between atoms: N_2  and  C_3
REMARK    3  A    between atoms: C_3  and  C_4
REMARK    4  A    between atoms: C_10  and  C_12
REMARK    5  A    between atoms: C_16  and  C_17
REMARK                            x       y       z     vdW  Elec       q    Type
REMARK                         _______ _______ _______ _____ _____    ______ ____
ROOT
ATOM      1  C   UNL     1       0.043  11.003  21.259  0.00  0.00    +0.000 A 
ATOM      2  C   UNL     1      -0.578  10.446  22.384  0.00  0.00    +0.000 A 
ATOM      3  C   UNL     1      -0.413   9.095  22.680  0.00  0.00    +0.000 A 
ATOM      4  C   UNL     1       0.352   8.291  21.836  0.00  0.00    +0.000 A 
ATOM      5  C   UNL     1       1.010   8.820  20.709  0.00  0.00    +0.000 A 
ATOM      6  C   UNL     1       0.878  10.204  20.475  0.00  0.00    +0.000 A 
ENDROOT
BRANCH   5   7
ATOM      7  C   UNL     1       1.797   7.961  19.791  0.00  0.00    +0.000 A 
ATOM      8  C   UNL     1       2.251   8.442  18.545  0.00  0.00    +0.000 A 
ATOM      9  C   UNL     1       3.037   7.663  17.680  0.00  0.00    +0.000 A 
ATOM     10  C   UNL     1       3.368   6.361  18.064  0.00  0.00    +0.000 A 
ATOM     11  N   UNL     1       4.114   5.409  17.412  0.00  0.00    +0.000 NA
ATOM     12  C   UNL     1       4.112   4.366  18.210  0.00  0.00    +0.000 A 
ATOM     13  N   UNL     1       3.399   4.599  19.348  0.00  0.00    +0.000 N 
ATOM     14  C   UNL     1       2.911   5.882  19.284  0.00  0.00    +0.000 A 
ATOM     15  C   UNL     1       2.138   6.642  20.166  0.00  0.00    +0.000 A 
ATOM     16  H   UNL     1       3.254   3.949  20.108  0.00  0.00    +0.000 HD
ENDBRANCH   5   7
BRANCH   1  19
ATOM     17  C   UNL     1      -1.116  14.455  20.147  0.00  0.00    +0.000 C 
ATOM     18  N   UNL     1      -1.185  13.013  20.332  0.00  0.00    +0.000 N 
ATOM     19  C   UNL     1      -0.106  12.460  21.036  0.00  0.00    +0.000 C 
ATOM     20  O   UNL     1       0.769  13.174  21.532  0.00  0.00    +0.000 OA
BRANCH  18  21
ATOM     21  C   UNL     1      -2.401  12.332  19.861  0.00  0.00    +0.000 C 
BRANCH  21  22
ATOM     22  C   UNL     1      -2.334  11.738  18.444  0.00  0.00    +0.000 C 
ATOM     23  C   UNL     1      -1.821  10.296  18.394  0.00  0.00    +0.000 C 
ATOM     24  C   UNL     1      -1.829   9.800  16.945  0.00  0.00    +0.000 C 
ATOM     25  C   UNL     1      -3.207   9.988  16.318  0.00  0.00    +0.000 C 
ATOM     26  C   UNL     1      -3.705  11.412  16.525  0.00  0.00    +0.000 C 
ATOM     27  O   UNL     1      -3.672  11.773  17.906  0.00  0.00    +0.000 OA
ENDBRANCH  21  22
ENDBRANCH  18  21
ENDBRANCH   1  19
TORSDOF 4
ENDMDL
MODEL 5
REMARK VINA RESULT:      -8.0      4.484      6.622
REMARK  Name = 
REMARK  5 active torsions:
REMARK  status: ('A' for Active; 'I' for Inactive)
REMARK    1  A    between atoms: C_1  and  N_2
REMARK    2  A    between atoms: N_2  and  C_3
REMARK    3  A    between atoms: C_3  and  C_4
REMARK    4  A    between atoms: C_10  and  C_12
REMARK    5  A    between atoms: C_16  and  C_17
REMARK                            x       y       z     vdW  Elec       q    Type
REMARK                         _______ _______ _______ _____ _____    ______ ____
ROOT
ATOM      1  C   UNL     1       7.408   6.002  16.917  0.00  0.00    +0.000 A 
ATOM      2  C   UNL     1       7.612   5.138  18.000  0.00  0.00    +0.000 A 
ATOM      3  C   UNL     1       8.073   5.634  19.217  0.00  0.00    +0.000 A 
ATOM      4  C   UNL     1       8.358   6.993  19.347  0.00  0.00    +0.000 A 
ATOM      5  C   UNL     1       8.144   7.896  18.287  0.00  0.00    +0.000 A 
ATOM      6  C   UNL     1       7.613   7.372  17.090  0.00  0.00    +0.000 A 
ENDROOT
BRANCH   5   7
ATOM      7  C   UNL     1       8.476   9.336  18.411  0.00  0.00    +0.000 A 
ATOM      8  C   UNL     1       9.424   9.793  19.351  0.00  0.00    +0.000 A 
ATOM      9  C   UNL     1       9.789  11.145  19.453  0.00  0.00    +0.000 A 
ATOM     10  C   UNL     1       9.179  12.071  18.604  0.00  0.00    +0.000 A 
ATOM     11  N   UNL     1       9.357  13.430  18.501  0.00  0.00    +0.000 NA
ATOM     12  C   UNL     1       8.539  13.812  17.548  0.00  0.00    +0.000 A 
ATOM     13  N   UNL     1       7.840  12.763  17.029  0.00  0.00    +0.000 N 
ATOM     14  C   UNL     1       8.236  11.624  17.687  0.00  0.00    +0.000 A 
ATOM     15  C   UNL     1       7.866  10.284  17.558  0.00  0.00    +0.000 A 
ATOM     16  H   UNL     1       7.153  12.810  16.289  0.00  0.00    +0.000 HD
ENDBRANCH   5   7
BRANCH   1  19
ATOM     17  C   UNL     1       5.193   4.344  14.302  0.00  0.00    +0.000 C 
ATOM     18  N   UNL     1       5.537   4.938  15.585  0.00  0.00    +0.000 N 
ATOM     19  C   UNL     1       6.846   5.431  15.671  0.00  0.00    +0.000 C 
ATOM     20  O   UNL     1       7.594   5.437  14.690  0.00  0.00    +0.000 OA
BRANCH  18  21
ATOM     21  C   UNL     1       4.464   5.043  16.587  0.00  0.00    +0.000 C 
BRANCH  21  22
ATOM     22  C   UNL     1       4.161   3.763  17.385  0.00  0.00    +0.000 C 
ATOM     23  C   UNL     1       4.444   3.881  18.885  0.00  0.00    +0.000 C 
ATOM     24  C   UNL     1       4.077   2.566  19.580  0.00  0.00    +0.000 C 
ATOM     25  C   UNL     1       2.642   2.166  19.251  0.00  0.00    +0.000 C 
ATOM     26  C   UNL     1       2.402   2.201  17.747  0.00  0.00    +0.000 C 
ATOM     27  O   UNL     1       2.762   3.470  17.199  0.00  0.00    +0.000 OA
ENDBRANCH  21  22
ENDBRANCH  18  21
ENDBRANCH   1  19
TORSDOF 4
ENDMDL
MODEL 6
REMARK VINA RESULT:      -8.0      1.999      3.492
REMARK  Name = 
REMARK  5 active torsions:
REMARK  status: ('A' for Active; 'I' for Inactive)
REMARK    1  A    between atoms: C_1  and  N_2
REMARK    2  A    between atoms: N_2  and  C_3
REMARK    3  A    between atoms: C_3  and  C_4
REMARK    4  A    between atoms: C_10  and  C_12
REMARK    5  A    between atoms: C_16  and  C_17
REMARK                            x       y       z     vdW  Elec       q    Type
REMARK                         _______ _______ _______ _____ _____    ______ ____
ROOT
ATOM      1  C   UNL     1       2.450   6.184  19.321  0.00  0.00    +0.000 A 
ATOM      2  C   UNL     1       2.830   6.697  18.075  0.00  0.00    +0.000 A 
ATOM      3  C   UNL     1       2.547   8.020  17.745  0.00  0.00    +0.000 A 
ATOM      4  C   UNL     1       1.858   8.827  18.651  0.00  0.00    +0.000 A 
ATOM      5  C   UNL     1       1.480   8.352  19.922  0.00  0.00    +0.000 A 
ATOM      6  C   UNL     1       1.841   7.029  20.250  0.00  0.00    +0.000 A 
ENDROOT
BRANCH   5   7
ATOM      7  C   UNL     1       0.719   9.196  20.875  0.00  0.00    +0.000 A 
ATOM      8  C   UNL     1       0.607   8.847  22.237  0.00  0.00    +0.000 A 
ATOM      9  C   UNL     1      -0.068   9.654  23.167  0.00  0.00    +0.000 A 
ATOM     10  C   UNL     1      -0.664  10.837  22.721  0.00  0.00    +0.000 A 
ATOM     11  N   UNL     1      -1.370  11.789  23.416  0.00  0.00    +0.000 NA
ATOM     12  C   UNL     1      -1.704  12.689  22.521  0.00  0.00    +0.000 A 
ATOM     13  N   UNL     1      -1.247  12.364  21.278  0.00  0.00    +0.000 N 
ATOM     14  C   UNL     1      -0.566  11.175  21.377  0.00  0.00    +0.000 A 
ATOM     15  C   UNL     1       0.111  10.394  20.437  0.00  0.00    +0.000 A 
ATOM     16  H   UNL     1      -1.380  12.900  20.432  0.00  0.00    +0.000 HD
ENDBRANCH   5   7
BRANCH   1  19
ATOM     17  C   UNL     1       4.328   2.904  19.785  0.00  0.00    +0.000 C 
ATOM     18  N   UNL     1       4.154   4.319  19.490  0.00  0.00    +0.000 N 
ATOM     19  C   UNL     1       2.844   4.793  19.646  0.00  0.00    +0.000 C 
ATOM     20  O   UNL     1       1.950   4.070  20.094  0.00  0.00    +0.000 OA
BRANCH  18  21
ATOM     21  C   UNL     1       5.363   5.093  19.169  0.00  0.00    +0.000 C 
BRANCH  21  22
ATOM     22  C   UNL     1       5.750   5.150  17.682  0.00  0.00    +0.000 C 
ATOM     23  C   UNL     1       7.199   4.745  17.397  0.00  0.00    +0.000 C 
ATOM     24  C   UNL     1       7.461   4.808  15.889  0.00  0.00    +0.000 C 
ATOM     25  C   UNL     1       6.428   3.983  15.128  0.00  0.00    +0.000 C 
ATOM     26  C   UNL     1       5.015   4.351  15.563  0.00  0.00    +0.000 C 
ATOM     27  O   UNL     1       4.871   4.248  16.980  0.00  0.00    +0.000 OA
ENDBRANCH  21  22
ENDBRANCH  18  21
ENDBRANCH   1  19
TORSDOF 4
ENDMDL
MODEL 7
REMARK VINA RESULT:      -7.9      2.577      4.099
REMARK  Name = 
REMARK  5 active torsions:
REMARK  status: ('A' for Active; 'I' for Inactive)
REMARK    1  A    between atoms: C_1  and  N_2
REMARK    2  A    between atoms: N_2  and  C_3
REMARK    3  A    between atoms: C_3  and  C_4
REMARK    4  A    between atoms: C_10  and  C_12
REMARK    5  A    between atoms: C_16  and  C_17
REMARK                            x       y       z     vdW  Elec       q    Type
REMARK                         _______ _______ _______ _____ _____    ______ ____
ROOT
ATOM      1  C   UNL     1       2.302   6.456  19.591  0.00  0.00    +0.000 A 
ATOM      2  C   UNL     1       2.618   6.838  18.282  0.00  0.00    +0.000 A 
ATOM      3  C   UNL     1       2.312   8.119  17.831  0.00  0.00    +0.000 A 
ATOM      4  C   UNL     1       1.663   9.015  18.680  0.00  0.00    +0.000 A 
ATOM      5  C   UNL     1       1.349   8.674  20.011  0.00  0.00    +0.000 A 
ATOM      6  C   UNL     1       1.733   7.393  20.457  0.00  0.00    +0.000 A 
ENDROOT
BRANCH   5   7
ATOM      7  C   UNL     1       0.630   9.612  20.907  0.00  0.00    +0.000 A 
ATOM      8  C   UNL     1      -0.005   9.162  22.083  0.00  0.00    +0.000 A 
ATOM      9  C   UNL     1      -0.651  10.037  22.970  0.00  0.00    +0.000 A 
ATOM     10  C   UNL     1      -0.678  11.401  22.667  0.00  0.00    +0.000 A 
ATOM     11  N   UNL     1      -1.234  12.451  23.358  0.00  0.00    +0.000 NA
ATOM     12  C   UNL     1      -0.974  13.514  22.634  0.00  0.00    +0.000 A 
ATOM     13  N   UNL     1      -0.276  13.201  21.505  0.00  0.00    +0.000 N 
ATOM     14  C   UNL     1      -0.066  11.844  21.502  0.00  0.00    +0.000 A 
ATOM     15  C   UNL     1       0.594  10.994  20.611  0.00  0.00    +0.000 A 
ATOM     16  H   UNL     1       0.036  13.849  20.795  0.00  0.00    +0.000 HD
ENDBRANCH   5   7
BRANCH   1  19
ATOM     17  C   UNL     1       3.692   2.918  19.810  0.00  0.00    +0.000 C 
ATOM     18  N   UNL     1       3.445   4.227  19.224  0.00  0.00    +0.000 N 
ATOM     19  C   UNL     1       2.719   5.107  20.040  0.00  0.00    +0.000 C 
ATOM     20  O   UNL     1       2.412   4.804  21.195  0.00  0.00    +0.000 OA
BRANCH  18  21
ATOM     21  C   UNL     1       4.059   4.505  17.917  0.00  0.00    +0.000 C 
BRANCH  21  22
ATOM     22  C   UNL     1       5.548   4.888  17.940  0.00  0.00    +0.000 C 
ATOM     23  C   UNL     1       5.934   5.959  16.915  0.00  0.00    +0.000 C 
ATOM     24  C   UNL     1       7.425   6.284  17.052  0.00  0.00    +0.000 C 
ATOM     25  C   UNL     1       7.766   6.655  18.492  0.00  0.00    +0.000 C 
ATOM     26  C   UNL     1       7.232   5.608  19.461  0.00  0.00    +0.000 C 
ATOM     27  O   UNL     1       5.836   5.388  19.262  0.00  0.00    +0.000 OA
ENDBRANCH  21  22
ENDBRANCH  18  21
ENDBRANCH   1  19
TORSDOF 4
ENDMDL
MODEL 8
REMARK VINA RESULT:      -7.8      1.120      1.683
REMARK  Name = 
REMARK  5 active torsions:
REMARK  status: ('A' for Active; 'I' for Inactive)
REMARK    1  A    between atoms: C_1  and  N_2
REMARK    2  A    between atoms: N_2  and  C_3
REMARK    3  A    between atoms: C_3  and  C_4
REMARK    4  A    between atoms: C_10  and  C_12
REMARK    5  A    between atoms: C_16  and  C_17
REMARK                            x       y       z     vdW  Elec       q    Type
REMARK                         _______ _______ _______ _____ _____    ______ ____
ROOT
ATOM      1  C   UNL     1       4.195   5.355  18.391  0.00  0.00    +0.000 A 
ATOM      2  C   UNL     1       3.241   4.340  18.257  0.00  0.00    +0.000 A 
ATOM      3  C   UNL     1       1.883   4.646  18.276  0.00  0.00    +0.000 A 
ATOM      4  C   UNL     1       1.474   5.967  18.458  0.00  0.00    +0.000 A 
ATOM      5  C   UNL     1       2.405   7.018  18.575  0.00  0.00    +0.000 A 
ATOM      6  C   UNL     1       3.772   6.682  18.484  0.00  0.00    +0.000 A 
ENDROOT
BRANCH   5   7
ATOM      7  C   UNL     1       1.975   8.419  18.801  0.00  0.00    +0.000 A 
ATOM      8  C   UNL     1       1.145   8.766  19.887  0.00  0.00    +0.000 A 
ATOM      9  C   UNL     1       0.764  10.092  20.148  0.00  0.00    +0.000 A 
ATOM     10  C   UNL     1       1.212  11.101  19.291  0.00  0.00    +0.000 A 
ATOM     11  N   UNL     1       0.988  12.456  19.326  0.00  0.00    +0.000 NA
ATOM     12  C   UNL     1       1.637  12.937  18.291  0.00  0.00    +0.000 A 
ATOM     13  N   UNL     1       2.271  11.955  17.588  0.00  0.00    +0.000 N 
ATOM     14  C   UNL     1       2.019  10.758  18.214  0.00  0.00    +0.000 A 
ATOM     15  C   UNL     1       2.421   9.449  17.941  0.00  0.00    +0.000 A 
ATOM     16  H   UNL     1       2.830  12.081  16.755  0.00  0.00    +0.000 HD
ENDBRANCH   5   7
BRANCH   1  19
ATOM     17  C   UNL     1       7.671   4.411  17.158  0.00  0.00    +0.000 C 
ATOM     18  N   UNL     1       6.293   4.866  17.060  0.00  0.00    +0.000 N 
ATOM     19  C   UNL     1       5.625   4.980  18.288  0.00  0.00    +0.000 C 
ATOM     20  O   UNL     1       6.213   4.797  19.357  0.00  0.00    +0.000 OA
BRANCH  18  21
ATOM     21  C   UNL     1       5.802   5.244  15.726  0.00  0.00    +0.000 C 
BRANCH  21  22
ATOM     22  C   UNL     1       6.513   4.581  14.535  0.00  0.00    +0.000 C 
ATOM     23  C   UNL     1       5.567   3.903  13.540  0.00  0.00    +0.000 C 
ATOM     24  C   UNL     1       6.377   3.310  12.384  0.00  0.00    +0.000 C 
ATOM     25  C   UNL     1       7.278   4.369  11.757  0.00  0.00    +0.000 C 
ATOM     26  C   UNL     1       8.091   5.090  12.826  0.00  0.00    +0.000 C 
ATOM     27  O   UNL     1       7.244   5.617  13.847  0.00  0.00    +0.000 OA
ENDBRANCH  21  22
ENDBRANCH  18  21
ENDBRANCH   1  19
TORSDOF 4
ENDMDL
MODEL 9
REMARK VINA RESULT:      -7.8      2.087      3.801
REMARK  Name = 
REMARK  5 active torsions:
REMARK  status: ('A' for Active; 'I' for Inactive)
REMARK    1  A    between atoms: C_1  and  N_2
REMARK    2  A    between atoms: N_2  and  C_3
REMARK    3  A    between atoms: C_3  and  C_4
REMARK    4  A    between atoms: C_10  and  C_12
REMARK    5  A    between atoms: C_16  and  C_17
REMARK                            x       y       z     vdW  Elec       q    Type
REMARK                         _______ _______ _______ _____ _____    ______ ____
ROOT
ATOM      1  C   UNL     1       2.226   6.440  19.611  0.00  0.00    +0.000 A 
ATOM      2  C   UNL     1       2.697   6.916  18.381  0.00  0.00    +0.000 A 
ATOM      3  C   UNL     1       2.446   8.230  17.994  0.00  0.00    +0.000 A 
ATOM      4  C   UNL     1       1.698   9.065  18.825  0.00  0.00    +0.000 A 
ATOM      5  C   UNL     1       1.227   8.629  20.078  0.00  0.00    +0.000 A 
ATOM      6  C   UNL     1       1.556   7.314  20.469  0.00  0.00    +0.000 A 
ENDROOT
BRANCH   5   7
ATOM      7  C   UNL     1       0.405   9.502  20.949  0.00  0.00    +0.000 A 
ATOM      8  C   UNL     1       0.176   9.182  22.304  0.00  0.00    +0.000 A 
ATOM      9  C   UNL     1      -0.559  10.018  23.160  0.00  0.00    +0.000 A 
ATOM     10  C   UNL     1      -1.096  11.201  22.645  0.00  0.00    +0.000 A 
ATOM     11  N   UNL     1      -1.841  12.177  23.261  0.00  0.00    +0.000 NA
ATOM     12  C   UNL     1      -2.086  13.064  22.325  0.00  0.00    +0.000 A 
ATOM     13  N   UNL     1      -1.534  12.707  21.131  0.00  0.00    +0.000 N 
ATOM     14  C   UNL     1      -0.883  11.510  21.308  0.00  0.00    +0.000 A 
ATOM     15  C   UNL     1      -0.145  10.701  20.441  0.00  0.00    +0.000 A 
ATOM     16  H   UNL     1      -1.588  13.228  20.266  0.00  0.00    +0.000 HD
ENDBRANCH   5   7
BRANCH   1  19
ATOM     17  C   UNL     1       3.214   2.763  19.640  0.00  0.00    +0.000 C 
ATOM     18  N   UNL     1       2.976   4.083  19.074  0.00  0.00    +0.000 N 
ATOM     19  C   UNL     1       2.587   5.058  20.003  0.00  0.00    +0.000 C 
ATOM     20  O   UNL     1       2.552   4.814  21.211  0.00  0.00    +0.000 OA
BRANCH  18  21
ATOM     21  C   UNL     1       3.264   4.262  17.642  0.00  0.00    +0.000 C 
BRANCH  21  22
ATOM     22  C   UNL     1       4.726   4.041  17.217  0.00  0.00    +0.000 C 
ATOM     23  C   UNL     1       5.002   4.351  15.743  0.00  0.00    +0.000 C 
ATOM     24  C   UNL     1       6.487   4.130  15.443  0.00  0.00    +0.000 C 
ATOM     25  C   UNL     1       7.358   4.920  16.415  0.00  0.00    +0.000 C 
ATOM     26  C   UNL     1       6.934   4.660  17.855  0.00  0.00    +0.000 C 
ATOM     27  O   UNL     1       5.540   4.907  18.034  0.00  0.00    +0.000 OA
ENDBRANCH  21  22
ENDBRANCH  18  21
ENDBRANCH   1  19
TORSDOF 4
ENDMDL
