MODEL 1
REMARK VINA RESULT:      -7.6      0.000      0.000
REMARK  Name = 
REMARK  8 active torsions:
REMARK  status: ('A' for Active; 'I' for Inactive)
REMARK    1  A    between atoms: C_1  and  C_2
REMARK    2  A    between atoms: C_6  and  N_7
REMARK    3  A    between atoms: C_8  and  C_10
REMARK    4  A    between atoms: C_10  and  C_11
REMARK    5  A    between atoms: C_10  and  N_15
REMARK    6  A    between atoms: C_11  and  C_12
REMARK    7  A    between atoms: C_12  and  O_14
REMARK    8  A    between atoms: C_16  and  C_18
REMARK                            x       y       z     vdW  Elec       q    Type
REMARK                         _______ _______ _______ _____ _____    ______ ____
ROOT
ATOM      1  C   UNL     1       4.008   4.210  19.594  0.00  0.00    +0.000 C 
ENDROOT
BRANCH   1   3
ATOM      2  N   UNL     1       3.057   6.474  19.821  0.00  0.00    +0.000 N 
ATOM      3  C   UNL     1       2.926   5.238  19.211  0.00  0.00    +0.000 C 
ATOM      4  O   UNL     1       2.080   4.939  18.366  0.00  0.00    +0.000 OA
ATOM      5  H   UNL     1       3.758   6.567  20.552  0.00  0.00    +0.000 HD
BRANCH   2  11
ATOM      6  C   UNL     1      -0.241   9.733  21.561  0.00  0.00    +0.000 C 
ATOM      7  C   UNL     1       0.623   9.228  20.443  0.00  0.00    +0.000 A 
ATOM      8  C   UNL     1       0.570   9.836  19.185  0.00  0.00    +0.000 A 
ATOM      9  C   UNL     1       1.347   9.348  18.140  0.00  0.00    +0.000 A 
ATOM     10  C   UNL     1       2.172   8.239  18.337  0.00  0.00    +0.000 A 
ATOM     11  C   UNL     1       2.242   7.608  19.581  0.00  0.00    +0.000 A 
ATOM     12  C   UNL     1       1.479   8.127  20.639  0.00  0.00    +0.000 A 
ENDBRANCH   2  11
ENDBRANCH   1   3
BRANCH   1  13
ATOM     13  N   UNL     1       5.007   4.231  18.528  0.00  0.00    +0.000 N 
ATOM     14  C   UNL     1       6.264   4.793  18.707  0.00  0.00    +0.000 C 
ATOM     15  O   UNL     1       6.568   5.343  19.766  0.00  0.00    +0.000 OA
ATOM     16  H   UNL     1       4.735   3.970  17.584  0.00  0.00    +0.000 HD
BRANCH  14  17
ATOM     17  C   UNL     1       7.201   4.676  17.479  0.00  0.00    +0.000 C 
ATOM     18  F   UNL     1       8.371   4.050  17.802  0.00  0.00    +0.000 F 
ATOM     19  F   UNL     1       6.648   3.944  16.475  0.00  0.00    +0.000 F 
ATOM     20  F   UNL     1       7.541   5.881  16.953  0.00  0.00    +0.000 F 
ENDBRANCH  14  17
ENDBRANCH   1  13
BRANCH   1  21
ATOM     21  C   UNL     1       3.355   2.828  19.706  0.00  0.00    +0.000 C 
BRANCH  21  22
ATOM     22  C   UNL     1       4.362   1.712  19.653  0.00  0.00    +0.000 C 
ATOM     23  O   UNL     1       5.253   1.523  20.465  0.00  0.00    +0.000 OA
BRANCH  22  24
ATOM     24  O   UNL     1       4.193   0.915  18.572  0.00  0.00    +0.000 OA
ATOM     25  H   UNL     1       4.248  -0.042  18.758  0.00  0.00    +0.000 HD
ENDBRANCH  22  24
ENDBRANCH  21  22
ENDBRANCH   1  21
TORSDOF 7
ENDMDL
MODEL 2
REMARK VINA RESULT:      -7.6      3.772      7.242
REMARK  Name = 
REMARK  8 active torsions:
REMARK  status: ('A' for Active; 'I' for Inactive)
REMARK    1  A    between atoms: C_1  and  C_2
REMARK    2  A    between atoms: C_6  and  N_7
REMARK    3  A    between atoms: C_8  and  C_10
REMARK    4  A    between atoms: C_10  and  C_11
REMARK    5  A    between atoms: C_10  and  N_15
REMARK    6  A    between atoms: C_11  and  C_12
REMARK    7  A    between atoms: C_12  and  O_14
REMARK    8  A    between atoms: C_16  and  C_18
REMARK                            x       y       z     vdW  Elec       q    Type
REMARK                         _______ _______ _______ _____ _____    ______ ____
ROOT
ATOM      1  C   UNL     1       6.521   5.061  18.377  0.00  0.00    +0.000 C 
ENDROOT
BRANCH   1   3
ATOM      2  N   UNL     1       6.268   4.959  15.926  0.00  0.00    +0.000 N 
ATOM      3  C   UNL     1       7.070   4.626  17.004  0.00  0.00    +0.000 C 
ATOM      4  O   UNL     1       8.179   4.090  16.939  0.00  0.00    +0.000 OA
ATOM      5  H   UNL     1       5.346   5.337  16.124  0.00  0.00    +0.000 HD
BRANCH   2  11
ATOM      6  C   UNL     1       5.343   2.486  11.737  0.00  0.00    +0.000 C 
ATOM      7  C   UNL     1       6.116   3.531  12.486  0.00  0.00    +0.000 A 
ATOM      8  C   UNL     1       7.155   4.223  11.856  0.00  0.00    +0.000 A 
ATOM      9  C   UNL     1       7.892   5.169  12.560  0.00  0.00    +0.000 A 
ATOM     10  C   UNL     1       7.610   5.421  13.904  0.00  0.00    +0.000 A 
ATOM     11  C   UNL     1       6.582   4.742  14.561  0.00  0.00    +0.000 A 
ATOM     12  C   UNL     1       5.821   3.813  13.834  0.00  0.00    +0.000 A 
ENDBRANCH   2  11
ENDBRANCH   1   3
BRANCH   1  13
ATOM     13  N   UNL     1       5.293   5.809  18.123  0.00  0.00    +0.000 N 
ATOM     14  C   UNL     1       4.052   5.357  18.551  0.00  0.00    +0.000 C 
ATOM     15  O   UNL     1       3.935   4.273  19.125  0.00  0.00    +0.000 OA
ATOM     16  H   UNL     1       5.314   6.603  17.487  0.00  0.00    +0.000 HD
BRANCH  14  17
ATOM     17  C   UNL     1       2.875   6.311  18.232  0.00  0.00    +0.000 C 
ATOM     18  F   UNL     1       2.390   6.901  19.365  0.00  0.00    +0.000 F 
ATOM     19  F   UNL     1       3.242   7.327  17.407  0.00  0.00    +0.000 F 
ATOM     20  F   UNL     1       1.824   5.682  17.646  0.00  0.00    +0.000 F 
ENDBRANCH  14  17
ENDBRANCH   1  13
BRANCH   1  21
ATOM     21  C   UNL     1       7.568   5.942  19.068  0.00  0.00    +0.000 C 
BRANCH  21  22
ATOM     22  C   UNL     1       7.868   7.193  18.290  0.00  0.00    +0.000 C 
ATOM     23  O   UNL     1       7.374   7.494  17.215  0.00  0.00    +0.000 OA
BRANCH  22  24
ATOM     24  O   UNL     1       8.783   7.977  18.905  0.00  0.00    +0.000 OA
ATOM     25  H   UNL     1       8.412   8.602  19.558  0.00  0.00    +0.000 HD
ENDBRANCH  22  24
ENDBRANCH  21  22
ENDBRANCH   1  21
TORSDOF 7
ENDMDL
MODEL 3
REMARK VINA RESULT:      -7.5      4.116      5.117
REMARK  Name = 
REMARK  8 active torsions:
REMARK  status: ('A' for Active; 'I' for Inactive)
REMARK    1  A    between atoms: C_1  and  C_2
REMARK    2  A    between atoms: C_6  and  N_7
REMARK    3  A    between atoms: C_8  and  C_10
REMARK    4  A    between atoms: C_10  and  C_11
REMARK    5  A    between atoms: C_10  and  N_15
REMARK    6  A    between atoms: C_11  and  C_12
REMARK    7  A    between atoms: C_12  and  O_14
REMARK    8  A    between atoms: C_16  and  C_18
REMARK                            x       y       z     vdW  Elec       q    Type
REMARK                         _______ _______ _______ _____ _____    ______ ____
ROOT
ATOM      1  C   UNL     1       6.061   5.347  16.382  0.00  0.00    +0.000 C 
ENDROOT
BRANCH   1   3
ATOM      2  N   UNL     1       4.291   4.009  17.459  0.00  0.00    +0.000 N 
ATOM      3  C   UNL     1       4.727   5.286  17.152  0.00  0.00    +0.000 C 
ATOM      4  O   UNL     1       4.181   6.336  17.499  0.00  0.00    +0.000 OA
ATOM      5  H   UNL     1       4.799   3.228  17.053  0.00  0.00    +0.000 HD
BRANCH   2  11
ATOM      6  C   UNL     1       2.369   2.740  21.843  0.00  0.00    +0.000 C 
ATOM      7  C   UNL     1       2.188   3.073  20.391  0.00  0.00    +0.000 A 
ATOM      8  C   UNL     1       0.919   3.005  19.807  0.00  0.00    +0.000 A 
ATOM      9  C   UNL     1       0.756   3.283  18.455  0.00  0.00    +0.000 A 
ATOM     10  C   UNL     1       1.861   3.616  17.669  0.00  0.00    +0.000 A 
ATOM     11  C   UNL     1       3.142   3.686  18.222  0.00  0.00    +0.000 A 
ATOM     12  C   UNL     1       3.292   3.436  19.595  0.00  0.00    +0.000 A 
ENDBRANCH   2  11
ENDBRANCH   1   3
BRANCH   1  13
ATOM     13  N   UNL     1       5.859   4.622  15.130  0.00  0.00    +0.000 N 
ATOM     14  C   UNL     1       6.725   4.756  14.053  0.00  0.00    +0.000 C 
ATOM     15  O   UNL     1       7.677   5.535  14.098  0.00  0.00    +0.000 OA
ATOM     16  H   UNL     1       4.985   4.125  14.977  0.00  0.00    +0.000 HD
BRANCH  14  17
ATOM     17  C   UNL     1       6.373   3.870  12.832  0.00  0.00    +0.000 C 
ATOM     18  F   UNL     1       6.546   2.544  13.112  0.00  0.00    +0.000 F 
ATOM     19  F   UNL     1       5.076   4.007  12.450  0.00  0.00    +0.000 F 
ATOM     20  F   UNL     1       7.140   4.136  11.744  0.00  0.00    +0.000 F 
ENDBRANCH  14  17
ENDBRANCH   1  13
BRANCH   1  21
ATOM     21  C   UNL     1       7.150   4.683  17.231  0.00  0.00    +0.000 C 
BRANCH  21  22
ATOM     22  C   UNL     1       7.560   5.530  18.404  0.00  0.00    +0.000 C 
ATOM     23  O   UNL     1       7.628   5.151  19.562  0.00  0.00    +0.000 OA
BRANCH  22  24
ATOM     24  O   UNL     1       7.843   6.804  18.046  0.00  0.00    +0.000 OA
ATOM     25  H   UNL     1       7.912   7.431  18.792  0.00  0.00    +0.000 HD
ENDBRANCH  22  24
ENDBRANCH  21  22
ENDBRANCH   1  21
TORSDOF 7
ENDMDL
MODEL 4
REMARK VINA RESULT:      -7.5      1.078      1.486
REMARK  Name = 
REMARK  8 active torsions:
REMARK  status: ('A' for Active; 'I' for Inactive)
REMARK    1  A    between atoms: C_1  and  C_2
REMARK    2  A    between atoms: C_6  and  N_7
REMARK    3  A    between atoms: C_8  and  C_10
REMARK    4  A    between atoms: C_10  and  C_11
REMARK    5  A    between atoms: C_10  and  N_15
REMARK    6  A    between atoms: C_11  and  C_12
REMARK    7  A    between atoms: C_12  and  O_14
REMARK    8  A    between atoms: C_16  and  C_18
REMARK                            x       y       z     vdW  Elec       q    Type
REMARK                         _______ _______ _______ _____ _____    ______ ____
ROOT
ATOM      1  C   UNL     1       3.824   4.079  19.236  0.00  0.00    +0.000 C 
ENDROOT
BRANCH   1   3
ATOM      2  N   UNL     1       3.024   6.360  19.726  0.00  0.00    +0.000 N 
ATOM      3  C   UNL     1       2.681   5.112  19.235  0.00  0.00    +0.000 C 
ATOM      4  O   UNL     1       1.588   4.803  18.753  0.00  0.00    +0.000 OA
ATOM      5  H   UNL     1       3.939   6.460  20.158  0.00  0.00    +0.000 HD
BRANCH   2  11
ATOM      6  C   UNL     1      -0.235   9.108  22.246  0.00  0.00    +0.000 C 
ATOM      7  C   UNL     1       0.581   8.866  21.010  0.00  0.00    +0.000 A 
ATOM      8  C   UNL     1       0.457   9.717  19.908  0.00  0.00    +0.000 A 
ATOM      9  C   UNL     1       1.190   9.475  18.752  0.00  0.00    +0.000 A 
ATOM     10  C   UNL     1       2.041   8.369  18.679  0.00  0.00    +0.000 A 
ATOM     11  C   UNL     1       2.180   7.498  19.761  0.00  0.00    +0.000 A 
ATOM     12  C   UNL     1       1.463   7.770  20.936  0.00  0.00    +0.000 A 
ENDBRANCH   2  11
ENDBRANCH   1   3
BRANCH   1  13
ATOM     13  N   UNL     1       4.427   4.116  17.906  0.00  0.00    +0.000 N 
ATOM     14  C   UNL     1       5.783   4.349  17.717  0.00  0.00    +0.000 C 
ATOM     15  O   UNL     1       6.525   4.583  18.672  0.00  0.00    +0.000 OA
ATOM     16  H   UNL     1       3.826   4.126  17.085  0.00  0.00    +0.000 HD
BRANCH  14  17
ATOM     17  C   UNL     1       6.244   4.302  16.239  0.00  0.00    +0.000 C 
ATOM     18  F   UNL     1       5.922   3.111  15.654  0.00  0.00    +0.000 F 
ATOM     19  F   UNL     1       5.653   5.265  15.483  0.00  0.00    +0.000 F 
ATOM     20  F   UNL     1       7.586   4.451  16.096  0.00  0.00    +0.000 F 
ENDBRANCH  14  17
ENDBRANCH   1  13
BRANCH   1  21
ATOM     21  C   UNL     1       3.236   2.695  19.532  0.00  0.00    +0.000 C 
BRANCH  21  22
ATOM     22  C   UNL     1       3.225   1.805  18.320  0.00  0.00    +0.000 C 
ATOM     23  O   UNL     1       2.396   1.837  17.426  0.00  0.00    +0.000 OA
BRANCH  22  24
ATOM     24  O   UNL     1       4.249   0.919  18.321  0.00  0.00    +0.000 OA
ATOM     25  H   UNL     1       4.532   0.625  19.208  0.00  0.00    +0.000 HD
ENDBRANCH  22  24
ENDBRANCH  21  22
ENDBRANCH   1  21
TORSDOF 7
ENDMDL
MODEL 5
REMARK VINA RESULT:      -7.5      4.033      5.084
REMARK  Name = 
REMARK  8 active torsions:
REMARK  status: ('A' for Active; 'I' for Inactive)
REMARK    1  A    between atoms: C_1  and  C_2
REMARK    2  A    between atoms: C_6  and  N_7
REMARK    3  A    between atoms: C_8  and  C_10
REMARK    4  A    between atoms: C_10  and  C_11
REMARK    5  A    between atoms: C_10  and  N_15
REMARK    6  A    between atoms: C_11  and  C_12
REMARK    7  A    between atoms: C_12  and  O_14
REMARK    8  A    between atoms: C_16  and  C_18
REMARK                            x       y       z     vdW  Elec       q    Type
REMARK                         _______ _______ _______ _____ _____    ______ ____
ROOT
ATOM      1  C   UNL     1       5.984   5.369  16.312  0.00  0.00    +0.000 C 
ENDROOT
BRANCH   1   3
ATOM      2  N   UNL     1       4.264   4.023  17.456  0.00  0.00    +0.000 N 
ATOM      3  C   UNL     1       4.644   5.296  17.068  0.00  0.00    +0.000 C 
ATOM      4  O   UNL     1       4.044   6.340  17.336  0.00  0.00    +0.000 OA
ATOM      5  H   UNL     1       4.814   3.242  17.110  0.00  0.00    +0.000 HD
BRANCH   2  11
ATOM      6  C   UNL     1       2.353   2.867  21.876  0.00  0.00    +0.000 C 
ATOM      7  C   UNL     1       2.171   3.140  20.412  0.00  0.00    +0.000 A 
ATOM      8  C   UNL     1       0.908   3.016  19.826  0.00  0.00    +0.000 A 
ATOM      9  C   UNL     1       0.745   3.240  18.463  0.00  0.00    +0.000 A 
ATOM     10  C   UNL     1       1.844   3.573  17.670  0.00  0.00    +0.000 A 
ATOM     11  C   UNL     1       3.120   3.698  18.226  0.00  0.00    +0.000 A 
ATOM     12  C   UNL     1       3.269   3.504  19.608  0.00  0.00    +0.000 A 
ENDBRANCH   2  11
ENDBRANCH   1   3
BRANCH   1  13
ATOM     13  N   UNL     1       5.794   4.665  15.046  0.00  0.00    +0.000 N 
ATOM     14  C   UNL     1       6.719   4.740  14.014  0.00  0.00    +0.000 C 
ATOM     15  O   UNL     1       7.722   5.448  14.111  0.00  0.00    +0.000 OA
ATOM     16  H   UNL     1       4.895   4.232  14.846  0.00  0.00    +0.000 HD
BRANCH  14  17
ATOM     17  C   UNL     1       6.367   3.886  12.771  0.00  0.00    +0.000 C 
ATOM     18  F   UNL     1       7.083   4.278  11.676  0.00  0.00    +0.000 F 
ATOM     19  F   UNL     1       6.648   2.568  12.952  0.00  0.00    +0.000 F 
ATOM     20  F   UNL     1       5.056   3.969  12.423  0.00  0.00    +0.000 F 
ENDBRANCH  14  17
ENDBRANCH   1  13
BRANCH   1  21
ATOM     21  C   UNL     1       7.066   4.689  17.159  0.00  0.00    +0.000 C 
BRANCH  21  22
ATOM     22  C   UNL     1       7.318   5.412  18.454  0.00  0.00    +0.000 C 
ATOM     23  O   UNL     1       7.970   6.436  18.577  0.00  0.00    +0.000 OA
BRANCH  22  24
ATOM     24  O   UNL     1       6.749   4.790  19.512  0.00  0.00    +0.000 OA
ATOM     25  H   UNL     1       5.772   4.798  19.512  0.00  0.00    +0.000 HD
ENDBRANCH  22  24
ENDBRANCH  21  22
ENDBRANCH   1  21
TORSDOF 7
ENDMDL
MODEL 6
REMARK VINA RESULT:      -7.5      4.437      6.973
REMARK  Name = 
REMARK  8 active torsions:
REMARK  status: ('A' for Active; 'I' for Inactive)
REMARK    1  A    between atoms: C_1  and  C_2
REMARK    2  A    between atoms: C_6  and  N_7
REMARK    3  A    between atoms: C_8  and  C_10
REMARK    4  A    between atoms: C_10  and  C_11
REMARK    5  A    between atoms: C_10  and  N_15
REMARK    6  A    between atoms: C_11  and  C_12
REMARK    7  A    between atoms: C_12  and  O_14
REMARK    8  A    between atoms: C_16  and  C_18
REMARK                            x       y       z     vdW  Elec       q    Type
REMARK                         _______ _______ _______ _____ _____    ______ ____
ROOT
ATOM      1  C   UNL     1       5.150   4.316  18.508  0.00  0.00    +0.000 C 
ENDROOT
BRANCH   1   3
ATOM      2  N   UNL     1       6.221   4.044  16.303  0.00  0.00    +0.000 N 
ATOM      3  C   UNL     1       5.260   4.728  17.027  0.00  0.00    +0.000 C 
ATOM      4  O   UNL     1       4.473   5.561  16.571  0.00  0.00    +0.000 OA
ATOM      5  H   UNL     1       6.851   3.433  16.816  0.00  0.00    +0.000 HD
BRANCH   2  11
ATOM      6  C   UNL     1       5.042   2.752  11.670  0.00  0.00    +0.000 C 
ATOM      7  C   UNL     1       5.877   3.555  12.624  0.00  0.00    +0.000 A 
ATOM      8  C   UNL     1       6.906   4.370  12.142  0.00  0.00    +0.000 A 
ATOM      9  C   UNL     1       7.700   5.091  13.028  0.00  0.00    +0.000 A 
ATOM     10  C   UNL     1       7.484   4.992  14.404  0.00  0.00    +0.000 A 
ATOM     11  C   UNL     1       6.467   4.182  14.915  0.00  0.00    +0.000 A 
ATOM     12  C   UNL     1       5.650   3.484  14.012  0.00  0.00    +0.000 A 
ENDBRANCH   2  11
ENDBRANCH   1   3
BRANCH   1  13
ATOM     13  N   UNL     1       3.732   4.094  18.780  0.00  0.00    +0.000 N 
ATOM     14  C   UNL     1       3.150   2.838  18.681  0.00  0.00    +0.000 C 
ATOM     15  O   UNL     1       3.804   1.863  18.310  0.00  0.00    +0.000 OA
ATOM     16  H   UNL     1       3.114   4.895  18.895  0.00  0.00    +0.000 HD
BRANCH  14  17
ATOM     17  C   UNL     1       1.647   2.794  19.056  0.00  0.00    +0.000 C 
ATOM     18  F   UNL     1       1.063   4.022  18.922  0.00  0.00    +0.000 F 
ATOM     19  F   UNL     1       0.940   1.953  18.256  0.00  0.00    +0.000 F 
ATOM     20  F   UNL     1       1.430   2.401  20.337  0.00  0.00    +0.000 F 
ENDBRANCH  14  17
ENDBRANCH   1  13
BRANCH   1  21
ATOM     21  C   UNL     1       5.704   5.451  19.377  0.00  0.00    +0.000 C 
BRANCH  21  22
ATOM     22  C   UNL     1       7.199   5.571  19.278  0.00  0.00    +0.000 C 
ATOM     23  O   UNL     1       7.824   5.823  18.261  0.00  0.00    +0.000 OA
BRANCH  22  24
ATOM     24  O   UNL     1       7.814   5.350  20.463  0.00  0.00    +0.000 OA
ATOM     25  H   UNL     1       8.788   5.296  20.413  0.00  0.00    +0.000 HD
ENDBRANCH  22  24
ENDBRANCH  21  22
ENDBRANCH   1  21
TORSDOF 7
ENDMDL
MODEL 7
REMARK VINA RESULT:      -7.5      1.106      1.376
REMARK  Name = 
REMARK  8 active torsions:
REMARK  status: ('A' for Active; 'I' for Inactive)
REMARK    1  A    between atoms: C_1  and  C_2
REMARK    2  A    between atoms: C_6  and  N_7
REMARK    3  A    between atoms: C_8  and  C_10
REMARK    4  A    between atoms: C_10  and  C_11
REMARK    5  A    between atoms: C_10  and  N_15
REMARK    6  A    between atoms: C_11  and  C_12
REMARK    7  A    between atoms: C_12  and  O_14
REMARK    8  A    between atoms: C_16  and  C_18
REMARK                            x       y       z     vdW  Elec       q    Type
REMARK                         _______ _______ _______ _____ _____    ______ ____
ROOT
ATOM      1  C   UNL     1       3.896   4.113  19.505  0.00  0.00    +0.000 C 
ENDROOT
BRANCH   1   3
ATOM      2  N   UNL     1       3.007   6.401  19.750  0.00  0.00    +0.000 N 
ATOM      3  C   UNL     1       2.867   5.187  19.100  0.00  0.00    +0.000 C 
ATOM      4  O   UNL     1       2.053   4.937  18.207  0.00  0.00    +0.000 OA
ATOM      5  H   UNL     1       3.674   6.451  20.515  0.00  0.00    +0.000 HD
BRANCH   2  11
ATOM      6  C   UNL     1      -0.157   9.800  21.469  0.00  0.00    +0.000 C 
ATOM      7  C   UNL     1       0.688   9.256  20.355  0.00  0.00    +0.000 A 
ATOM      8  C   UNL     1       0.664   9.861  19.095  0.00  0.00    +0.000 A 
ATOM      9  C   UNL     1       1.424   9.338  18.054  0.00  0.00    +0.000 A 
ATOM     10  C   UNL     1       2.201   8.196  18.257  0.00  0.00    +0.000 A 
ATOM     11  C   UNL     1       2.240   7.567  19.503  0.00  0.00    +0.000 A 
ATOM     12  C   UNL     1       1.497   8.121  20.557  0.00  0.00    +0.000 A 
ENDBRANCH   2  11
ENDBRANCH   1   3
BRANCH   1  13
ATOM     13  N   UNL     1       4.934   4.116  18.477  0.00  0.00    +0.000 N 
ATOM     14  C   UNL     1       6.106   4.847  18.615  0.00  0.00    +0.000 C 
ATOM     15  O   UNL     1       6.293   5.566  19.597  0.00  0.00    +0.000 OA
ATOM     16  H   UNL     1       4.740   3.699  17.570  0.00  0.00    +0.000 HD
BRANCH  14  17
ATOM     17  C   UNL     1       7.107   4.684  17.444  0.00  0.00    +0.000 C 
ATOM     18  F   UNL     1       8.266   4.090  17.858  0.00  0.00    +0.000 F 
ATOM     19  F   UNL     1       6.616   3.898  16.450  0.00  0.00    +0.000 F 
ATOM     20  F   UNL     1       7.462   5.867  16.879  0.00  0.00    +0.000 F 
ENDBRANCH  14  17
ENDBRANCH   1  13
BRANCH   1  21
ATOM     21  C   UNL     1       3.190   2.754  19.568  0.00  0.00    +0.000 C 
BRANCH  21  22
ATOM     22  C   UNL     1       2.244   2.653  20.732  0.00  0.00    +0.000 C 
ATOM     23  O   UNL     1       1.027   2.716  20.663  0.00  0.00    +0.000 OA
BRANCH  22  24
ATOM     24  O   UNL     1       2.890   2.495  21.910  0.00  0.00    +0.000 OA
ATOM     25  H   UNL     1       3.795   2.863  21.931  0.00  0.00    +0.000 HD
ENDBRANCH  22  24
ENDBRANCH  21  22
ENDBRANCH   1  21
TORSDOF 7
ENDMDL
MODEL 8
REMARK VINA RESULT:      -7.4      1.302      1.645
REMARK  Name = 
REMARK  8 active torsions:
REMARK  status: ('A' for Active; 'I' for Inactive)
REMARK    1  A    between atoms: C_1  and  C_2
REMARK    2  A    between atoms: C_6  and  N_7
REMARK    3  A    between atoms: C_8  and  C_10
REMARK    4  A    between atoms: C_10  and  C_11
REMARK    5  A    between atoms: C_10  and  N_15
REMARK    6  A    between atoms: C_11  and  C_12
REMARK    7  A    between atoms: C_12  and  O_14
REMARK    8  A    between atoms: C_16  and  C_18
REMARK                            x       y       z     vdW  Elec       q    Type
REMARK                         _______ _______ _______ _____ _____    ______ ____
ROOT
ATOM      1  C   UNL     1       3.764   4.070  19.494  0.00  0.00    +0.000 C 
ENDROOT
BRANCH   1   3
ATOM      2  N   UNL     1       2.980   6.389  19.788  0.00  0.00    +0.000 N 
ATOM      3  C   UNL     1       2.732   5.171  19.181  0.00  0.00    +0.000 C 
ATOM      4  O   UNL     1       1.819   4.935  18.386  0.00  0.00    +0.000 OA
ATOM      5  H   UNL     1       3.727   6.429  20.477  0.00  0.00    +0.000 HD
BRANCH   2  11
ATOM      6  C   UNL     1      -0.211   9.687  21.651  0.00  0.00    +0.000 C 
ATOM      7  C   UNL     1       0.663   9.215  20.526  0.00  0.00    +0.000 A 
ATOM      8  C   UNL     1       0.681   9.908  19.312  0.00  0.00    +0.000 A 
ATOM      9  C   UNL     1       1.467   9.453  18.259  0.00  0.00    +0.000 A 
ATOM     10  C   UNL     1       2.231   8.293  18.403  0.00  0.00    +0.000 A 
ATOM     11  C   UNL     1       2.229   7.576  19.603  0.00  0.00    +0.000 A 
ATOM     12  C   UNL     1       1.458   8.062  20.671  0.00  0.00    +0.000 A 
ENDBRANCH   2  11
ENDBRANCH   1   3
BRANCH   1  13
ATOM     13  N   UNL     1       4.646   3.976  18.334  0.00  0.00    +0.000 N 
ATOM     14  C   UNL     1       5.778   4.770  18.202  0.00  0.00    +0.000 C 
ATOM     15  O   UNL     1       6.056   5.624  19.046  0.00  0.00    +0.000 OA
ATOM     16  H   UNL     1       4.353   3.432  17.526  0.00  0.00    +0.000 HD
BRANCH  14  17
ATOM     17  C   UNL     1       6.614   4.492  16.929  0.00  0.00    +0.000 C 
ATOM     18  F   UNL     1       6.688   5.597  16.129  0.00  0.00    +0.000 F 
ATOM     19  F   UNL     1       7.898   4.150  17.217  0.00  0.00    +0.000 F 
ATOM     20  F   UNL     1       6.100   3.496  16.162  0.00  0.00    +0.000 F 
ENDBRANCH  14  17
ENDBRANCH   1  13
BRANCH   1  21
ATOM     21  C   UNL     1       3.020   2.749  19.725  0.00  0.00    +0.000 C 
BRANCH  21  22
ATOM     22  C   UNL     1       2.185   2.772  20.975  0.00  0.00    +0.000 C 
ATOM     23  O   UNL     1       2.610   2.657  22.113  0.00  0.00    +0.000 OA
BRANCH  22  24
ATOM     24  O   UNL     1       0.866   2.923  20.712  0.00  0.00    +0.000 OA
ATOM     25  H   UNL     1       0.426   3.629  21.224  0.00  0.00    +0.000 HD
ENDBRANCH  22  24
ENDBRANCH  21  22
ENDBRANCH   1  21
TORSDOF 7
ENDMDL
MODEL 9
REMARK VINA RESULT:      -7.4      1.401      1.929
REMARK  Name = 
REMARK  8 active torsions:
REMARK  status: ('A' for Active; 'I' for Inactive)
REMARK    1  A    between atoms: C_1  and  C_2
REMARK    2  A    between atoms: C_6  and  N_7
REMARK    3  A    between atoms: C_8  and  C_10
REMARK    4  A    between atoms: C_10  and  C_11
REMARK    5  A    between atoms: C_10  and  N_15
REMARK    6  A    between atoms: C_11  and  C_12
REMARK    7  A    between atoms: C_12  and  O_14
REMARK    8  A    between atoms: C_16  and  C_18
REMARK                            x       y       z     vdW  Elec       q    Type
REMARK                         _______ _______ _______ _____ _____    ______ ____
ROOT
ATOM      1  C   UNL     1       3.273   4.167  20.001  0.00  0.00    +0.000 C 
ENDROOT
BRANCH   1   3
ATOM      2  N   UNL     1       2.661   6.556  20.002  0.00  0.00    +0.000 N 
ATOM      3  C   UNL     1       2.224   5.268  20.254  0.00  0.00    +0.000 C 
ATOM      4  O   UNL     1       1.080   4.947  20.586  0.00  0.00    +0.000 OA
ATOM      5  H   UNL     1       3.649   6.688  19.801  0.00  0.00    +0.000 HD
BRANCH   2  11
ATOM      6  C   UNL     1      -0.230   9.505  22.734  0.00  0.00    +0.000 C 
ATOM      7  C   UNL     1       0.454   9.197  21.436  0.00  0.00    +0.000 A 
ATOM      8  C   UNL     1       0.262  10.025  20.326  0.00  0.00    +0.000 A 
ATOM      9  C   UNL     1       0.872   9.722  19.113  0.00  0.00    +0.000 A 
ATOM     10  C   UNL     1       1.667   8.580  18.993  0.00  0.00    +0.000 A 
ATOM     11  C   UNL     1       1.872   7.730  20.083  0.00  0.00    +0.000 A 
ATOM     12  C   UNL     1       1.280   8.062  21.311  0.00  0.00    +0.000 A 
ENDBRANCH   2  11
ENDBRANCH   1   3
BRANCH   1  13
ATOM     13  N   UNL     1       3.808   4.394  18.661  0.00  0.00    +0.000 N 
ATOM     14  C   UNL     1       5.170   4.355  18.395  0.00  0.00    +0.000 C 
ATOM     15  O   UNL     1       5.988   4.173  19.298  0.00  0.00    +0.000 OA
ATOM     16  H   UNL     1       3.193   4.742  17.929  0.00  0.00    +0.000 HD
BRANCH  14  17
ATOM     17  C   UNL     1       5.541   4.571  16.906  0.00  0.00    +0.000 C 
ATOM     18  F   UNL     1       5.154   5.806  16.470  0.00  0.00    +0.000 F 
ATOM     19  F   UNL     1       6.882   4.501  16.692  0.00  0.00    +0.000 F 
ATOM     20  F   UNL     1       4.957   3.669  16.077  0.00  0.00    +0.000 F 
ENDBRANCH  14  17
ENDBRANCH   1  13
BRANCH   1  21
ATOM     21  C   UNL     1       2.584   2.801  20.092  0.00  0.00    +0.000 C 
BRANCH  21  22
ATOM     22  C   UNL     1       2.228   2.247  18.739  0.00  0.00    +0.000 C 
ATOM     23  O   UNL     1       1.261   2.575  18.072  0.00  0.00    +0.000 OA
BRANCH  22  24
ATOM     24  O   UNL     1       3.104   1.304  18.321  0.00  0.00    +0.000 OA
ATOM     25  H   UNL     1       3.399   1.404  17.395  0.00  0.00    +0.000 HD
ENDBRANCH  22  24
ENDBRANCH  21  22
ENDBRANCH   1  21
TORSDOF 7
ENDMDL
