MODEL 1
REMARK VINA RESULT:      -9.0      0.000      0.000
REMARK  Name = 
REMARK  6 active torsions:
REMARK  status: ('A' for Active; 'I' for Inactive)
REMARK    1  A    between atoms: C_1  and  C_2
REMARK    2  A    between atoms: C_6  and  C_7
REMARK    3  A    between atoms: N_9  and  C_10
REMARK    4  A    between atoms: C_10  and  C_11
REMARK    5  A    between atoms: C_11  and  N_12
REMARK    6  A    between atoms: C_21  and  C_22
REMARK                            x       y       z     vdW  Elec       q    Type
REMARK                         _______ _______ _______ _____ _____    ______ ____
ROOT
ATOM      1  N   UNL     1       3.768   5.360  17.535  0.00  0.00    +0.000 NA
ATOM      2  C   UNL     1       2.771   4.265  17.515  0.00  0.00    +0.000 C 
ATOM      3  C   UNL     1       2.470   3.741  18.888  0.00  0.00    +0.000 A 
ATOM      4  C   UNL     1       2.934   2.462  19.228  0.00  0.00    +0.000 A 
ATOM      5  C   UNL     1       3.054   2.095  20.562  0.00  0.00    +0.000 A 
ATOM      6  C   UNL     1       2.604   2.959  21.558  0.00  0.00    +0.000 A 
ATOM      7  C   UNL     1       2.018   4.183  21.222  0.00  0.00    +0.000 A 
ATOM      8  C   UNL     1       1.971   4.585  19.888  0.00  0.00    +0.000 A 
ATOM      9  O   UNL     1       1.450   5.816  19.585  0.00  0.00    +0.000 OA
ATOM     10  C   UNL     1       2.455   6.812  19.278  0.00  0.00    +0.000 C 
ATOM     11  C   UNL     1       3.042   6.637  17.837  0.00  0.00    +0.000 C 
ENDROOT
BRANCH  10  12
ATOM     12  C   UNL     1       1.835   8.197  19.425  0.00  0.00    +0.000 A 
ATOM     13  C   UNL     1       1.751   9.094  18.351  0.00  0.00    +0.000 A 
ATOM     14  C   UNL     1       1.177  10.357  18.518  0.00  0.00    +0.000 A 
ATOM     15  C   UNL     1       0.684  10.747  19.763  0.00  0.00    +0.000 A 
ATOM     16  C   UNL     1       0.763   9.870  20.843  0.00  0.00    +0.000 A 
ATOM     17  C   UNL     1       1.335   8.611  20.668  0.00  0.00    +0.000 A 
ATOM     18  F   UNL     1       1.398   7.784  21.722  0.00  0.00    +0.000 F 
ENDBRANCH  10  12
BRANCH   1  19
ATOM     19  C   UNL     1       4.887   5.203  18.507  0.00  0.00    +0.000 C 
BRANCH  19  20
ATOM     20  C   UNL     1       6.278   4.616  18.165  0.00  0.00    +0.000 C 
BRANCH  20  23
ATOM     21  C   UNL     1       6.878   5.051  15.763  0.00  0.00    +0.000 C 
ATOM     22  O   UNL     1       7.467   6.082  16.048  0.00  0.00    +0.000 OA
ATOM     23  N   UNL     1       6.309   4.267  16.729  0.00  0.00    +0.000 N 
ATOM     24  H   UNL     1       5.832   3.418  16.455  0.00  0.00    +0.000 HD
BRANCH  21  30
ATOM     25  C   UNL     1       8.598   5.857  12.876  0.00  0.00    +0.000 C 
ATOM     26  C   UNL     1       7.477   4.951  13.216  0.00  0.00    +0.000 A 
ATOM     27  O   UNL     1       7.008   4.250  12.139  0.00  0.00    +0.000 OA
ATOM     28  C   UNL     1       6.021   3.441  12.571  0.00  0.00    +0.000 A 
ATOM     29  C   UNL     1       5.838   3.606  13.922  0.00  0.00    +0.000 A 
ATOM     30  C   UNL     1       6.775   4.602  14.366  0.00  0.00    +0.000 A 
ENDBRANCH  21  30
ENDBRANCH  20  23
ENDBRANCH  19  20
ENDBRANCH   1  19
TORSDOF 5
ENDMDL
MODEL 2
REMARK VINA RESULT:      -8.3      0.868      1.244
REMARK  Name = 
REMARK  6 active torsions:
REMARK  status: ('A' for Active; 'I' for Inactive)
REMARK    1  A    between atoms: C_1  and  C_2
REMARK    2  A    between atoms: C_6  and  C_7
REMARK    3  A    between atoms: N_9  and  C_10
REMARK    4  A    between atoms: C_10  and  C_11
REMARK    5  A    between atoms: C_11  and  N_12
REMARK    6  A    between atoms: C_21  and  C_22
REMARK                            x       y       z     vdW  Elec       q    Type
REMARK                         _______ _______ _______ _____ _____    ______ ____
ROOT
ATOM      1  N   UNL     1       3.946   5.496  17.580  0.00  0.00    +0.000 NA
ATOM      2  C   UNL     1       3.000   4.363  17.453  0.00  0.00    +0.000 C 
ATOM      3  C   UNL     1       2.708   3.711  18.772  0.00  0.00    +0.000 A 
ATOM      4  C   UNL     1       3.226   2.429  19.009  0.00  0.00    +0.000 A 
ATOM      5  C   UNL     1       3.348   1.955  20.308  0.00  0.00    +0.000 A 
ATOM      6  C   UNL     1       2.849   2.709  21.367  0.00  0.00    +0.000 A 
ATOM      7  C   UNL     1       2.211   3.931  21.128  0.00  0.00    +0.000 A 
ATOM      8  C   UNL     1       2.161   4.444  19.833  0.00  0.00    +0.000 A 
ATOM      9  O   UNL     1       1.588   5.672  19.628  0.00  0.00    +0.000 OA
ATOM     10  C   UNL     1       2.550   6.733  19.422  0.00  0.00    +0.000 C 
ATOM     11  C   UNL     1       3.160   6.709  17.980  0.00  0.00    +0.000 C 
ENDROOT
BRANCH  10  12
ATOM     12  C   UNL     1       1.867   8.072  19.677  0.00  0.00    +0.000 A 
ATOM     13  C   UNL     1       1.441   8.460  20.956  0.00  0.00    +0.000 A 
ATOM     14  C   UNL     1       0.817   9.693  21.158  0.00  0.00    +0.000 A 
ATOM     15  C   UNL     1       0.602  10.557  20.084  0.00  0.00    +0.000 A 
ATOM     16  C   UNL     1       1.015  10.187  18.806  0.00  0.00    +0.000 A 
ATOM     17  C   UNL     1       1.638   8.955  18.613  0.00  0.00    +0.000 A 
ATOM     18  F   UNL     1       2.029   8.623  17.374  0.00  0.00    +0.000 F 
ENDBRANCH  10  12
BRANCH   1  19
ATOM     19  C   UNL     1       5.061   5.306  18.552  0.00  0.00    +0.000 C 
BRANCH  19  20
ATOM     20  C   UNL     1       6.450   4.722  18.199  0.00  0.00    +0.000 C 
BRANCH  20  23
ATOM     21  C   UNL     1       6.930   5.143  15.767  0.00  0.00    +0.000 C 
ATOM     22  O   UNL     1       7.445   6.224  16.008  0.00  0.00    +0.000 OA
ATOM     23  N   UNL     1       6.458   4.341  16.771  0.00  0.00    +0.000 N 
ATOM     24  H   UNL     1       6.041   3.451  16.534  0.00  0.00    +0.000 HD
BRANCH  21  30
ATOM     25  C   UNL     1       8.620   5.865  12.841  0.00  0.00    +0.000 C 
ATOM     26  C   UNL     1       7.505   4.967  13.219  0.00  0.00    +0.000 A 
ATOM     27  O   UNL     1       7.026   4.234  12.168  0.00  0.00    +0.000 OA
ATOM     28  C   UNL     1       6.045   3.437  12.633  0.00  0.00    +0.000 A 
ATOM     29  C   UNL     1       5.874   3.642  13.980  0.00  0.00    +0.000 A 
ATOM     30  C   UNL     1       6.815   4.652  14.385  0.00  0.00    +0.000 A 
ENDBRANCH  21  30
ENDBRANCH  20  23
ENDBRANCH  19  20
ENDBRANCH   1  19
TORSDOF 5
ENDMDL
MODEL 3
REMARK VINA RESULT:      -8.0      4.954     10.019
REMARK  Name = 
REMARK  6 active torsions:
REMARK  status: ('A' for Active; 'I' for Inactive)
REMARK    1  A    between atoms: C_1  and  C_2
REMARK    2  A    between atoms: C_6  and  C_7
REMARK    3  A    between atoms: N_9  and  C_10
REMARK    4  A    between atoms: C_10  and  C_11
REMARK    5  A    between atoms: C_11  and  N_12
REMARK    6  A    between atoms: C_21  and  C_22
REMARK                            x       y       z     vdW  Elec       q    Type
REMARK                         _______ _______ _______ _____ _____    ______ ____
ROOT
ATOM      1  N   UNL     1       0.402  11.037  18.645  0.00  0.00    +0.000 NA
ATOM      2  C   UNL     1       0.937  11.822  19.782  0.00  0.00    +0.000 C 
ATOM      3  C   UNL     1       0.524  11.258  21.110  0.00  0.00    +0.000 A 
ATOM      4  C   UNL     1      -0.410  11.974  21.874  0.00  0.00    +0.000 A 
ATOM      5  C   UNL     1      -1.128  11.335  22.877  0.00  0.00    +0.000 A 
ATOM      6  C   UNL     1      -0.834  10.012  23.198  0.00  0.00    +0.000 A 
ATOM      7  C   UNL     1       0.187   9.329  22.528  0.00  0.00    +0.000 A 
ATOM      8  C   UNL     1       0.851   9.945  21.469  0.00  0.00    +0.000 A 
ATOM      9  O   UNL     1       1.805   9.238  20.785  0.00  0.00    +0.000 OA
ATOM     10  C   UNL     1       1.354   8.749  19.499  0.00  0.00    +0.000 C 
ATOM     11  C   UNL     1       1.324   9.877  18.414  0.00  0.00    +0.000 C 
ENDROOT
BRANCH  10  12
ATOM     12  C   UNL     1       2.275   7.619  19.052  0.00  0.00    +0.000 A 
ATOM     13  C   UNL     1       3.107   7.735  17.930  0.00  0.00    +0.000 A 
ATOM     14  C   UNL     1       3.940   6.681  17.546  0.00  0.00    +0.000 A 
ATOM     15  C   UNL     1       3.951   5.491  18.274  0.00  0.00    +0.000 A 
ATOM     16  C   UNL     1       3.128   5.357  19.390  0.00  0.00    +0.000 A 
ATOM     17  C   UNL     1       2.301   6.414  19.768  0.00  0.00    +0.000 A 
ATOM     18  F   UNL     1       1.520   6.262  20.848  0.00  0.00    +0.000 F 
ENDBRANCH  10  12
BRANCH   1  19
ATOM     19  C   UNL     1      -0.987  10.521  18.807  0.00  0.00    +0.000 C 
BRANCH  19  20
ATOM     20  C   UNL     1      -1.983  10.288  17.646  0.00  0.00    +0.000 C 
BRANCH  20  23
ATOM     21  C   UNL     1      -4.303  11.203  17.326  0.00  0.00    +0.000 C 
ATOM     22  O   UNL     1      -4.102  11.427  16.142  0.00  0.00    +0.000 OA
ATOM     23  N   UNL     1      -3.346  10.621  18.112  0.00  0.00    +0.000 N 
ATOM     24  H   UNL     1      -3.549  10.448  19.087  0.00  0.00    +0.000 HD
BRANCH  21  30
ATOM     25  C   UNL     1      -6.600  13.736  16.829  0.00  0.00    +0.000 C 
ATOM     26  C   UNL     1      -6.499  12.569  17.734  0.00  0.00    +0.000 A 
ATOM     27  O   UNL     1      -7.572  12.447  18.574  0.00  0.00    +0.000 OA
ATOM     28  C   UNL     1      -7.387  11.342  19.322  0.00  0.00    +0.000 A 
ATOM     29  C   UNL     1      -6.202  10.738  18.981  0.00  0.00    +0.000 A 
ATOM     30  C   UNL     1      -5.594  11.534  17.948  0.00  0.00    +0.000 A 
ENDBRANCH  21  30
ENDBRANCH  20  23
ENDBRANCH  19  20
ENDBRANCH   1  19
TORSDOF 5
ENDMDL
MODEL 4
REMARK VINA RESULT:      -8.0      2.684      7.698
REMARK  Name = 
REMARK  6 active torsions:
REMARK  status: ('A' for Active; 'I' for Inactive)
REMARK    1  A    between atoms: C_1  and  C_2
REMARK    2  A    between atoms: C_6  and  C_7
REMARK    3  A    between atoms: N_9  and  C_10
REMARK    4  A    between atoms: C_10  and  C_11
REMARK    5  A    between atoms: C_11  and  N_12
REMARK    6  A    between atoms: C_21  and  C_22
REMARK                            x       y       z     vdW  Elec       q    Type
REMARK                         _______ _______ _______ _____ _____    ______ ____
ROOT
ATOM      1  N   UNL     1       4.968   5.824  18.464  0.00  0.00    +0.000 NA
ATOM      2  C   UNL     1       5.087   4.617  19.315  0.00  0.00    +0.000 C 
ATOM      3  C   UNL     1       3.989   3.626  19.058  0.00  0.00    +0.000 A 
ATOM      4  C   UNL     1       3.007   3.452  20.045  0.00  0.00    +0.000 A 
ATOM      5  C   UNL     1       1.781   2.888  19.717  0.00  0.00    +0.000 A 
ATOM      6  C   UNL     1       1.573   2.391  18.432  0.00  0.00    +0.000 A 
ATOM      7  C   UNL     1       2.594   2.442  17.478  0.00  0.00    +0.000 A 
ATOM      8  C   UNL     1       3.795   3.080  17.783  0.00  0.00    +0.000 A 
ATOM      9  O   UNL     1       4.760   3.174  16.814  0.00  0.00    +0.000 OA
ATOM     10  C   UNL     1       4.851   4.488  16.213  0.00  0.00    +0.000 C 
ATOM     11  C   UNL     1       5.590   5.513  17.136  0.00  0.00    +0.000 C 
ENDROOT
BRANCH  10  12
ATOM     12  C   UNL     1       5.578   4.367  14.878  0.00  0.00    +0.000 A 
ATOM     13  C   UNL     1       5.021   3.689  13.784  0.00  0.00    +0.000 A 
ATOM     14  C   UNL     1       5.714   3.596  12.574  0.00  0.00    +0.000 A 
ATOM     15  C   UNL     1       6.976   4.172  12.439  0.00  0.00    +0.000 A 
ATOM     16  C   UNL     1       7.547   4.846  13.517  0.00  0.00    +0.000 A 
ATOM     17  C   UNL     1       6.849   4.937  14.720  0.00  0.00    +0.000 A 
ATOM     18  F   UNL     1       7.418   5.593  15.743  0.00  0.00    +0.000 F 
ENDBRANCH  10  12
BRANCH   1  19
ATOM     19  C   UNL     1       3.582   6.326  18.239  0.00  0.00    +0.000 C 
BRANCH  19  20
ATOM     20  C   UNL     1       3.231   7.695  17.607  0.00  0.00    +0.000 C 
BRANCH  20  23
ATOM     21  C   UNL     1       1.721   9.601  18.247  0.00  0.00    +0.000 C 
ATOM     22  O   UNL     1       2.265  10.357  17.458  0.00  0.00    +0.000 OA
ATOM     23  N   UNL     1       2.104   8.291  18.354  0.00  0.00    +0.000 N 
ATOM     24  H   UNL     1       1.628   7.693  19.016  0.00  0.00    +0.000 HD
BRANCH  21  30
ATOM     25  C   UNL     1      -1.596  10.356  17.644  0.00  0.00    +0.000 C 
ATOM     26  C   UNL     1      -0.711  10.371  18.832  0.00  0.00    +0.000 A 
ATOM     27  O   UNL     1      -1.352  10.769  19.973  0.00  0.00    +0.000 OA
ATOM     28  C   UNL     1      -0.465  10.714  20.985  0.00  0.00    +0.000 A 
ATOM     29  C   UNL     1       0.753  10.285  20.518  0.00  0.00    +0.000 A 
ATOM     30  C   UNL     1       0.619  10.066  19.102  0.00  0.00    +0.000 A 
ENDBRANCH  21  30
ENDBRANCH  20  23
ENDBRANCH  19  20
ENDBRANCH   1  19
TORSDOF 5
ENDMDL
MODEL 5
REMARK VINA RESULT:      -7.9      2.688      8.033
REMARK  Name = 
REMARK  6 active torsions:
REMARK  status: ('A' for Active; 'I' for Inactive)
REMARK    1  A    between atoms: C_1  and  C_2
REMARK    2  A    between atoms: C_6  and  C_7
REMARK    3  A    between atoms: N_9  and  C_10
REMARK    4  A    between atoms: C_10  and  C_11
REMARK    5  A    between atoms: C_11  and  N_12
REMARK    6  A    between atoms: C_21  and  C_22
REMARK                            x       y       z     vdW  Elec       q    Type
REMARK                         _______ _______ _______ _____ _____    ______ ____
ROOT
ATOM      1  N   UNL     1       4.154   6.278  18.718  0.00  0.00    +0.000 NA
ATOM      2  C   UNL     1       4.274   5.171  19.695  0.00  0.00    +0.000 C 
ATOM      3  C   UNL     1       3.324   4.046  19.403  0.00  0.00    +0.000 A 
ATOM      4  C   UNL     1       2.239   3.852  20.271  0.00  0.00    +0.000 A 
ATOM      5  C   UNL     1       1.130   3.130  19.850  0.00  0.00    +0.000 A 
ATOM      6  C   UNL     1       1.147   2.502  18.607  0.00  0.00    +0.000 A 
ATOM      7  C   UNL     1       2.279   2.582  17.789  0.00  0.00    +0.000 A 
ATOM      8  C   UNL     1       3.359   3.372  18.177  0.00  0.00    +0.000 A 
ATOM      9  O   UNL     1       4.433   3.488  17.332  0.00  0.00    +0.000 OA
ATOM     10  C   UNL     1       4.475   4.745  16.617  0.00  0.00    +0.000 C 
ATOM     11  C   UNL     1       4.978   5.923  17.517  0.00  0.00    +0.000 C 
ENDROOT
BRANCH  10  12
ATOM     12  C   UNL     1       5.385   4.589  15.404  0.00  0.00    +0.000 A 
ATOM     13  C   UNL     1       4.928   4.051  14.192  0.00  0.00    +0.000 A 
ATOM     14  C   UNL     1       5.787   3.921  13.099  0.00  0.00    +0.000 A 
ATOM     15  C   UNL     1       7.120   4.320  13.199  0.00  0.00    +0.000 A 
ATOM     16  C   UNL     1       7.593   4.854  14.395  0.00  0.00    +0.000 A 
ATOM     17  C   UNL     1       6.729   4.982  15.482  0.00  0.00    +0.000 A 
ATOM     18  F   UNL     1       7.207   5.501  16.622  0.00  0.00    +0.000 F 
ENDBRANCH  10  12
BRANCH   1  19
ATOM     19  C   UNL     1       2.770   6.603  18.270  0.00  0.00    +0.000 C 
BRANCH  19  20
ATOM     20  C   UNL     1       2.197   8.035  18.139  0.00  0.00    +0.000 C 
BRANCH  20  23
ATOM     21  C   UNL     1       1.075   9.652  19.703  0.00  0.00    +0.000 C 
ATOM     22  O   UNL     1       1.184  10.571  18.906  0.00  0.00    +0.000 OA
ATOM     23  N   UNL     1       1.505   8.390  19.396  0.00  0.00    +0.000 N 
ATOM     24  H   UNL     1       1.395   7.653  20.080  0.00  0.00    +0.000 HD
BRANCH  21  30
ATOM     25  C   UNL     1      -1.319  11.850  20.878  0.00  0.00    +0.000 C 
ATOM     26  C   UNL     1      -0.502  10.766  21.471  0.00  0.00    +0.000 A 
ATOM     27  O   UNL     1      -0.754  10.572  22.802  0.00  0.00    +0.000 OA
ATOM     28  C   UNL     1       0.016   9.549  23.222  0.00  0.00    +0.000 A 
ATOM     29  C   UNL     1       0.772   9.072  22.180  0.00  0.00    +0.000 A 
ATOM     30  C   UNL     1       0.457   9.865  21.021  0.00  0.00    +0.000 A 
ENDBRANCH  21  30
ENDBRANCH  20  23
ENDBRANCH  19  20
ENDBRANCH   1  19
TORSDOF 5
ENDMDL
MODEL 6
REMARK VINA RESULT:      -7.8      2.685      7.992
REMARK  Name = 
REMARK  6 active torsions:
REMARK  status: ('A' for Active; 'I' for Inactive)
REMARK    1  A    between atoms: C_1  and  C_2
REMARK    2  A    between atoms: C_6  and  C_7
REMARK    3  A    between atoms: N_9  and  C_10
REMARK    4  A    between atoms: C_10  and  C_11
REMARK    5  A    between atoms: C_11  and  N_12
REMARK    6  A    between atoms: C_21  and  C_22
REMARK                            x       y       z     vdW  Elec       q    Type
REMARK                         _______ _______ _______ _____ _____    ______ ____
ROOT
ATOM      1  N   UNL     1       4.804   6.260  18.198  0.00  0.00    +0.000 NA
ATOM      2  C   UNL     1       5.016   5.138  19.141  0.00  0.00    +0.000 C 
ATOM      3  C   UNL     1       4.082   3.992  18.885  0.00  0.00    +0.000 A 
ATOM      4  C   UNL     1       3.059   3.748  19.815  0.00  0.00    +0.000 A 
ATOM      5  C   UNL     1       1.947   3.002  19.448  0.00  0.00    +0.000 A 
ATOM      6  C   UNL     1       1.904   2.400  18.193  0.00  0.00    +0.000 A 
ATOM      7  C   UNL     1       2.979   2.529  17.308  0.00  0.00    +0.000 A 
ATOM      8  C   UNL     1       4.059   3.343  17.645  0.00  0.00    +0.000 A 
ATOM      9  O   UNL     1       5.074   3.507  16.738  0.00  0.00    +0.000 OA
ATOM     10  C   UNL     1       5.036   4.779  16.048  0.00  0.00    +0.000 C 
ATOM     11  C   UNL     1       5.561   5.953  16.940  0.00  0.00    +0.000 C 
ENDROOT
BRANCH  10  12
ATOM     12  C   UNL     1       5.872   4.674  14.778  0.00  0.00    +0.000 A 
ATOM     13  C   UNL     1       7.114   5.312  14.647  0.00  0.00    +0.000 A 
ATOM     14  C   UNL     1       7.857   5.197  13.470  0.00  0.00    +0.000 A 
ATOM     15  C   UNL     1       7.368   4.447  12.400  0.00  0.00    +0.000 A 
ATOM     16  C   UNL     1       6.135   3.809  12.510  0.00  0.00    +0.000 A 
ATOM     17  C   UNL     1       5.400   3.927  13.689  0.00  0.00    +0.000 A 
ATOM     18  F   UNL     1       4.216   3.301  13.772  0.00  0.00    +0.000 F 
ENDBRANCH  10  12
BRANCH   1  19
ATOM     19  C   UNL     1       3.386   6.553  17.844  0.00  0.00    +0.000 C 
BRANCH  19  20
ATOM     20  C   UNL     1       2.785   7.973  17.707  0.00  0.00    +0.000 C 
BRANCH  20  23
ATOM     21  C   UNL     1       1.215   9.326  19.130  0.00  0.00    +0.000 C 
ATOM     22  O   UNL     1       0.745   9.892  18.156  0.00  0.00    +0.000 OA
ATOM     23  N   UNL     1       2.177   8.361  18.997  0.00  0.00    +0.000 N 
ATOM     24  H   UNL     1       2.541   7.912  19.826  0.00  0.00    +0.000 HD
BRANCH  21  30
ATOM     25  C   UNL     1       0.897  12.280  20.894  0.00  0.00    +0.000 C 
ATOM     26  C   UNL     1       0.640  10.850  21.180  0.00  0.00    +0.000 A 
ATOM     27  O   UNL     1       0.147  10.634  22.438  0.00  0.00    +0.000 OA
ATOM     28  C   UNL     1      -0.077   9.312  22.572  0.00  0.00    +0.000 A 
ATOM     29  C   UNL     1       0.264   8.659  21.414  0.00  0.00    +0.000 A 
ATOM     30  C   UNL     1       0.750   9.648  20.488  0.00  0.00    +0.000 A 
ENDBRANCH  21  30
ENDBRANCH  20  23
ENDBRANCH  19  20
ENDBRANCH   1  19
TORSDOF 5
ENDMDL
MODEL 7
REMARK VINA RESULT:      -7.8      4.887     10.151
REMARK  Name = 
REMARK  6 active torsions:
REMARK  status: ('A' for Active; 'I' for Inactive)
REMARK    1  A    between atoms: C_1  and  C_2
REMARK    2  A    between atoms: C_6  and  C_7
REMARK    3  A    between atoms: N_9  and  C_10
REMARK    4  A    between atoms: C_10  and  C_11
REMARK    5  A    between atoms: C_11  and  N_12
REMARK    6  A    between atoms: C_21  and  C_22
REMARK                            x       y       z     vdW  Elec       q    Type
REMARK                         _______ _______ _______ _____ _____    ______ ____
ROOT
ATOM      1  N   UNL     1       0.384  11.033  18.647  0.00  0.00    +0.000 NA
ATOM      2  C   UNL     1       0.914  11.821  19.783  0.00  0.00    +0.000 C 
ATOM      3  C   UNL     1       0.499  11.259  21.112  0.00  0.00    +0.000 A 
ATOM      4  C   UNL     1      -0.438  11.975  21.872  0.00  0.00    +0.000 A 
ATOM      5  C   UNL     1      -1.156  11.337  22.874  0.00  0.00    +0.000 A 
ATOM      6  C   UNL     1      -0.860  10.014  23.199  0.00  0.00    +0.000 A 
ATOM      7  C   UNL     1       0.164   9.333  22.534  0.00  0.00    +0.000 A 
ATOM      8  C   UNL     1       0.829   9.948  21.474  0.00  0.00    +0.000 A 
ATOM      9  O   UNL     1       1.787   9.241  20.794  0.00  0.00    +0.000 OA
ATOM     10  C   UNL     1       1.340   8.749  19.508  0.00  0.00    +0.000 C 
ATOM     11  C   UNL     1       1.309   9.874  18.420  0.00  0.00    +0.000 C 
ENDROOT
BRANCH  10  12
ATOM     12  C   UNL     1       2.264   7.620  19.066  0.00  0.00    +0.000 A 
ATOM     13  C   UNL     1       3.069   7.720  17.922  0.00  0.00    +0.000 A 
ATOM     14  C   UNL     1       3.906   6.667  17.544  0.00  0.00    +0.000 A 
ATOM     15  C   UNL     1       3.948   5.495  18.298  0.00  0.00    +0.000 A 
ATOM     16  C   UNL     1       3.153   5.377  19.435  0.00  0.00    +0.000 A 
ATOM     17  C   UNL     1       2.321   6.432  19.808  0.00  0.00    +0.000 A 
ATOM     18  F   UNL     1       1.567   6.295  20.908  0.00  0.00    +0.000 F 
ENDBRANCH  10  12
BRANCH   1  19
ATOM     19  C   UNL     1      -1.004  10.513  18.807  0.00  0.00    +0.000 C 
BRANCH  19  20
ATOM     20  C   UNL     1      -2.092  10.547  17.706  0.00  0.00    +0.000 C 
BRANCH  20  23
ATOM     21  C   UNL     1      -4.435  11.443  17.529  0.00  0.00    +0.000 C 
ATOM     22  O   UNL     1      -4.508  11.148  16.347  0.00  0.00    +0.000 OA
ATOM     23  N   UNL     1      -3.318  11.154  18.266  0.00  0.00    +0.000 N 
ATOM     24  H   UNL     1      -3.295  11.411  19.244  0.00  0.00    +0.000 HD
BRANCH  21  30
ATOM     25  C   UNL     1      -4.828  12.793  20.686  0.00  0.00    +0.000 C 
ATOM     26  C   UNL     1      -5.691  12.635  19.493  0.00  0.00    +0.000 A 
ATOM     27  O   UNL     1      -6.945  13.153  19.666  0.00  0.00    +0.000 OA
ATOM     28  C   UNL     1      -7.625  12.982  18.515  0.00  0.00    +0.000 A 
ATOM     29  C   UNL     1      -6.827  12.356  17.589  0.00  0.00    +0.000 A 
ATOM     30  C   UNL     1      -5.556  12.106  18.213  0.00  0.00    +0.000 A 
ENDBRANCH  21  30
ENDBRANCH  20  23
ENDBRANCH  19  20
ENDBRANCH   1  19
TORSDOF 5
ENDMDL
MODEL 8
REMARK VINA RESULT:      -7.8      0.804      1.324
REMARK  Name = 
REMARK  6 active torsions:
REMARK  status: ('A' for Active; 'I' for Inactive)
REMARK    1  A    between atoms: C_1  and  C_2
REMARK    2  A    between atoms: C_6  and  C_7
REMARK    3  A    between atoms: N_9  and  C_10
REMARK    4  A    between atoms: C_10  and  C_11
REMARK    5  A    between atoms: C_11  and  N_12
REMARK    6  A    between atoms: C_21  and  C_22
REMARK                            x       y       z     vdW  Elec       q    Type
REMARK                         _______ _______ _______ _____ _____    ______ ____
ROOT
ATOM      1  N   UNL     1       3.712   5.449  17.447  0.00  0.00    +0.000 NA
ATOM      2  C   UNL     1       2.727   4.342  17.460  0.00  0.00    +0.000 C 
ATOM      3  C   UNL     1       2.476   3.815  18.842  0.00  0.00    +0.000 A 
ATOM      4  C   UNL     1       2.966   2.541  19.166  0.00  0.00    +0.000 A 
ATOM      5  C   UNL     1       3.133   2.175  20.495  0.00  0.00    +0.000 A 
ATOM      6  C   UNL     1       2.706   3.034  21.505  0.00  0.00    +0.000 A 
ATOM      7  C   UNL     1       2.096   4.252  21.189  0.00  0.00    +0.000 A 
ATOM      8  C   UNL     1       2.001   4.654  19.858  0.00  0.00    +0.000 A 
ATOM      9  O   UNL     1       1.456   5.879  19.573  0.00  0.00    +0.000 OA
ATOM     10  C   UNL     1       2.440   6.885  19.233  0.00  0.00    +0.000 C 
ATOM     11  C   UNL     1       2.981   6.717  17.774  0.00  0.00    +0.000 C 
ENDROOT
BRANCH  10  12
ATOM     12  C   UNL     1       1.810   8.263  19.401  0.00  0.00    +0.000 A 
ATOM     13  C   UNL     1       1.707   9.171  18.337  0.00  0.00    +0.000 A 
ATOM     14  C   UNL     1       1.124  10.427  18.524  0.00  0.00    +0.000 A 
ATOM     15  C   UNL     1       0.640  10.799  19.777  0.00  0.00    +0.000 A 
ATOM     16  C   UNL     1       0.737   9.912  20.847  0.00  0.00    +0.000 A 
ATOM     17  C   UNL     1       1.319   8.660  20.653  0.00  0.00    +0.000 A 
ATOM     18  F   UNL     1       1.399   7.822  21.698  0.00  0.00    +0.000 F 
ENDBRANCH  10  12
BRANCH   1  19
ATOM     19  C   UNL     1       4.864   5.305  18.383  0.00  0.00    +0.000 C 
BRANCH  19  20
ATOM     20  C   UNL     1       6.162   4.522  18.071  0.00  0.00    +0.000 C 
BRANCH  20  23
ATOM     21  C   UNL     1       6.236   3.997  15.613  0.00  0.00    +0.000 C 
ATOM     22  O   UNL     1       5.522   3.016  15.753  0.00  0.00    +0.000 OA
ATOM     23  N   UNL     1       6.561   4.797  16.674  0.00  0.00    +0.000 N 
ATOM     24  H   UNL     1       7.152   5.603  16.519  0.00  0.00    +0.000 HD
BRANCH  21  30
ATOM     25  C   UNL     1       5.444   3.031  12.391  0.00  0.00    +0.000 C 
ATOM     26  C   UNL     1       6.427   3.955  13.002  0.00  0.00    +0.000 A 
ATOM     27  O   UNL     1       7.209   4.594  12.079  0.00  0.00    +0.000 OA
ATOM     28  C   UNL     1       8.035   5.425  12.742  0.00  0.00    +0.000 A 
ATOM     29  C   UNL     1       7.804   5.336  14.093  0.00  0.00    +0.000 A 
ATOM     30  C   UNL     1       6.759   4.367  14.288  0.00  0.00    +0.000 A 
ENDBRANCH  21  30
ENDBRANCH  20  23
ENDBRANCH  19  20
ENDBRANCH   1  19
TORSDOF 5
ENDMDL
MODEL 9
REMARK VINA RESULT:      -7.8      2.627      7.908
REMARK  Name = 
REMARK  6 active torsions:
REMARK  status: ('A' for Active; 'I' for Inactive)
REMARK    1  A    between atoms: C_1  and  C_2
REMARK    2  A    between atoms: C_6  and  C_7
REMARK    3  A    between atoms: N_9  and  C_10
REMARK    4  A    between atoms: C_10  and  C_11
REMARK    5  A    between atoms: C_11  and  N_12
REMARK    6  A    between atoms: C_21  and  C_22
REMARK                            x       y       z     vdW  Elec       q    Type
REMARK                         _______ _______ _______ _____ _____    ______ ____
ROOT
ATOM      1  N   UNL     1       4.029   6.339  18.760  0.00  0.00    +0.000 NA
ATOM      2  C   UNL     1       4.144   5.245  19.752  0.00  0.00    +0.000 C 
ATOM      3  C   UNL     1       3.212   4.106  19.460  0.00  0.00    +0.000 A 
ATOM      4  C   UNL     1       2.114   3.911  20.311  0.00  0.00    +0.000 A 
ATOM      5  C   UNL     1       1.021   3.171  19.881  0.00  0.00    +0.000 A 
ATOM      6  C   UNL     1       1.067   2.528  18.646  0.00  0.00    +0.000 A 
ATOM      7  C   UNL     1       2.211   2.609  17.846  0.00  0.00    +0.000 A 
ATOM      8  C   UNL     1       3.276   3.417  18.242  0.00  0.00    +0.000 A 
ATOM      9  O   UNL     1       4.363   3.534  17.415  0.00  0.00    +0.000 OA
ATOM     10  C   UNL     1       4.403   4.782  16.684  0.00  0.00    +0.000 C 
ATOM     11  C   UNL     1       4.877   5.978  17.577  0.00  0.00    +0.000 C 
ENDROOT
BRANCH  10  12
ATOM     12  C   UNL     1       5.336   4.621  15.489  0.00  0.00    +0.000 A 
ATOM     13  C   UNL     1       4.911   4.044  14.284  0.00  0.00    +0.000 A 
ATOM     14  C   UNL     1       5.790   3.910  13.206  0.00  0.00    +0.000 A 
ATOM     15  C   UNL     1       7.111   4.345  13.318  0.00  0.00    +0.000 A 
ATOM     16  C   UNL     1       7.552   4.917  14.508  0.00  0.00    +0.000 A 
ATOM     17  C   UNL     1       6.669   5.049  15.579  0.00  0.00    +0.000 A 
ATOM     18  F   UNL     1       7.116   5.605  16.714  0.00  0.00    +0.000 F 
ENDBRANCH  10  12
BRANCH   1  19
ATOM     19  C   UNL     1       2.649   6.642  18.284  0.00  0.00    +0.000 C 
BRANCH  19  20
ATOM     20  C   UNL     1       2.180   8.018  17.753  0.00  0.00    +0.000 C 
BRANCH  20  23
ATOM     21  C   UNL     1       0.727   9.741  18.867  0.00  0.00    +0.000 C 
ATOM     22  O   UNL     1       0.011   9.841  17.884  0.00  0.00    +0.000 OA
ATOM     23  N   UNL     1       1.773   8.858  18.899  0.00  0.00    +0.000 N 
ATOM     24  H   UNL     1       2.343   8.801  19.732  0.00  0.00    +0.000 HD
BRANCH  21  30
ATOM     25  C   UNL     1      -0.122   8.973  22.127  0.00  0.00    +0.000 C 
ATOM     26  C   UNL     1       0.131  10.221  21.371  0.00  0.00    +0.000 A 
ATOM     27  O   UNL     1       0.013  11.347  22.139  0.00  0.00    +0.000 OA
ATOM     28  C   UNL     1       0.294  12.409  21.360  0.00  0.00    +0.000 A 
ATOM     29  C   UNL     1       0.594  11.990  20.087  0.00  0.00    +0.000 A 
ATOM     30  C   UNL     1       0.481  10.556  20.067  0.00  0.00    +0.000 A 
ENDBRANCH  21  30
ENDBRANCH  20  23
ENDBRANCH  19  20
ENDBRANCH   1  19
TORSDOF 5
ENDMDL
