MODEL 1
REMARK VINA RESULT:      -9.3      0.000      0.000
REMARK  Name = 
REMARK  3 active torsions:
REMARK  status: ('A' for Active; 'I' for Inactive)
REMARK    1  A    between atoms: C_1  and  O_2
REMARK    2  A    between atoms: O_2  and  C_3
REMARK    3  A    between atoms: C_7  and  C_8
REMARK                            x       y       z     vdW  Elec       q    Type
REMARK                         _______ _______ _______ _____ _____    ______ ____
ROOT
ATOM      1  C   UNL     1       6.208   5.580  15.441  0.00  0.00    +0.000 A 
ATOM      2  C   UNL     1       7.300   6.042  16.202  0.00  0.00    +0.000 A 
ATOM      3  C   UNL     1       7.182   6.188  17.578  0.00  0.00    +0.000 A 
ATOM      4  C   UNL     1       5.952   5.926  18.167  0.00  0.00    +0.000 A 
ATOM      5  C   UNL     1       4.789   5.946  17.409  0.00  0.00    +0.000 A 
ATOM      6  C   UNL     1       4.933   5.653  16.040  0.00  0.00    +0.000 A 
ATOM      7  N   UNL     1       3.530   5.799  18.052  0.00  0.00    +0.000 N 
ATOM      8  C   UNL     1       3.123   4.478  18.362  0.00  0.00    +0.000 A 
ATOM      9  C   UNL     1       1.751   4.199  18.383  0.00  0.00    +0.000 A 
ATOM     10  C   UNL     1       1.309   2.884  18.464  0.00  0.00    +0.000 A 
ATOM     11  C   UNL     1       2.237   1.847  18.540  0.00  0.00    +0.000 A 
ATOM     12  C   UNL     1       3.601   2.132  18.661  0.00  0.00    +0.000 A 
ATOM     13  C   UNL     1       4.051   3.453  18.649  0.00  0.00    +0.000 A 
ATOM     14  N   UNL     1       5.403   3.692  19.015  0.00  0.00    +0.000 N 
ATOM     15  C   UNL     1       6.016   4.919  19.261  0.00  0.00    +0.000 C 
ATOM     16  O   UNL     1       6.809   5.068  20.188  0.00  0.00    +0.000 OA
ATOM     17  H   UNL     1       3.547   6.318  18.937  0.00  0.00    +0.000 HD
ATOM     18  H   UNL     1       5.901   2.910  19.421  0.00  0.00    +0.000 HD
ENDROOT
BRANCH   1  23
ATOM     19  C   UNL     1       5.577   3.411  12.361  0.00  0.00    +0.000 A 
ATOM     20  C   UNL     1       6.746   3.608  11.635  0.00  0.00    +0.000 A 
ATOM     21  C   UNL     1       7.746   4.445  12.129  0.00  0.00    +0.000 A 
ATOM     22  C   UNL     1       7.596   5.073  13.371  0.00  0.00    +0.000 A 
ATOM     23  C   UNL     1       6.441   4.884  14.144  0.00  0.00    +0.000 A 
ATOM     24  C   UNL     1       5.428   4.063  13.588  0.00  0.00    +0.000 A 
BRANCH  19  26
ATOM     25  C   UNL     1       3.708   3.184  10.905  0.00  0.00    +0.000 C 
ATOM     26  O   UNL     1       4.658   2.581  11.779  0.00  0.00    +0.000 OA
ENDBRANCH  19  26
ENDBRANCH   1  23
TORSDOF 2
ENDMDL
MODEL 2
REMARK VINA RESULT:      -8.9      3.464      7.035
REMARK  Name = 
REMARK  3 active torsions:
REMARK  status: ('A' for Active; 'I' for Inactive)
REMARK    1  A    between atoms: C_1  and  O_2
REMARK    2  A    between atoms: O_2  and  C_3
REMARK    3  A    between atoms: C_7  and  C_8
REMARK                            x       y       z     vdW  Elec       q    Type
REMARK                         _______ _______ _______ _____ _____    ______ ____
ROOT
ATOM      1  C   UNL     1       1.911   5.640  19.652  0.00  0.00    +0.000 A 
ATOM      2  C   UNL     1       1.844   4.697  20.697  0.00  0.00    +0.000 A 
ATOM      3  C   UNL     1       2.531   3.494  20.600  0.00  0.00    +0.000 A 
ATOM      4  C   UNL     1       3.230   3.225  19.431  0.00  0.00    +0.000 A 
ATOM      5  C   UNL     1       2.917   3.892  18.253  0.00  0.00    +0.000 A 
ATOM      6  C   UNL     1       2.350   5.172  18.395  0.00  0.00    +0.000 A 
ATOM      7  N   UNL     1       3.557   3.514  17.042  0.00  0.00    +0.000 N 
ATOM      8  C   UNL     1       4.853   4.039  16.815  0.00  0.00    +0.000 A 
ATOM      9  C   UNL     1       5.256   4.251  15.492  0.00  0.00    +0.000 A 
ATOM     10  C   UNL     1       6.421   4.961  15.223  0.00  0.00    +0.000 A 
ATOM     11  C   UNL     1       7.191   5.446  16.277  0.00  0.00    +0.000 A 
ATOM     12  C   UNL     1       6.867   5.116  17.596  0.00  0.00    +0.000 A 
ATOM     13  C   UNL     1       5.737   4.345  17.874  0.00  0.00    +0.000 A 
ATOM     14  N   UNL     1       5.591   3.840  19.194  0.00  0.00    +0.000 N 
ATOM     15  C   UNL     1       4.665   2.904  19.652  0.00  0.00    +0.000 C 
ATOM     16  O   UNL     1       4.983   2.021  20.445  0.00  0.00    +0.000 OA
ATOM     17  H   UNL     1       3.644   2.492  17.017  0.00  0.00    +0.000 HD
ATOM     18  H   UNL     1       6.398   3.932  19.799  0.00  0.00    +0.000 HD
ENDROOT
BRANCH   1  23
ATOM     19  C   UNL     1       1.656   9.410  19.101  0.00  0.00    +0.000 A 
ATOM     20  C   UNL     1       1.219   9.847  20.346  0.00  0.00    +0.000 A 
ATOM     21  C   UNL     1       0.997   8.930  21.374  0.00  0.00    +0.000 A 
ATOM     22  C   UNL     1       1.240   7.566  21.171  0.00  0.00    +0.000 A 
ATOM     23  C   UNL     1       1.701   7.087  19.936  0.00  0.00    +0.000 A 
ATOM     24  C   UNL     1       1.870   8.044  18.903  0.00  0.00    +0.000 A 
BRANCH  19  26
ATOM     25  C   UNL     1       1.695  11.739  18.608  0.00  0.00    +0.000 C 
ATOM     26  O   UNL     1       1.829  10.391  18.164  0.00  0.00    +0.000 OA
ENDBRANCH  19  26
ENDBRANCH   1  23
TORSDOF 2
ENDMDL
MODEL 3
REMARK VINA RESULT:      -8.9      3.557      7.413
REMARK  Name = 
REMARK  3 active torsions:
REMARK  status: ('A' for Active; 'I' for Inactive)
REMARK    1  A    between atoms: C_1  and  O_2
REMARK    2  A    between atoms: O_2  and  C_3
REMARK    3  A    between atoms: C_7  and  C_8
REMARK                            x       y       z     vdW  Elec       q    Type
REMARK                         _______ _______ _______ _____ _____    ______ ____
ROOT
ATOM      1  C   UNL     1       1.878   5.698  19.582  0.00  0.00    +0.000 A 
ATOM      2  C   UNL     1       1.807   4.774  20.644  0.00  0.00    +0.000 A 
ATOM      3  C   UNL     1       2.499   3.572  20.573  0.00  0.00    +0.000 A 
ATOM      4  C   UNL     1       3.206   3.285  19.413  0.00  0.00    +0.000 A 
ATOM      5  C   UNL     1       2.898   3.930  18.221  0.00  0.00    +0.000 A 
ATOM      6  C   UNL     1       2.326   5.210  18.337  0.00  0.00    +0.000 A 
ATOM      7  N   UNL     1       3.547   3.532  17.021  0.00  0.00    +0.000 N 
ATOM      8  C   UNL     1       4.843   4.057  16.793  0.00  0.00    +0.000 A 
ATOM      9  C   UNL     1       5.253   4.247  15.469  0.00  0.00    +0.000 A 
ATOM     10  C   UNL     1       6.417   4.956  15.194  0.00  0.00    +0.000 A 
ATOM     11  C   UNL     1       7.179   5.463  16.245  0.00  0.00    +0.000 A 
ATOM     12  C   UNL     1       6.848   5.155  17.567  0.00  0.00    +0.000 A 
ATOM     13  C   UNL     1       5.718   4.385  17.852  0.00  0.00    +0.000 A 
ATOM     14  N   UNL     1       5.567   3.904  19.180  0.00  0.00    +0.000 N 
ATOM     15  C   UNL     1       4.641   2.972  19.649  0.00  0.00    +0.000 C 
ATOM     16  O   UNL     1       4.956   2.105  20.460  0.00  0.00    +0.000 OA
ATOM     17  H   UNL     1       3.637   2.510  17.016  0.00  0.00    +0.000 HD
ATOM     18  H   UNL     1       6.369   4.009  19.788  0.00  0.00    +0.000 HD
ENDROOT
BRANCH   1  23
ATOM     19  C   UNL     1       1.279   8.963  21.470  0.00  0.00    +0.000 A 
ATOM     20  C   UNL     1       1.349   9.898  20.443  0.00  0.00    +0.000 A 
ATOM     21  C   UNL     1       1.594   9.486  19.134  0.00  0.00    +0.000 A 
ATOM     22  C   UNL     1       1.745   8.126  18.836  0.00  0.00    +0.000 A 
ATOM     23  C   UNL     1       1.661   7.150  19.839  0.00  0.00    +0.000 A 
ATOM     24  C   UNL     1       1.456   7.612  21.164  0.00  0.00    +0.000 A 
BRANCH  19  26
ATOM     25  C   UNL     1      -0.316   9.652  23.098  0.00  0.00    +0.000 C 
ATOM     26  O   UNL     1       1.047   9.478  22.716  0.00  0.00    +0.000 OA
ENDBRANCH  19  26
ENDBRANCH   1  23
TORSDOF 2
ENDMDL
MODEL 4
REMARK VINA RESULT:      -8.7      0.930      1.135
REMARK  Name = 
REMARK  3 active torsions:
REMARK  status: ('A' for Active; 'I' for Inactive)
REMARK    1  A    between atoms: C_1  and  O_2
REMARK    2  A    between atoms: O_2  and  C_3
REMARK    3  A    between atoms: C_7  and  C_8
REMARK                            x       y       z     vdW  Elec       q    Type
REMARK                         _______ _______ _______ _____ _____    ______ ____
ROOT
ATOM      1  C   UNL     1       5.876   4.817  14.643  0.00  0.00    +0.000 A 
ATOM      2  C   UNL     1       7.117   5.212  15.181  0.00  0.00    +0.000 A 
ATOM      3  C   UNL     1       7.227   5.535  16.527  0.00  0.00    +0.000 A 
ATOM      4  C   UNL     1       6.077   5.516  17.306  0.00  0.00    +0.000 A 
ATOM      5  C   UNL     1       4.823   5.606  16.714  0.00  0.00    +0.000 A 
ATOM      6  C   UNL     1       4.724   5.135  15.392  0.00  0.00    +0.000 A 
ATOM      7  N   UNL     1       3.667   5.710  17.534  0.00  0.00    +0.000 N 
ATOM      8  C   UNL     1       3.157   4.504  18.074  0.00  0.00    +0.000 A 
ATOM      9  C   UNL     1       1.781   4.420  18.316  0.00  0.00    +0.000 A 
ATOM     10  C   UNL     1       1.203   3.197  18.636  0.00  0.00    +0.000 A 
ATOM     11  C   UNL     1       2.002   2.059  18.728  0.00  0.00    +0.000 A 
ATOM     12  C   UNL     1       3.392   2.166  18.626  0.00  0.00    +0.000 A 
ATOM     13  C   UNL     1       3.989   3.402  18.372  0.00  0.00    +0.000 A 
ATOM     14  N   UNL     1       5.400   3.495  18.518  0.00  0.00    +0.000 N 
ATOM     15  C   UNL     1       6.184   4.648  18.509  0.00  0.00    +0.000 C 
ATOM     16  O   UNL     1       7.120   4.795  19.292  0.00  0.00    +0.000 OA
ATOM     17  H   UNL     1       3.879   6.324  18.330  0.00  0.00    +0.000 HD
ATOM     18  H   UNL     1       5.857   2.706  18.957  0.00  0.00    +0.000 HD
ENDROOT
BRANCH   1  23
ATOM     19  C   UNL     1       4.532   3.066  11.527  0.00  0.00    +0.000 A 
ATOM     20  C   UNL     1       5.665   2.407  11.064  0.00  0.00    +0.000 A 
ATOM     21  C   UNL     1       6.874   2.525  11.749  0.00  0.00    +0.000 A 
ATOM     22  C   UNL     1       6.953   3.283  12.923  0.00  0.00    +0.000 A 
ATOM     23  C   UNL     1       5.828   3.946  13.435  0.00  0.00    +0.000 A 
ATOM     24  C   UNL     1       4.629   3.840  12.685  0.00  0.00    +0.000 A 
BRANCH  19  26
ATOM     25  C   UNL     1       3.035   3.963   9.907  0.00  0.00    +0.000 C 
ATOM     26  O   UNL     1       3.404   2.892  10.773  0.00  0.00    +0.000 OA
ENDBRANCH  19  26
ENDBRANCH   1  23
TORSDOF 2
ENDMDL
MODEL 5
REMARK VINA RESULT:      -8.1      1.516      2.214
REMARK  Name = 
REMARK  3 active torsions:
REMARK  status: ('A' for Active; 'I' for Inactive)
REMARK    1  A    between atoms: C_1  and  O_2
REMARK    2  A    between atoms: O_2  and  C_3
REMARK    3  A    between atoms: C_7  and  C_8
REMARK                            x       y       z     vdW  Elec       q    Type
REMARK                         _______ _______ _______ _____ _____    ______ ____
ROOT
ATOM      1  C   UNL     1       5.929   4.659  13.963  0.00  0.00    +0.000 A 
ATOM      2  C   UNL     1       7.287   4.732  14.334  0.00  0.00    +0.000 A 
ATOM      3  C   UNL     1       7.641   5.058  15.637  0.00  0.00    +0.000 A 
ATOM      4  C   UNL     1       6.630   5.365  16.538  0.00  0.00    +0.000 A 
ATOM      5  C   UNL     1       5.378   5.762  16.085  0.00  0.00    +0.000 A 
ATOM      6  C   UNL     1       4.999   5.292  14.814  0.00  0.00    +0.000 A 
ATOM      7  N   UNL     1       4.398   6.192  17.020  0.00  0.00    +0.000 N 
ATOM      8  C   UNL     1       3.667   5.179  17.688  0.00  0.00    +0.000 A 
ATOM      9  C   UNL     1       2.356   5.467  18.087  0.00  0.00    +0.000 A 
ATOM     10  C   UNL     1       1.528   4.449  18.545  0.00  0.00    +0.000 A 
ATOM     11  C   UNL     1       2.014   3.145  18.620  0.00  0.00    +0.000 A 
ATOM     12  C   UNL     1       3.361   2.881  18.356  0.00  0.00    +0.000 A 
ATOM     13  C   UNL     1       4.219   3.908  17.961  0.00  0.00    +0.000 A 
ATOM     14  N   UNL     1       5.613   3.633  17.943  0.00  0.00    +0.000 N 
ATOM     15  C   UNL     1       6.659   4.538  17.774  0.00  0.00    +0.000 C 
ATOM     16  O   UNL     1       7.691   4.460  18.438  0.00  0.00    +0.000 OA
ATOM     17  H   UNL     1       4.857   6.754  17.747  0.00  0.00    +0.000 HD
ATOM     18  H   UNL     1       5.903   2.765  18.377  0.00  0.00    +0.000 HD
ENDROOT
BRANCH   1  23
ATOM     19  C   UNL     1       5.931   1.799  11.433  0.00  0.00    +0.000 A 
ATOM     20  C   UNL     1       4.741   2.027  10.751  0.00  0.00    +0.000 A 
ATOM     21  C   UNL     1       3.925   3.102  11.103  0.00  0.00    +0.000 A 
ATOM     22  C   UNL     1       4.308   3.977  12.126  0.00  0.00    +0.000 A 
ATOM     23  C   UNL     1       5.510   3.794  12.825  0.00  0.00    +0.000 A 
ATOM     24  C   UNL     1       6.289   2.665  12.469  0.00  0.00    +0.000 A 
BRANCH  19  26
ATOM     25  C   UNL     1       6.117  -0.572  11.335  0.00  0.00    +0.000 C 
ATOM     26  O   UNL     1       6.647   0.712  11.015  0.00  0.00    +0.000 OA
ENDBRANCH  19  26
ENDBRANCH   1  23
TORSDOF 2
ENDMDL
MODEL 6
REMARK VINA RESULT:      -7.8      9.528     11.522
REMARK  Name = 
REMARK  3 active torsions:
REMARK  status: ('A' for Active; 'I' for Inactive)
REMARK    1  A    between atoms: C_1  and  O_2
REMARK    2  A    between atoms: O_2  and  C_3
REMARK    3  A    between atoms: C_7  and  C_8
REMARK                            x       y       z     vdW  Elec       q    Type
REMARK                         _______ _______ _______ _____ _____    ______ ____
ROOT
ATOM      1  C   UNL     1      -0.937  10.960  19.162  0.00  0.00    +0.000 A 
ATOM      2  C   UNL     1      -0.114   9.873  19.520  0.00  0.00    +0.000 A 
ATOM      3  C   UNL     1       0.458   9.813  20.784  0.00  0.00    +0.000 A 
ATOM      4  C   UNL     1       0.246  10.874  21.655  0.00  0.00    +0.000 A 
ATOM      5  C   UNL     1      -0.133  12.120  21.170  0.00  0.00    +0.000 A 
ATOM      6  C   UNL     1      -0.837  12.125  19.951  0.00  0.00    +0.000 A 
ATOM      7  N   UNL     1      -0.223  13.222  22.062  0.00  0.00    +0.000 N 
ATOM      8  C   UNL     1      -1.411  13.328  22.827  0.00  0.00    +0.000 A 
ATOM      9  C   UNL     1      -1.842  14.606  23.200  0.00  0.00    +0.000 A 
ATOM     10  C   UNL     1      -3.104  14.781  23.757  0.00  0.00    +0.000 A 
ATOM     11  C   UNL     1      -3.930  13.676  23.955  0.00  0.00    +0.000 A 
ATOM     12  C   UNL     1      -3.448  12.386  23.714  0.00  0.00    +0.000 A 
ATOM     13  C   UNL     1      -2.157  12.194  23.219  0.00  0.00    +0.000 A 
ATOM     14  N   UNL     1      -1.639  10.871  23.223  0.00  0.00    +0.000 N 
ATOM     15  C   UNL     1      -0.330  10.467  22.965  0.00  0.00    +0.000 C 
ATOM     16  O   UNL     1       0.215   9.589  23.629  0.00  0.00    +0.000 OA
ATOM     17  H   UNL     1       0.555  13.172  22.730  0.00  0.00    +0.000 HD
ATOM     18  H   UNL     1      -2.174  10.183  23.737  0.00  0.00    +0.000 HD
ENDROOT
BRANCH   1  23
ATOM     19  C   UNL     1      -4.164  11.486  17.189  0.00  0.00    +0.000 A 
ATOM     20  C   UNL     1      -3.976  10.629  16.111  0.00  0.00    +0.000 A 
ATOM     21  C   UNL     1      -2.806   9.877  16.006  0.00  0.00    +0.000 A 
ATOM     22  C   UNL     1      -1.823   9.956  16.999  0.00  0.00    +0.000 A 
ATOM     23  C   UNL     1      -1.982  10.793  18.114  0.00  0.00    +0.000 A 
ATOM     24  C   UNL     1      -3.164  11.575  18.160  0.00  0.00    +0.000 A 
BRANCH  19  26
ATOM     25  C   UNL     1      -6.425  11.623  17.921  0.00  0.00    +0.000 C 
ATOM     26  O   UNL     1      -5.340  12.184  17.186  0.00  0.00    +0.000 OA
ENDBRANCH  19  26
ENDBRANCH   1  23
TORSDOF 2
ENDMDL
MODEL 7
REMARK VINA RESULT:      -7.6      4.473      7.315
REMARK  Name = 
REMARK  3 active torsions:
REMARK  status: ('A' for Active; 'I' for Inactive)
REMARK    1  A    between atoms: C_1  and  O_2
REMARK    2  A    between atoms: O_2  and  C_3
REMARK    3  A    between atoms: C_7  and  C_8
REMARK                            x       y       z     vdW  Elec       q    Type
REMARK                         _______ _______ _______ _____ _____    ______ ____
ROOT
ATOM      1  C   UNL     1       2.291   8.241  18.682  0.00  0.00    +0.000 A 
ATOM      2  C   UNL     1       3.131   8.347  17.556  0.00  0.00    +0.000 A 
ATOM      3  C   UNL     1       3.976   7.299  17.210  0.00  0.00    +0.000 A 
ATOM      4  C   UNL     1       4.011   6.181  18.034  0.00  0.00    +0.000 A 
ATOM      5  C   UNL     1       3.579   6.262  19.352  0.00  0.00    +0.000 A 
ATOM      6  C   UNL     1       2.615   7.249  19.631  0.00  0.00    +0.000 A 
ATOM      7  N   UNL     1       3.740   5.142  20.212  0.00  0.00    +0.000 N 
ATOM      8  C   UNL     1       2.764   4.119  20.115  0.00  0.00    +0.000 A 
ATOM      9  C   UNL     1       2.480   3.370  21.263  0.00  0.00    +0.000 A 
ATOM     10  C   UNL     1       1.387   2.510  21.281  0.00  0.00    +0.000 A 
ATOM     11  C   UNL     1       0.587   2.388  20.147  0.00  0.00    +0.000 A 
ATOM     12  C   UNL     1       0.950   3.027  18.957  0.00  0.00    +0.000 A 
ATOM     13  C   UNL     1       2.085   3.839  18.909  0.00  0.00    +0.000 A 
ATOM     14  N   UNL     1       2.538   4.263  17.631  0.00  0.00    +0.000 N 
ATOM     15  C   UNL     1       3.736   4.905  17.321  0.00  0.00    +0.000 C 
ATOM     16  O   UNL     1       4.384   4.608  16.320  0.00  0.00    +0.000 OA
ATOM     17  H   UNL     1       4.648   4.704  20.020  0.00  0.00    +0.000 HD
ATOM     18  H   UNL     1       2.109   3.813  16.833  0.00  0.00    +0.000 HD
ENDROOT
BRANCH   1  23
ATOM     19  C   UNL     1      -0.515  10.420  20.080  0.00  0.00    +0.000 A 
ATOM     20  C   UNL     1      -1.297  10.631  18.950  0.00  0.00    +0.000 A 
ATOM     21  C   UNL     1      -0.924  10.077  17.725  0.00  0.00    +0.000 A 
ATOM     22  C   UNL     1       0.224   9.281  17.628  0.00  0.00    +0.000 A 
ATOM     23  C   UNL     1       1.027   9.027  18.749  0.00  0.00    +0.000 A 
ATOM     24  C   UNL     1       0.641   9.645  19.965  0.00  0.00    +0.000 A 
BRANCH  19  26
ATOM     25  C   UNL     1      -0.440  10.534  22.457  0.00  0.00    +0.000 C 
ATOM     26  O   UNL     1      -0.967  11.019  21.225  0.00  0.00    +0.000 OA
ENDBRANCH  19  26
ENDBRANCH   1  23
TORSDOF 2
ENDMDL
MODEL 8
REMARK VINA RESULT:      -7.6      4.620      6.899
REMARK  Name = 
REMARK  3 active torsions:
REMARK  status: ('A' for Active; 'I' for Inactive)
REMARK    1  A    between atoms: C_1  and  O_2
REMARK    2  A    between atoms: O_2  and  C_3
REMARK    3  A    between atoms: C_7  and  C_8
REMARK                            x       y       z     vdW  Elec       q    Type
REMARK                         _______ _______ _______ _____ _____    ______ ____
ROOT
ATOM      1  C   UNL     1       2.206   8.365  18.652  0.00  0.00    +0.000 A 
ATOM      2  C   UNL     1       3.073   8.474  17.547  0.00  0.00    +0.000 A 
ATOM      3  C   UNL     1       3.933   7.431  17.226  0.00  0.00    +0.000 A 
ATOM      4  C   UNL     1       3.955   6.316  18.052  0.00  0.00    +0.000 A 
ATOM      5  C   UNL     1       3.489   6.396  19.358  0.00  0.00    +0.000 A 
ATOM      6  C   UNL     1       2.511   7.377  19.611  0.00  0.00    +0.000 A 
ATOM      7  N   UNL     1       3.635   5.279  20.225  0.00  0.00    +0.000 N 
ATOM      8  C   UNL     1       2.669   4.250  20.106  0.00  0.00    +0.000 A 
ATOM      9  C   UNL     1       2.360   3.501  21.247  0.00  0.00    +0.000 A 
ATOM     10  C   UNL     1       1.273   2.634  21.239  0.00  0.00    +0.000 A 
ATOM     11  C   UNL     1       0.503   2.504  20.085  0.00  0.00    +0.000 A 
ATOM     12  C   UNL     1       0.893   3.143  18.904  0.00  0.00    +0.000 A 
ATOM     13  C   UNL     1       2.022   3.962  18.883  0.00  0.00    +0.000 A 
ATOM     14  N   UNL     1       2.506   4.386  17.616  0.00  0.00    +0.000 N 
ATOM     15  C   UNL     1       3.707   5.036  17.335  0.00  0.00    +0.000 C 
ATOM     16  O   UNL     1       4.383   4.741  16.352  0.00  0.00    +0.000 OA
ATOM     17  H   UNL     1       4.550   4.847  20.057  0.00  0.00    +0.000 HD
ATOM     18  H   UNL     1       2.101   3.932  16.808  0.00  0.00    +0.000 HD
ENDROOT
BRANCH   1  23
ATOM     19  C   UNL     1      -1.142   9.827  17.538  0.00  0.00    +0.000 A 
ATOM     20  C   UNL     1      -1.550  10.498  18.685  0.00  0.00    +0.000 A 
ATOM     21  C   UNL     1      -0.753  10.482  19.830  0.00  0.00    +0.000 A 
ATOM     22  C   UNL     1       0.477   9.815  19.826  0.00  0.00    +0.000 A 
ATOM     23  C   UNL     1       0.935   9.143  18.684  0.00  0.00    +0.000 A 
ATOM     24  C   UNL     1       0.076   9.143  17.556  0.00  0.00    +0.000 A 
BRANCH  19  26
ATOM     25  C   UNL     1      -2.710  11.124  16.303  0.00  0.00    +0.000 C 
ATOM     26  O   UNL     1      -2.005   9.898  16.479  0.00  0.00    +0.000 OA
ENDBRANCH  19  26
ENDBRANCH   1  23
TORSDOF 2
ENDMDL
MODEL 9
REMARK VINA RESULT:      -7.6      9.417     11.323
REMARK  Name = 
REMARK  3 active torsions:
REMARK  status: ('A' for Active; 'I' for Inactive)
REMARK    1  A    between atoms: C_1  and  O_2
REMARK    2  A    between atoms: O_2  and  C_3
REMARK    3  A    between atoms: C_7  and  C_8
REMARK                            x       y       z     vdW  Elec       q    Type
REMARK                         _______ _______ _______ _____ _____    ______ ____
ROOT
ATOM      1  C   UNL     1      -1.101  11.195  19.157  0.00  0.00    +0.000 A 
ATOM      2  C   UNL     1      -0.363  10.031  19.450  0.00  0.00    +0.000 A 
ATOM      3  C   UNL     1       0.223   9.868  20.699  0.00  0.00    +0.000 A 
ATOM      4  C   UNL     1       0.112  10.901  21.619  0.00  0.00    +0.000 A 
ATOM      5  C   UNL     1      -0.174  12.194  21.198  0.00  0.00    +0.000 A 
ATOM      6  C   UNL     1      -0.894  12.311  19.994  0.00  0.00    +0.000 A 
ATOM      7  N   UNL     1      -0.159  13.258  22.140  0.00  0.00    +0.000 N 
ATOM      8  C   UNL     1      -1.323  13.423  22.932  0.00  0.00    +0.000 A 
ATOM      9  C   UNL     1      -1.644  14.713  23.370  0.00  0.00    +0.000 A 
ATOM     10  C   UNL     1      -2.878  14.962  23.959  0.00  0.00    +0.000 A 
ATOM     11  C   UNL     1      -3.786  13.918  24.124  0.00  0.00    +0.000 A 
ATOM     12  C   UNL     1      -3.414  12.606  23.817  0.00  0.00    +0.000 A 
ATOM     13  C   UNL     1      -2.151  12.335  23.288  0.00  0.00    +0.000 A 
ATOM     14  N   UNL     1      -1.741  10.977  23.223  0.00  0.00    +0.000 N 
ATOM     15  C   UNL     1      -0.473  10.482  22.921  0.00  0.00    +0.000 C 
ATOM     16  O   UNL     1       0.010   9.533  23.535  0.00  0.00    +0.000 OA
ATOM     17  H   UNL     1       0.623  13.116  22.789  0.00  0.00    +0.000 HD
ATOM     18  H   UNL     1      -2.321  10.311  23.717  0.00  0.00    +0.000 HD
ENDROOT
BRANCH   1  23
ATOM     19  C   UNL     1      -2.891  10.488  15.859  0.00  0.00    +0.000 A 
ATOM     20  C   UNL     1      -4.174  10.946  16.133  0.00  0.00    +0.000 A 
ATOM     21  C   UNL     1      -4.477  11.483  17.384  0.00  0.00    +0.000 A 
ATOM     22  C   UNL     1      -3.485  11.591  18.366  0.00  0.00    +0.000 A 
ATOM     23  C   UNL     1      -2.173  11.160  18.123  0.00  0.00    +0.000 A 
ATOM     24  C   UNL     1      -1.917  10.578  16.856  0.00  0.00    +0.000 A 
BRANCH  19  26
ATOM     25  C   UNL     1      -3.836   9.977  13.735  0.00  0.00    +0.000 C 
ATOM     26  O   UNL     1      -2.708   9.970  14.606  0.00  0.00    +0.000 OA
ENDBRANCH  19  26
ENDBRANCH   1  23
TORSDOF 2
ENDMDL
