MODEL 1
REMARK VINA RESULT:      -7.9      0.000      0.000
REMARK  Name = 
REMARK  9 active torsions:
REMARK  status: ('A' for Active; 'I' for Inactive)
REMARK    1  A    between atoms: C_1  and  C_2
REMARK    2  A    between atoms: C_2  and  C_3
REMARK    3  A    between atoms: C_4  and  C_5
REMARK    4  A    between atoms: C_5  and  C_6
REMARK    5  A    between atoms: C_8  and  C_9
REMARK    6  A    between atoms: C_10  and  C_11
REMARK    7  A    between atoms: C_11  and  O_13
REMARK    8  A    between atoms: C_18  and  C_19
REMARK    9  A    between atoms: C_18  and  C_20
REMARK                            x       y       z     vdW  Elec       q    Type
REMARK                         _______ _______ _______ _____ _____    ______ ____
ROOT
ATOM      1  C   UNL     1       3.950   6.312  17.967  0.00  0.00    +0.000 A 
ATOM      2  C   UNL     1       3.307   7.549  17.822  0.00  0.00    +0.000 A 
ATOM      3  C   UNL     1       2.217   7.910  18.630  0.00  0.00    +0.000 A 
ATOM      4  C   UNL     1       1.825   7.036  19.655  0.00  0.00    +0.000 A 
ATOM      5  C   UNL     1       2.442   5.783  19.799  0.00  0.00    +0.000 A 
ATOM      6  C   UNL     1       3.477   5.419  18.930  0.00  0.00    +0.000 A 
ATOM      7  O   UNL     1       4.098   4.202  18.989  0.00  0.00    +0.000 OA
ATOM      8  C   UNL     1       3.387   3.127  19.627  0.00  0.00    +0.000 C 
ATOM      9  C   UNL     1       2.526   2.424  18.568  0.00  0.00    +0.000 C 
ATOM     10  C   UNL     1       4.486   2.170  20.103  0.00  0.00    +0.000 C 
ATOM     11  C   UNL     1       2.526   3.594  20.779  0.00  0.00    +0.000 C 
ATOM     12  C   UNL     1       2.062   4.850  20.857  0.00  0.00    +0.000 C 
ENDROOT
BRANCH   3  13
ATOM     13  C   UNL     1       1.610   9.226  18.371  0.00  0.00    +0.000 C 
ATOM     14  C   UNL     1       0.977  10.108  19.161  0.00  0.00    +0.000 C 
BRANCH  14  15
ATOM     15  C   UNL     1       0.642  10.124  20.599  0.00  0.00    +0.000 C 
ATOM     16  O   UNL     1       1.219  10.863  21.378  0.00  0.00    +0.000 OA
BRANCH  15  17
ATOM     17  O   UNL     1      -0.369   9.317  20.961  0.00  0.00    +0.000 OA
ATOM     18  H   UNL     1      -0.123   8.378  21.029  0.00  0.00    +0.000 HD
ENDBRANCH  15  17
ENDBRANCH  14  15
ENDBRANCH   3  13
BRANCH   1  19
ATOM     19  C   UNL     1       5.079   5.929  17.042  0.00  0.00    +0.000 C 
BRANCH  19  23
ATOM     20  C   UNL     1       8.168   8.229  17.676  0.00  0.00    +0.000 C 
ATOM     21  C   UNL     1       7.237   7.057  17.783  0.00  0.00    +0.000 C 
ATOM     22  C   UNL     1       7.579   5.979  18.769  0.00  0.00    +0.000 C 
ATOM     23  C   UNL     1       6.133   7.006  17.011  0.00  0.00    +0.000 C 
ENDBRANCH  19  23
ENDBRANCH   1  19
TORSDOF 5
ENDMDL
MODEL 2
REMARK VINA RESULT:      -7.8      1.457      1.749
REMARK  Name = 
REMARK  9 active torsions:
REMARK  status: ('A' for Active; 'I' for Inactive)
REMARK    1  A    between atoms: C_1  and  C_2
REMARK    2  A    between atoms: C_2  and  C_3
REMARK    3  A    between atoms: C_4  and  C_5
REMARK    4  A    between atoms: C_5  and  C_6
REMARK    5  A    between atoms: C_8  and  C_9
REMARK    6  A    between atoms: C_10  and  C_11
REMARK    7  A    between atoms: C_11  and  O_13
REMARK    8  A    between atoms: C_18  and  C_19
REMARK    9  A    between atoms: C_18  and  C_20
REMARK                            x       y       z     vdW  Elec       q    Type
REMARK                         _______ _______ _______ _____ _____    ______ ____
ROOT
ATOM      1  C   UNL     1       3.254   6.047  18.497  0.00  0.00    +0.000 A 
ATOM      2  C   UNL     1       2.744   7.287  18.903  0.00  0.00    +0.000 A 
ATOM      3  C   UNL     1       1.931   7.412  20.040  0.00  0.00    +0.000 A 
ATOM      4  C   UNL     1       1.698   6.272  20.824  0.00  0.00    +0.000 A 
ATOM      5  C   UNL     1       2.180   5.017  20.419  0.00  0.00    +0.000 A 
ATOM      6  C   UNL     1       2.926   4.911  19.240  0.00  0.00    +0.000 A 
ATOM      7  O   UNL     1       3.395   3.717  18.766  0.00  0.00    +0.000 OA
ATOM      8  C   UNL     1       2.739   2.521  19.220  0.00  0.00    +0.000 C 
ATOM      9  C   UNL     1       1.571   2.222  18.268  0.00  0.00    +0.000 C 
ATOM     10  C   UNL     1       3.800   1.424  19.080  0.00  0.00    +0.000 C 
ATOM     11  C   UNL     1       2.241   2.629  20.645  0.00  0.00    +0.000 C 
ATOM     12  C   UNL     1       1.960   3.810  21.212  0.00  0.00    +0.000 C 
ENDROOT
BRANCH   3  13
ATOM     13  C   UNL     1       1.438   8.762  20.355  0.00  0.00    +0.000 C 
ATOM     14  C   UNL     1       0.944   9.752  19.595  0.00  0.00    +0.000 C 
BRANCH  14  15
ATOM     15  C   UNL     1       0.684   9.886  18.148  0.00  0.00    +0.000 C 
ATOM     16  O   UNL     1      -0.438   9.761  17.688  0.00  0.00    +0.000 OA
BRANCH  15  17
ATOM     17  O   UNL     1       1.754  10.209  17.401  0.00  0.00    +0.000 OA
ATOM     18  H   UNL     1       1.755  11.129  17.085  0.00  0.00    +0.000 HD
ENDBRANCH  15  17
ENDBRANCH  14  15
ENDBRANCH   3  13
BRANCH   1  19
ATOM     19  C   UNL     1       4.074   5.938  17.235  0.00  0.00    +0.000 C 
BRANCH  19  23
ATOM     20  C   UNL     1       7.592   7.587  17.603  0.00  0.00    +0.000 C 
ATOM     21  C   UNL     1       6.532   6.528  17.533  0.00  0.00    +0.000 C 
ATOM     22  C   UNL     1       6.949   5.104  17.758  0.00  0.00    +0.000 C 
ATOM     23  C   UNL     1       5.254   6.875  17.282  0.00  0.00    +0.000 C 
ENDBRANCH  19  23
ENDBRANCH   1  19
TORSDOF 5
ENDMDL
MODEL 3
REMARK VINA RESULT:      -7.6      1.500      1.894
REMARK  Name = 
REMARK  9 active torsions:
REMARK  status: ('A' for Active; 'I' for Inactive)
REMARK    1  A    between atoms: C_1  and  C_2
REMARK    2  A    between atoms: C_2  and  C_3
REMARK    3  A    between atoms: C_4  and  C_5
REMARK    4  A    between atoms: C_5  and  C_6
REMARK    5  A    between atoms: C_8  and  C_9
REMARK    6  A    between atoms: C_10  and  C_11
REMARK    7  A    between atoms: C_11  and  O_13
REMARK    8  A    between atoms: C_18  and  C_19
REMARK    9  A    between atoms: C_18  and  C_20
REMARK                            x       y       z     vdW  Elec       q    Type
REMARK                         _______ _______ _______ _____ _____    ______ ____
ROOT
ATOM      1  C   UNL     1       3.157   6.418  18.481  0.00  0.00    +0.000 A 
ATOM      2  C   UNL     1       2.541   7.633  18.812  0.00  0.00    +0.000 A 
ATOM      3  C   UNL     1       1.669   7.740  19.906  0.00  0.00    +0.000 A 
ATOM      4  C   UNL     1       1.480   6.617  20.726  0.00  0.00    +0.000 A 
ATOM      5  C   UNL     1       2.069   5.386  20.395  0.00  0.00    +0.000 A 
ATOM      6  C   UNL     1       2.875   5.291  19.255  0.00  0.00    +0.000 A 
ATOM      7  O   UNL     1       3.450   4.117  18.852  0.00  0.00    +0.000 OA
ATOM      8  C   UNL     1       2.859   2.894  19.325  0.00  0.00    +0.000 C 
ATOM      9  C   UNL     1       1.762   2.475  18.335  0.00  0.00    +0.000 C 
ATOM     10  C   UNL     1       4.001   1.872  19.279  0.00  0.00    +0.000 C 
ATOM     11  C   UNL     1       2.288   3.019  20.721  0.00  0.00    +0.000 C 
ATOM     12  C   UNL     1       1.897   4.197  21.226  0.00  0.00    +0.000 C 
ENDROOT
BRANCH   3  13
ATOM     13  C   UNL     1       1.067   9.062  20.143  0.00  0.00    +0.000 C 
ATOM     14  C   UNL     1       0.870   9.787  21.257  0.00  0.00    +0.000 C 
BRANCH  14  15
ATOM     15  C   UNL     1       1.182   9.562  22.682  0.00  0.00    +0.000 C 
ATOM     16  O   UNL     1       0.319   9.622  23.540  0.00  0.00    +0.000 OA
BRANCH  15  17
ATOM     17  O   UNL     1       2.459   9.235  22.945  0.00  0.00    +0.000 OA
ATOM     18  H   UNL     1       2.610   8.280  23.054  0.00  0.00    +0.000 HD
ENDBRANCH  15  17
ENDBRANCH  14  15
ENDBRANCH   3  13
BRANCH   1  19
ATOM     19  C   UNL     1       4.042   6.321  17.262  0.00  0.00    +0.000 C 
BRANCH  19  23
ATOM     20  C   UNL     1       7.568   4.703  17.683  0.00  0.00    +0.000 C 
ATOM     21  C   UNL     1       6.191   4.963  17.148  0.00  0.00    +0.000 C 
ATOM     22  C   UNL     1       5.683   4.065  16.057  0.00  0.00    +0.000 C 
ATOM     23  C   UNL     1       5.454   5.971  17.655  0.00  0.00    +0.000 C 
ENDBRANCH  19  23
ENDBRANCH   1  19
TORSDOF 5
ENDMDL
MODEL 4
REMARK VINA RESULT:      -7.6      2.771      6.267
REMARK  Name = 
REMARK  9 active torsions:
REMARK  status: ('A' for Active; 'I' for Inactive)
REMARK    1  A    between atoms: C_1  and  C_2
REMARK    2  A    between atoms: C_2  and  C_3
REMARK    3  A    between atoms: C_4  and  C_5
REMARK    4  A    between atoms: C_5  and  C_6
REMARK    5  A    between atoms: C_8  and  C_9
REMARK    6  A    between atoms: C_10  and  C_11
REMARK    7  A    between atoms: C_11  and  O_13
REMARK    8  A    between atoms: C_18  and  C_19
REMARK    9  A    between atoms: C_18  and  C_20
REMARK                            x       y       z     vdW  Elec       q    Type
REMARK                         _______ _______ _______ _____ _____    ______ ____
ROOT
ATOM      1  C   UNL     1       4.095   5.762  17.819  0.00  0.00    +0.000 A 
ATOM      2  C   UNL     1       5.094   5.826  16.839  0.00  0.00    +0.000 A 
ATOM      3  C   UNL     1       5.430   4.710  16.057  0.00  0.00    +0.000 A 
ATOM      4  C   UNL     1       4.685   3.532  16.216  0.00  0.00    +0.000 A 
ATOM      5  C   UNL     1       3.697   3.442  17.209  0.00  0.00    +0.000 A 
ATOM      6  C   UNL     1       3.435   4.548  18.025  0.00  0.00    +0.000 A 
ATOM      7  O   UNL     1       2.513   4.521  19.035  0.00  0.00    +0.000 OA
ATOM      8  C   UNL     1       2.148   3.234  19.562  0.00  0.00    +0.000 C 
ATOM      9  C   UNL     1       3.122   2.884  20.697  0.00  0.00    +0.000 C 
ATOM     10  C   UNL     1       0.745   3.441  20.144  0.00  0.00    +0.000 C 
ATOM     11  C   UNL     1       2.154   2.145  18.512  0.00  0.00    +0.000 C 
ATOM     12  C   UNL     1       2.899   2.233  17.401  0.00  0.00    +0.000 C 
ENDROOT
BRANCH   3  13
ATOM     13  C   UNL     1       6.510   4.893  15.074  0.00  0.00    +0.000 C 
ATOM     14  C   UNL     1       6.693   4.434  13.825  0.00  0.00    +0.000 C 
BRANCH  14  15
ATOM     15  C   UNL     1       5.889   3.576  12.932  0.00  0.00    +0.000 C 
ATOM     16  O   UNL     1       4.705   3.792  12.738  0.00  0.00    +0.000 OA
BRANCH  15  17
ATOM     17  O   UNL     1       6.568   2.593  12.318  0.00  0.00    +0.000 OA
ATOM     18  H   UNL     1       6.675   2.722  11.360  0.00  0.00    +0.000 HD
ENDBRANCH  15  17
ENDBRANCH  14  15
ENDBRANCH   3  13
BRANCH   1  19
ATOM     19  C   UNL     1       3.799   6.962  18.685  0.00  0.00    +0.000 C 
BRANCH  19  23
ATOM     20  C   UNL     1       0.889   9.391  17.756  0.00  0.00    +0.000 C 
ATOM     21  C   UNL     1       1.808   8.543  18.586  0.00  0.00    +0.000 C 
ATOM     22  C   UNL     1       1.536   8.454  20.059  0.00  0.00    +0.000 C 
ATOM     23  C   UNL     1       2.829   7.889  17.999  0.00  0.00    +0.000 C 
ENDBRANCH  19  23
ENDBRANCH   1  19
TORSDOF 5
ENDMDL
MODEL 5
REMARK VINA RESULT:      -7.6      1.465      2.102
REMARK  Name = 
REMARK  9 active torsions:
REMARK  status: ('A' for Active; 'I' for Inactive)
REMARK    1  A    between atoms: C_1  and  C_2
REMARK    2  A    between atoms: C_2  and  C_3
REMARK    3  A    between atoms: C_4  and  C_5
REMARK    4  A    between atoms: C_5  and  C_6
REMARK    5  A    between atoms: C_8  and  C_9
REMARK    6  A    between atoms: C_10  and  C_11
REMARK    7  A    between atoms: C_11  and  O_13
REMARK    8  A    between atoms: C_18  and  C_19
REMARK    9  A    between atoms: C_18  and  C_20
REMARK                            x       y       z     vdW  Elec       q    Type
REMARK                         _______ _______ _______ _____ _____    ______ ____
ROOT
ATOM      1  C   UNL     1       4.358   5.878  17.928  0.00  0.00    +0.000 A 
ATOM      2  C   UNL     1       3.807   7.118  17.581  0.00  0.00    +0.000 A 
ATOM      3  C   UNL     1       2.667   7.622  18.226  0.00  0.00    +0.000 A 
ATOM      4  C   UNL     1       2.125   6.894  19.296  0.00  0.00    +0.000 A 
ATOM      5  C   UNL     1       2.650   5.638  19.641  0.00  0.00    +0.000 A 
ATOM      6  C   UNL     1       3.741   5.127  18.931  0.00  0.00    +0.000 A 
ATOM      7  O   UNL     1       4.280   3.896  19.188  0.00  0.00    +0.000 OA
ATOM      8  C   UNL     1       3.449   2.938  19.864  0.00  0.00    +0.000 C 
ATOM      9  C   UNL     1       2.655   2.158  18.806  0.00  0.00    +0.000 C 
ATOM     10  C   UNL     1       4.437   1.991  20.555  0.00  0.00    +0.000 C 
ATOM     11  C   UNL     1       2.507   3.577  20.862  0.00  0.00    +0.000 C 
ATOM     12  C   UNL     1       2.113   4.853  20.751  0.00  0.00    +0.000 C 
ENDROOT
BRANCH   3  13
ATOM     13  C   UNL     1       2.167   8.927  17.761  0.00  0.00    +0.000 C 
ATOM     14  C   UNL     1       1.311   9.816  18.291  0.00  0.00    +0.000 C 
BRANCH  14  15
ATOM     15  C   UNL     1       0.537   9.854  19.548  0.00  0.00    +0.000 C 
ATOM     16  O   UNL     1       1.087   9.828  20.635  0.00  0.00    +0.000 OA
BRANCH  15  17
ATOM     17  O   UNL     1      -0.793   9.976  19.398  0.00  0.00    +0.000 OA
ATOM     18  H   UNL     1      -1.265  10.205  20.217  0.00  0.00    +0.000 HD
ENDBRANCH  15  17
ENDBRANCH  14  15
ENDBRANCH   3  13
BRANCH   1  19
ATOM     19  C   UNL     1       5.548   5.336  17.174  0.00  0.00    +0.000 C 
BRANCH  19  23
ATOM     20  C   UNL     1       5.280   3.889  13.560  0.00  0.00    +0.000 C 
ATOM     21  C   UNL     1       5.875   4.509  14.790  0.00  0.00    +0.000 C 
ATOM     22  C   UNL     1       7.317   4.921  14.738  0.00  0.00    +0.000 C 
ATOM     23  C   UNL     1       5.113   4.683  15.888  0.00  0.00    +0.000 C 
ENDBRANCH  19  23
ENDBRANCH   1  19
TORSDOF 5
ENDMDL
MODEL 6
REMARK VINA RESULT:      -7.6      2.510      5.740
REMARK  Name = 
REMARK  9 active torsions:
REMARK  status: ('A' for Active; 'I' for Inactive)
REMARK    1  A    between atoms: C_1  and  C_2
REMARK    2  A    between atoms: C_2  and  C_3
REMARK    3  A    between atoms: C_4  and  C_5
REMARK    4  A    between atoms: C_5  and  C_6
REMARK    5  A    between atoms: C_8  and  C_9
REMARK    6  A    between atoms: C_10  and  C_11
REMARK    7  A    between atoms: C_11  and  O_13
REMARK    8  A    between atoms: C_18  and  C_19
REMARK    9  A    between atoms: C_18  and  C_20
REMARK                            x       y       z     vdW  Elec       q    Type
REMARK                         _______ _______ _______ _____ _____    ______ ____
ROOT
ATOM      1  C   UNL     1       3.270   6.893  18.320  0.00  0.00    +0.000 A 
ATOM      2  C   UNL     1       2.291   6.153  18.995  0.00  0.00    +0.000 A 
ATOM      3  C   UNL     1       2.619   5.015  19.748  0.00  0.00    +0.000 A 
ATOM      4  C   UNL     1       3.971   4.669  19.885  0.00  0.00    +0.000 A 
ATOM      5  C   UNL     1       4.964   5.384  19.195  0.00  0.00    +0.000 A 
ATOM      6  C   UNL     1       4.599   6.470  18.391  0.00  0.00    +0.000 A 
ATOM      7  O   UNL     1       5.506   7.189  17.663  0.00  0.00    +0.000 OA
ATOM      8  C   UNL     1       6.759   6.554  17.354  0.00  0.00    +0.000 C 
ATOM      9  C   UNL     1       6.596   5.784  16.035  0.00  0.00    +0.000 C 
ATOM     10  C   UNL     1       7.738   7.715  17.146  0.00  0.00    +0.000 C 
ATOM     11  C   UNL     1       7.232   5.624  18.450  0.00  0.00    +0.000 C 
ATOM     12  C   UNL     1       6.382   5.054  19.316  0.00  0.00    +0.000 C 
ENDROOT
BRANCH   3  13
ATOM     13  C   UNL     1       1.503   4.307  20.396  0.00  0.00    +0.000 C 
ATOM     14  C   UNL     1       0.851   3.171  20.101  0.00  0.00    +0.000 C 
BRANCH  14  15
ATOM     15  C   UNL     1       0.992   2.170  19.025  0.00  0.00    +0.000 C 
ATOM     16  O   UNL     1       0.105   1.983  18.210  0.00  0.00    +0.000 OA
BRANCH  15  17
ATOM     17  O   UNL     1       2.176   1.537  18.983  0.00  0.00    +0.000 OA
ATOM     18  H   UNL     1       2.943   2.120  19.112  0.00  0.00    +0.000 HD
ENDBRANCH  15  17
ENDBRANCH  14  15
ENDBRANCH   3  13
BRANCH   1  19
ATOM     19  C   UNL     1       2.877   8.076  17.469  0.00  0.00    +0.000 C 
BRANCH  19  23
ATOM     20  C   UNL     1      -0.204  10.195  18.584  0.00  0.00    +0.000 C 
ATOM     21  C   UNL     1       1.195   9.855  18.162  0.00  0.00    +0.000 C 
ATOM     22  C   UNL     1       2.199  10.969  18.107  0.00  0.00    +0.000 C 
ATOM     23  C   UNL     1       1.511   8.582  17.855  0.00  0.00    +0.000 C 
ENDBRANCH  19  23
ENDBRANCH   1  19
TORSDOF 5
ENDMDL
MODEL 7
REMARK VINA RESULT:      -7.5      1.990      4.871
REMARK  Name = 
REMARK  9 active torsions:
REMARK  status: ('A' for Active; 'I' for Inactive)
REMARK    1  A    between atoms: C_1  and  C_2
REMARK    2  A    between atoms: C_2  and  C_3
REMARK    3  A    between atoms: C_4  and  C_5
REMARK    4  A    between atoms: C_5  and  C_6
REMARK    5  A    between atoms: C_8  and  C_9
REMARK    6  A    between atoms: C_10  and  C_11
REMARK    7  A    between atoms: C_11  and  O_13
REMARK    8  A    between atoms: C_18  and  C_19
REMARK    9  A    between atoms: C_18  and  C_20
REMARK                            x       y       z     vdW  Elec       q    Type
REMARK                         _______ _______ _______ _____ _____    ______ ____
ROOT
ATOM      1  C   UNL     1       3.241   4.710  18.037  0.00  0.00    +0.000 A 
ATOM      2  C   UNL     1       2.565   5.646  18.831  0.00  0.00    +0.000 A 
ATOM      3  C   UNL     1       2.761   7.026  18.668  0.00  0.00    +0.000 A 
ATOM      4  C   UNL     1       3.596   7.467  17.631  0.00  0.00    +0.000 A 
ATOM      5  C   UNL     1       4.301   6.543  16.842  0.00  0.00    +0.000 A 
ATOM      6  C   UNL     1       4.142   5.172  17.076  0.00  0.00    +0.000 A 
ATOM      7  O   UNL     1       4.824   4.218  16.373  0.00  0.00    +0.000 OA
ATOM      8  C   UNL     1       6.039   4.621  15.717  0.00  0.00    +0.000 C 
ATOM      9  C   UNL     1       7.200   4.448  16.707  0.00  0.00    +0.000 C 
ATOM     10  C   UNL     1       6.203   3.623  14.565  0.00  0.00    +0.000 C 
ATOM     11  C   UNL     1       5.988   6.046  15.210  0.00  0.00    +0.000 C 
ATOM     12  C   UNL     1       5.177   6.965  15.751  0.00  0.00    +0.000 C 
ENDROOT
BRANCH   3  13
ATOM     13  C   UNL     1       2.010   7.911  19.573  0.00  0.00    +0.000 C 
ATOM     14  C   UNL     1       1.248   8.997  19.361  0.00  0.00    +0.000 C 
BRANCH  14  15
ATOM     15  C   UNL     1       0.847   9.732  18.146  0.00  0.00    +0.000 C 
ATOM     16  O   UNL     1      -0.324   9.838  17.823  0.00  0.00    +0.000 OA
BRANCH  15  17
ATOM     17  O   UNL     1       1.852  10.314  17.469  0.00  0.00    +0.000 OA
ATOM     18  H   UNL     1       1.976  11.256  17.674  0.00  0.00    +0.000 HD
ENDBRANCH  15  17
ENDBRANCH  14  15
ENDBRANCH   3  13
BRANCH   1  19
ATOM     19  C   UNL     1       3.054   3.232  18.278  0.00  0.00    +0.000 C 
BRANCH  19  23
ATOM     20  C   UNL     1       1.725   2.545  21.883  0.00  0.00    +0.000 C 
ATOM     21  C   UNL     1       1.726   2.766  20.399  0.00  0.00    +0.000 C 
ATOM     22  C   UNL     1       0.402   2.784  19.693  0.00  0.00    +0.000 C 
ATOM     23  C   UNL     1       2.893   2.947  19.749  0.00  0.00    +0.000 C 
ENDBRANCH  19  23
ENDBRANCH   1  19
TORSDOF 5
ENDMDL
MODEL 8
REMARK VINA RESULT:      -7.5      2.483      5.506
REMARK  Name = 
REMARK  9 active torsions:
REMARK  status: ('A' for Active; 'I' for Inactive)
REMARK    1  A    between atoms: C_1  and  C_2
REMARK    2  A    between atoms: C_2  and  C_3
REMARK    3  A    between atoms: C_4  and  C_5
REMARK    4  A    between atoms: C_5  and  C_6
REMARK    5  A    between atoms: C_8  and  C_9
REMARK    6  A    between atoms: C_10  and  C_11
REMARK    7  A    between atoms: C_11  and  O_13
REMARK    8  A    between atoms: C_18  and  C_19
REMARK    9  A    between atoms: C_18  and  C_20
REMARK                            x       y       z     vdW  Elec       q    Type
REMARK                         _______ _______ _______ _____ _____    ______ ____
ROOT
ATOM      1  C   UNL     1       3.271   6.632  17.993  0.00  0.00    +0.000 A 
ATOM      2  C   UNL     1       2.235   5.761  18.355  0.00  0.00    +0.000 A 
ATOM      3  C   UNL     1       2.495   4.464  18.824  0.00  0.00    +0.000 A 
ATOM      4  C   UNL     1       3.830   4.072  19.006  0.00  0.00    +0.000 A 
ATOM      5  C   UNL     1       4.880   4.922  18.625  0.00  0.00    +0.000 A 
ATOM      6  C   UNL     1       4.590   6.182  18.090  0.00  0.00    +0.000 A 
ATOM      7  O   UNL     1       5.560   7.047  17.664  0.00  0.00    +0.000 OA
ATOM      8  C   UNL     1       6.844   6.490  17.334  0.00  0.00    +0.000 C 
ATOM      9  C   UNL     1       6.825   6.081  15.853  0.00  0.00    +0.000 C 
ATOM     10  C   UNL     1       7.828   7.649  17.527  0.00  0.00    +0.000 C 
ATOM     11  C   UNL     1       7.211   5.305  18.200  0.00  0.00    +0.000 C 
ATOM     12  C   UNL     1       6.282   4.549  18.802  0.00  0.00    +0.000 C 
ENDROOT
BRANCH   3  13
ATOM     13  C   UNL     1       1.325   3.634  19.155  0.00  0.00    +0.000 C 
ATOM     14  C   UNL     1       0.916   3.047  20.291  0.00  0.00    +0.000 C 
BRANCH  14  15
ATOM     15  C   UNL     1       1.460   3.004  21.663  0.00  0.00    +0.000 C 
ATOM     16  O   UNL     1       2.395   3.710  22.000  0.00  0.00    +0.000 OA
BRANCH  15  17
ATOM     17  O   UNL     1       0.816   2.183  22.510  0.00  0.00    +0.000 OA
ATOM     18  H   UNL     1      -0.003   2.555  22.879  0.00  0.00    +0.000 HD
ENDBRANCH  15  17
ENDBRANCH  14  15
ENDBRANCH   3  13
BRANCH   1  19
ATOM     19  C   UNL     1       2.956   7.998  17.434  0.00  0.00    +0.000 C 
BRANCH  19  23
ATOM     20  C   UNL     1      -0.098  10.058  18.721  0.00  0.00    +0.000 C 
ATOM     21  C   UNL     1       1.273   9.747  18.196  0.00  0.00    +0.000 C 
ATOM     22  C   UNL     1       2.228  10.891  18.015  0.00  0.00    +0.000 C 
ATOM     23  C   UNL     1       1.609   8.473  17.914  0.00  0.00    +0.000 C 
ENDBRANCH  19  23
ENDBRANCH   1  19
TORSDOF 5
ENDMDL
MODEL 9
REMARK VINA RESULT:      -7.4      2.310      5.250
REMARK  Name = 
REMARK  9 active torsions:
REMARK  status: ('A' for Active; 'I' for Inactive)
REMARK    1  A    between atoms: C_1  and  C_2
REMARK    2  A    between atoms: C_2  and  C_3
REMARK    3  A    between atoms: C_4  and  C_5
REMARK    4  A    between atoms: C_5  and  C_6
REMARK    5  A    between atoms: C_8  and  C_9
REMARK    6  A    between atoms: C_10  and  C_11
REMARK    7  A    between atoms: C_11  and  O_13
REMARK    8  A    between atoms: C_18  and  C_19
REMARK    9  A    between atoms: C_18  and  C_20
REMARK                            x       y       z     vdW  Elec       q    Type
REMARK                         _______ _______ _______ _____ _____    ______ ____
ROOT
ATOM      1  C   UNL     1       3.155   6.045  18.146  0.00  0.00    +0.000 A 
ATOM      2  C   UNL     1       4.314   6.543  17.536  0.00  0.00    +0.000 A 
ATOM      3  C   UNL     1       5.296   5.688  17.014  0.00  0.00    +0.000 A 
ATOM      4  C   UNL     1       5.062   4.305  17.038  0.00  0.00    +0.000 A 
ATOM      5  C   UNL     1       3.918   3.787  17.667  0.00  0.00    +0.000 A 
ATOM      6  C   UNL     1       2.992   4.661  18.245  0.00  0.00    +0.000 A 
ATOM      7  O   UNL     1       1.875   4.226  18.905  0.00  0.00    +0.000 OA
ATOM      8  C   UNL     1       1.887   2.880  19.408  0.00  0.00    +0.000 C 
ATOM      9  C   UNL     1       2.484   2.900  20.823  0.00  0.00    +0.000 C 
ATOM     10  C   UNL     1       0.408   2.485  19.488  0.00  0.00    +0.000 C 
ATOM     11  C   UNL     1       2.665   1.929  18.525  0.00  0.00    +0.000 C 
ATOM     12  C   UNL     1       3.640   2.353  17.708  0.00  0.00    +0.000 C 
ENDROOT
BRANCH   3  13
ATOM     13  C   UNL     1       6.479   6.327  16.415  0.00  0.00    +0.000 C 
ATOM     14  C   UNL     1       7.566   6.911  16.946  0.00  0.00    +0.000 C 
BRANCH  14  15
ATOM     15  C   UNL     1       8.020   7.138  18.333  0.00  0.00    +0.000 C 
ATOM     16  O   UNL     1       8.033   6.237  19.154  0.00  0.00    +0.000 OA
BRANCH  15  17
ATOM     17  O   UNL     1       8.463   8.379  18.595  0.00  0.00    +0.000 OA
ATOM     18  H   UNL     1       7.936   8.858  19.256  0.00  0.00    +0.000 HD
ENDBRANCH  15  17
ENDBRANCH  14  15
ENDBRANCH   3  13
BRANCH   1  19
ATOM     19  C   UNL     1       2.147   6.991  18.752  0.00  0.00    +0.000 C 
BRANCH  19  23
ATOM     20  C   UNL     1       1.895  10.790  17.897  0.00  0.00    +0.000 C 
ATOM     21  C   UNL     1       1.695   9.492  18.622  0.00  0.00    +0.000 C 
ATOM     22  C   UNL     1       0.814   9.497  19.837  0.00  0.00    +0.000 C 
ATOM     23  C   UNL     1       2.293   8.372  18.168  0.00  0.00    +0.000 C 
ENDBRANCH  19  23
ENDBRANCH   1  19
TORSDOF 5
ENDMDL
