MODEL 1
REMARK VINA RESULT:      -7.6      0.000      0.000
REMARK  Name = 
REMARK  12 active torsions:
REMARK  status: ('A' for Active; 'I' for Inactive)
REMARK    1  A    between atoms: C_1  and  O_2
REMARK    2  A    between atoms: O_2  and  C_3
REMARK    3  A    between atoms: C_5  and  O_6
REMARK    4  A    between atoms: O_6  and  C_7
REMARK    5  A    between atoms: C_8  and  C_9
REMARK    6  A    between atoms: C_10  and  C_11
REMARK    7  A    between atoms: C_11  and  C_17
REMARK    8  A    between atoms: N_12  and  N_13
REMARK    9  A    between atoms: N_13  and  C_14
REMARK   10  A    between atoms: C_14  and  N_15
REMARK   11  A    between atoms: C_26  and  O_27
REMARK   12  A    between atoms: O_27  and  C_28
REMARK                            x       y       z     vdW  Elec       q    Type
REMARK                         _______ _______ _______ _____ _____    ______ ____
ROOT
ATOM      1  C   UNL     1       2.930   7.585  17.958  0.00  0.00    +0.000 C 
ATOM      2  N   UNL     1       4.030   7.783  17.273  0.00  0.00    +0.000 NA
ENDROOT
BRANCH   1   3
ATOM      3  C   UNL     1       2.605   6.334  18.637  0.00  0.00    +0.000 A 
ATOM      4  N   UNL     1       1.985   5.313  18.068  0.00  0.00    +0.000 NA
ATOM      5  C   UNL     1       1.799   4.380  19.061  0.00  0.00    +0.000 A 
ATOM      6  C   UNL     1       1.185   3.120  19.007  0.00  0.00    +0.000 A 
ATOM      7  C   UNL     1       1.082   2.370  20.186  0.00  0.00    +0.000 A 
ATOM      8  C   UNL     1       1.588   2.858  21.392  0.00  0.00    +0.000 A 
ATOM      9  C   UNL     1       2.223   4.105  21.462  0.00  0.00    +0.000 A 
ATOM     10  C   UNL     1       2.306   4.835  20.273  0.00  0.00    +0.000 A 
ATOM     11  N   UNL     1       2.822   6.068  19.974  0.00  0.00    +0.000 N 
ATOM     12  H   UNL     1       3.264   6.708  20.622  0.00  0.00    +0.000 HD
ENDBRANCH   1   3
BRANCH   1  14
ATOM     13  C   UNL     1       1.282   8.853  19.319  0.00  0.00    +0.000 C 
ATOM     14  C   UNL     1       1.969   8.727  18.172  0.00  0.00    +0.000 C 
BRANCH  13  18
ATOM     15  C   UNL     1      -1.551  11.972  20.236  0.00  0.00    +0.000 A 
ATOM     16  C   UNL     1      -1.565  11.363  18.984  0.00  0.00    +0.000 A 
ATOM     17  C   UNL     1      -0.667  10.333  18.659  0.00  0.00    +0.000 A 
ATOM     18  C   UNL     1       0.299   9.922  19.598  0.00  0.00    +0.000 A 
ATOM     19  C   UNL     1       0.320  10.556  20.866  0.00  0.00    +0.000 A 
ATOM     20  C   UNL     1      -0.599  11.576  21.170  0.00  0.00    +0.000 A 
BRANCH  15  22
ATOM     21  C   UNL     1      -3.835  12.616  20.122  0.00  0.00    +0.000 C 
ATOM     22  O   UNL     1      -2.485  12.956  20.417  0.00  0.00    +0.000 OA
ENDBRANCH  15  22
BRANCH  17  23
ATOM     23  O   UNL     1      -0.825   9.884  17.373  0.00  0.00    +0.000 OA
ATOM     24  C   UNL     1      -2.137   9.920  16.826  0.00  0.00    +0.000 C 
ENDBRANCH  17  23
BRANCH  19  25
ATOM     25  O   UNL     1       1.272  10.108  21.756  0.00  0.00    +0.000 OA
ATOM     26  C   UNL     1       0.823   9.386  22.895  0.00  0.00    +0.000 C 
ENDBRANCH  19  25
ENDBRANCH  13  18
ENDBRANCH   1  14
BRANCH   2  27
ATOM     27  N   UNL     1       4.811   6.705  16.946  0.00  0.00    +0.000 N 
ATOM     28  H   UNL     1       4.551   6.123  16.151  0.00  0.00    +0.000 HD
BRANCH  27  29
ATOM     29  C   UNL     1       6.067   6.552  17.464  0.00  0.00    +0.000 C 
ATOM     30  S   UNL     1       6.394   5.468  18.674  0.00  0.00    +0.000 S 
BRANCH  29  31
ATOM     31  N   UNL     1       7.011   7.383  16.965  0.00  0.00    +0.000 N 
ATOM     32  H   UNL     1       7.580   7.021  16.210  0.00  0.00    +0.000 HD
ATOM     33  H   UNL     1       7.332   8.178  17.500  0.00  0.00    +0.000 HD
ENDBRANCH  29  31
ENDBRANCH  27  29
ENDBRANCH   2  27
TORSDOF 9
ENDMDL
MODEL 2
REMARK VINA RESULT:      -7.4      0.452      2.404
REMARK  Name = 
REMARK  12 active torsions:
REMARK  status: ('A' for Active; 'I' for Inactive)
REMARK    1  A    between atoms: C_1  and  O_2
REMARK    2  A    between atoms: O_2  and  C_3
REMARK    3  A    between atoms: C_5  and  O_6
REMARK    4  A    between atoms: O_6  and  C_7
REMARK    5  A    between atoms: C_8  and  C_9
REMARK    6  A    between atoms: C_10  and  C_11
REMARK    7  A    between atoms: C_11  and  C_17
REMARK    8  A    between atoms: N_12  and  N_13
REMARK    9  A    between atoms: N_13  and  C_14
REMARK   10  A    between atoms: C_14  and  N_15
REMARK   11  A    between atoms: C_26  and  O_27
REMARK   12  A    between atoms: O_27  and  C_28
REMARK                            x       y       z     vdW  Elec       q    Type
REMARK                         _______ _______ _______ _____ _____    ______ ____
ROOT
ATOM      1  C   UNL     1       2.993   7.737  18.018  0.00  0.00    +0.000 C 
ATOM      2  N   UNL     1       3.983   7.887  17.172  0.00  0.00    +0.000 NA
ENDROOT
BRANCH   1   3
ATOM      3  C   UNL     1       2.649   6.469  18.655  0.00  0.00    +0.000 A 
ATOM      4  N   UNL     1       2.046   5.464  18.042  0.00  0.00    +0.000 NA
ATOM      5  C   UNL     1       1.831   4.506  19.005  0.00  0.00    +0.000 A 
ATOM      6  C   UNL     1       1.219   3.248  18.901  0.00  0.00    +0.000 A 
ATOM      7  C   UNL     1       1.082   2.468  20.056  0.00  0.00    +0.000 A 
ATOM      8  C   UNL     1       1.552   2.926  21.289  0.00  0.00    +0.000 A 
ATOM      9  C   UNL     1       2.184   4.170  21.409  0.00  0.00    +0.000 A 
ATOM     10  C   UNL     1       2.301   4.930  20.243  0.00  0.00    +0.000 A 
ATOM     11  N   UNL     1       2.825   6.170  19.991  0.00  0.00    +0.000 N 
ATOM     12  H   UNL     1       3.247   6.793  20.668  0.00  0.00    +0.000 HD
ENDBRANCH   1   3
BRANCH   1  14
ATOM     13  C   UNL     1       0.975   8.818  18.987  0.00  0.00    +0.000 C 
ATOM     14  C   UNL     1       2.208   8.944  18.469  0.00  0.00    +0.000 C 
BRANCH  13  18
ATOM     15  C   UNL     1      -1.546  12.114  20.161  0.00  0.00    +0.000 A 
ATOM     16  C   UNL     1      -0.546  11.661  21.016  0.00  0.00    +0.000 A 
ATOM     17  C   UNL     1       0.304  10.601  20.658  0.00  0.00    +0.000 A 
ATOM     18  C   UNL     1       0.127   9.948  19.423  0.00  0.00    +0.000 A 
ATOM     19  C   UNL     1      -0.904  10.401  18.561  0.00  0.00    +0.000 A 
ATOM     20  C   UNL     1      -1.732  11.473  18.940  0.00  0.00    +0.000 A 
BRANCH  15  22
ATOM     21  C   UNL     1      -3.212  12.857  21.682  0.00  0.00    +0.000 C 
ATOM     22  O   UNL     1      -2.294  13.156  20.637  0.00  0.00    +0.000 OA
ENDBRANCH  15  22
BRANCH  17  23
ATOM     23  O   UNL     1       1.204  10.291  21.645  0.00  0.00    +0.000 OA
ATOM     24  C   UNL     1       0.803   9.331  22.614  0.00  0.00    +0.000 C 
ENDBRANCH  17  23
BRANCH  19  25
ATOM     25  O   UNL     1      -1.028   9.741  17.358  0.00  0.00    +0.000 OA
ATOM     26  C   UNL     1      -2.224   9.940  16.616  0.00  0.00    +0.000 C 
ENDBRANCH  19  25
ENDBRANCH  13  18
ENDBRANCH   1  14
BRANCH   2  27
ATOM     27  N   UNL     1       4.580   6.772  16.644  0.00  0.00    +0.000 N 
ATOM     28  H   UNL     1       4.201   6.358  15.794  0.00  0.00    +0.000 HD
BRANCH  27  29
ATOM     29  C   UNL     1       5.821   6.369  17.052  0.00  0.00    +0.000 C 
ATOM     30  S   UNL     1       6.081   4.887  17.745  0.00  0.00    +0.000 S 
BRANCH  29  31
ATOM     31  N   UNL     1       6.811   7.280  16.904  0.00  0.00    +0.000 N 
ATOM     32  H   UNL     1       6.699   8.155  17.400  0.00  0.00    +0.000 HD
ATOM     33  H   UNL     1       7.451   7.222  16.124  0.00  0.00    +0.000 HD
ENDBRANCH  29  31
ENDBRANCH  27  29
ENDBRANCH   2  27
TORSDOF 9
ENDMDL
MODEL 3
REMARK VINA RESULT:      -7.4      1.932      4.012
REMARK  Name = 
REMARK  12 active torsions:
REMARK  status: ('A' for Active; 'I' for Inactive)
REMARK    1  A    between atoms: C_1  and  O_2
REMARK    2  A    between atoms: O_2  and  C_3
REMARK    3  A    between atoms: C_5  and  O_6
REMARK    4  A    between atoms: O_6  and  C_7
REMARK    5  A    between atoms: C_8  and  C_9
REMARK    6  A    between atoms: C_10  and  C_11
REMARK    7  A    between atoms: C_11  and  C_17
REMARK    8  A    between atoms: N_12  and  N_13
REMARK    9  A    between atoms: N_13  and  C_14
REMARK   10  A    between atoms: C_14  and  N_15
REMARK   11  A    between atoms: C_26  and  O_27
REMARK   12  A    between atoms: O_27  and  C_28
REMARK                            x       y       z     vdW  Elec       q    Type
REMARK                         _______ _______ _______ _____ _____    ______ ____
ROOT
ATOM      1  C   UNL     1       2.403   6.602  19.911  0.00  0.00    +0.000 C 
ATOM      2  N   UNL     1       1.811   5.833  20.792  0.00  0.00    +0.000 NA
ENDROOT
BRANCH   1   3
ATOM      3  C   UNL     1       3.456   6.146  19.008  0.00  0.00    +0.000 A 
ATOM      4  N   UNL     1       4.544   5.501  19.393  0.00  0.00    +0.000 NA
ATOM      5  C   UNL     1       5.307   5.333  18.261  0.00  0.00    +0.000 A 
ATOM      6  C   UNL     1       6.561   4.724  18.104  0.00  0.00    +0.000 A 
ATOM      7  C   UNL     1       7.154   4.721  16.835  0.00  0.00    +0.000 A 
ATOM      8  C   UNL     1       6.510   5.304  15.742  0.00  0.00    +0.000 A 
ATOM      9  C   UNL     1       5.248   5.899  15.875  0.00  0.00    +0.000 A 
ATOM     10  C   UNL     1       4.683   5.894  17.153  0.00  0.00    +0.000 A 
ATOM     11  N   UNL     1       3.508   6.390  17.650  0.00  0.00    +0.000 N 
ATOM     12  H   UNL     1       2.796   6.887  17.129  0.00  0.00    +0.000 HD
ENDBRANCH   1   3
BRANCH   1  14
ATOM     13  C   UNL     1       0.873   8.497  20.401  0.00  0.00    +0.000 C 
ATOM     14  C   UNL     1       1.922   8.017  19.714  0.00  0.00    +0.000 C 
BRANCH  13  18
ATOM     15  C   UNL     1      -0.736  12.483  20.055  0.00  0.00    +0.000 A 
ATOM     16  C   UNL     1      -0.742  11.630  18.954  0.00  0.00    +0.000 A 
ATOM     17  C   UNL     1      -0.241  10.320  19.038  0.00  0.00    +0.000 A 
ATOM     18  C   UNL     1       0.317   9.858  20.246  0.00  0.00    +0.000 A 
ATOM     19  C   UNL     1       0.336  10.736  21.359  0.00  0.00    +0.000 A 
ATOM     20  C   UNL     1      -0.184  12.038  21.252  0.00  0.00    +0.000 A 
BRANCH  15  22
ATOM     21  C   UNL     1      -1.850  14.381  20.950  0.00  0.00    +0.000 C 
ATOM     22  O   UNL     1      -1.260  13.727  19.832  0.00  0.00    +0.000 OA
ENDBRANCH  15  22
BRANCH  17  23
ATOM     23  O   UNL     1      -0.314   9.652  17.843  0.00  0.00    +0.000 OA
ATOM     24  C   UNL     1      -1.515   9.783  17.094  0.00  0.00    +0.000 C 
ENDBRANCH  17  23
BRANCH  19  25
ATOM     25  O   UNL     1       0.877  10.233  22.522  0.00  0.00    +0.000 OA
ATOM     26  C   UNL     1      -0.004   9.595  23.437  0.00  0.00    +0.000 C 
ENDBRANCH  19  25
ENDBRANCH  13  18
ENDBRANCH   1  14
BRANCH   2  27
ATOM     27  N   UNL     1       2.358   4.609  21.081  0.00  0.00    +0.000 N 
ATOM     28  H   UNL     1       3.222   4.563  21.619  0.00  0.00    +0.000 HD
BRANCH  27  29
ATOM     29  C   UNL     1       1.644   3.455  20.921  0.00  0.00    +0.000 C 
ATOM     30  S   UNL     1       0.900   3.071  19.490  0.00  0.00    +0.000 S 
BRANCH  29  31
ATOM     31  N   UNL     1       1.537   2.675  22.021  0.00  0.00    +0.000 N 
ATOM     32  H   UNL     1       0.783   2.895  22.661  0.00  0.00    +0.000 HD
ATOM     33  H   UNL     1       2.321   2.122  22.339  0.00  0.00    +0.000 HD
ENDBRANCH  29  31
ENDBRANCH  27  29
ENDBRANCH   2  27
TORSDOF 9
ENDMDL
MODEL 4
REMARK VINA RESULT:      -7.3      0.210      1.098
REMARK  Name = 
REMARK  12 active torsions:
REMARK  status: ('A' for Active; 'I' for Inactive)
REMARK    1  A    between atoms: C_1  and  O_2
REMARK    2  A    between atoms: O_2  and  C_3
REMARK    3  A    between atoms: C_5  and  O_6
REMARK    4  A    between atoms: O_6  and  C_7
REMARK    5  A    between atoms: C_8  and  C_9
REMARK    6  A    between atoms: C_10  and  C_11
REMARK    7  A    between atoms: C_11  and  C_17
REMARK    8  A    between atoms: N_12  and  N_13
REMARK    9  A    between atoms: N_13  and  C_14
REMARK   10  A    between atoms: C_14  and  N_15
REMARK   11  A    between atoms: C_26  and  O_27
REMARK   12  A    between atoms: O_27  and  C_28
REMARK                            x       y       z     vdW  Elec       q    Type
REMARK                         _______ _______ _______ _____ _____    ______ ____
ROOT
ATOM      1  C   UNL     1       2.843   7.620  18.004  0.00  0.00    +0.000 C 
ATOM      2  N   UNL     1       3.964   7.759  17.340  0.00  0.00    +0.000 NA
ENDROOT
BRANCH   1   3
ATOM      3  C   UNL     1       2.425   6.379  18.651  0.00  0.00    +0.000 A 
ATOM      4  N   UNL     1       2.626   6.098  19.927  0.00  0.00    +0.000 NA
ATOM      5  C   UNL     1       2.165   4.814  20.109  0.00  0.00    +0.000 A 
ATOM      6  C   UNL     1       2.147   4.021  21.266  0.00  0.00    +0.000 A 
ATOM      7  C   UNL     1       1.656   2.712  21.178  0.00  0.00    +0.000 A 
ATOM      8  C   UNL     1       1.184   2.204  19.966  0.00  0.00    +0.000 A 
ATOM      9  C   UNL     1       1.175   2.988  18.804  0.00  0.00    +0.000 A 
ATOM     10  C   UNL     1       1.677   4.287  18.919  0.00  0.00    +0.000 A 
ATOM     11  N   UNL     1       1.841   5.302  18.015  0.00  0.00    +0.000 N 
ATOM     12  H   UNL     1       1.608   5.274  17.030  0.00  0.00    +0.000 HD
ENDBRANCH   1   3
BRANCH   1  14
ATOM     13  C   UNL     1       1.056   8.842  19.226  0.00  0.00    +0.000 C 
ATOM     14  C   UNL     1       1.958   8.820  18.230  0.00  0.00    +0.000 C 
BRANCH  13  18
ATOM     15  C   UNL     1      -1.609  12.111  20.120  0.00  0.00    +0.000 A 
ATOM     16  C   UNL     1      -1.701  11.450  18.898  0.00  0.00    +0.000 A 
ATOM     17  C   UNL     1      -0.860  10.371  18.582  0.00  0.00    +0.000 A 
ATOM     18  C   UNL     1       0.129   9.961  19.498  0.00  0.00    +0.000 A 
ATOM     19  C   UNL     1       0.230  10.648  20.734  0.00  0.00    +0.000 A 
ATOM     20  C   UNL     1      -0.633  11.718  21.030  0.00  0.00    +0.000 A 
BRANCH  15  22
ATOM     21  C   UNL     1      -3.875  12.797  20.318  0.00  0.00    +0.000 C 
ATOM     22  O   UNL     1      -2.494  13.140  20.295  0.00  0.00    +0.000 OA
ENDBRANCH  15  22
BRANCH  17  23
ATOM     23  O   UNL     1      -1.092   9.873  17.326  0.00  0.00    +0.000 OA
ATOM     24  C   UNL     1      -2.418   9.962  16.824  0.00  0.00    +0.000 C 
ENDBRANCH  17  23
BRANCH  19  25
ATOM     25  O   UNL     1       1.203  10.201  21.602  0.00  0.00    +0.000 OA
ATOM     26  C   UNL     1       0.785   9.413  22.709  0.00  0.00    +0.000 C 
ENDBRANCH  19  25
ENDBRANCH  13  18
ENDBRANCH   1  14
BRANCH   2  27
ATOM     27  N   UNL     1       4.676   6.638  16.999  0.00  0.00    +0.000 N 
ATOM     28  H   UNL     1       4.361   6.065  16.218  0.00  0.00    +0.000 HD
BRANCH  27  29
ATOM     29  C   UNL     1       5.938   6.423  17.479  0.00  0.00    +0.000 C 
ATOM     30  S   UNL     1       6.238   5.370  18.723  0.00  0.00    +0.000 S 
BRANCH  29  31
ATOM     31  N   UNL     1       6.915   7.167  16.912  0.00  0.00    +0.000 N 
ATOM     32  H   UNL     1       6.715   8.150  16.772  0.00  0.00    +0.000 HD
ATOM     33  H   UNL     1       7.659   6.727  16.388  0.00  0.00    +0.000 HD
ENDBRANCH  29  31
ENDBRANCH  27  29
ENDBRANCH   2  27
TORSDOF 9
ENDMDL
MODEL 5
REMARK VINA RESULT:      -7.2      1.492      1.740
REMARK  Name = 
REMARK  12 active torsions:
REMARK  status: ('A' for Active; 'I' for Inactive)
REMARK    1  A    between atoms: C_1  and  O_2
REMARK    2  A    between atoms: O_2  and  C_3
REMARK    3  A    between atoms: C_5  and  O_6
REMARK    4  A    between atoms: O_6  and  C_7
REMARK    5  A    between atoms: C_8  and  C_9
REMARK    6  A    between atoms: C_10  and  C_11
REMARK    7  A    between atoms: C_11  and  C_17
REMARK    8  A    between atoms: N_12  and  N_13
REMARK    9  A    between atoms: N_13  and  C_14
REMARK   10  A    between atoms: C_14  and  N_15
REMARK   11  A    between atoms: C_26  and  O_27
REMARK   12  A    between atoms: O_27  and  C_28
REMARK                            x       y       z     vdW  Elec       q    Type
REMARK                         _______ _______ _______ _____ _____    ______ ____
ROOT
ATOM      1  C   UNL     1       3.091   7.437  17.843  0.00  0.00    +0.000 C 
ATOM      2  N   UNL     1       4.229   7.592  17.210  0.00  0.00    +0.000 NA
ENDROOT
BRANCH   1   3
ATOM      3  C   UNL     1       2.711   6.218  18.551  0.00  0.00    +0.000 A 
ATOM      4  N   UNL     1       2.070   5.202  17.998  0.00  0.00    +0.000 NA
ATOM      5  C   UNL     1       1.832   4.306  19.015  0.00  0.00    +0.000 A 
ATOM      6  C   UNL     1       1.178   3.065  18.984  0.00  0.00    +0.000 A 
ATOM      7  C   UNL     1       1.026   2.355  20.182  0.00  0.00    +0.000 A 
ATOM      8  C   UNL     1       1.522   2.863  21.384  0.00  0.00    +0.000 A 
ATOM      9  C   UNL     1       2.196   4.090  21.431  0.00  0.00    +0.000 A 
ATOM     10  C   UNL     1       2.328   4.781  20.224  0.00  0.00    +0.000 A 
ATOM     11  N   UNL     1       2.890   5.986  19.900  0.00  0.00    +0.000 N 
ATOM     12  H   UNL     1       3.340   6.631  20.539  0.00  0.00    +0.000 HD
ENDBRANCH   1   3
BRANCH   1  14
ATOM     13  C   UNL     1       1.979   9.251  19.127  0.00  0.00    +0.000 C 
ATOM     14  C   UNL     1       2.140   8.601  17.962  0.00  0.00    +0.000 C 
BRANCH  13  18
ATOM     15  C   UNL     1      -0.808  12.473  19.796  0.00  0.00    +0.000 A 
ATOM     16  C   UNL     1       0.322  12.680  19.011  0.00  0.00    +0.000 A 
ATOM     17  C   UNL     1       1.240  11.648  18.759  0.00  0.00    +0.000 A 
ATOM     18  C   UNL     1       1.046  10.379  19.339  0.00  0.00    +0.000 A 
ATOM     19  C   UNL     1      -0.097  10.177  20.152  0.00  0.00    +0.000 A 
ATOM     20  C   UNL     1      -1.008  11.224  20.378  0.00  0.00    +0.000 A 
BRANCH  15  22
ATOM     21  C   UNL     1      -1.362  14.393  21.082  0.00  0.00    +0.000 C 
ATOM     22  O   UNL     1      -1.619  13.564  19.953  0.00  0.00    +0.000 OA
ENDBRANCH  15  22
BRANCH  17  23
ATOM     23  O   UNL     1       2.296  12.059  17.985  0.00  0.00    +0.000 OA
ATOM     24  C   UNL     1       2.833  13.349  18.248  0.00  0.00    +0.000 C 
ENDBRANCH  17  23
BRANCH  19  25
ATOM     25  O   UNL     1      -0.252   8.915  20.684  0.00  0.00    +0.000 OA
ATOM     26  C   UNL     1      -0.371   8.806  22.097  0.00  0.00    +0.000 C 
ENDBRANCH  19  25
ENDBRANCH  13  18
ENDBRANCH   1  14
BRANCH   2  27
ATOM     27  N   UNL     1       5.008   6.491  16.965  0.00  0.00    +0.000 N 
ATOM     28  H   UNL     1       4.746   5.851  16.216  0.00  0.00    +0.000 HD
BRANCH  27  29
ATOM     29  C   UNL     1       6.264   6.376  17.493  0.00  0.00    +0.000 C 
ATOM     30  S   UNL     1       6.569   5.471  18.847  0.00  0.00    +0.000 S 
BRANCH  29  31
ATOM     31  N   UNL     1       7.228   7.094  16.872  0.00  0.00    +0.000 N 
ATOM     32  H   UNL     1       8.133   7.124  17.324  0.00  0.00    +0.000 HD
ATOM     33  H   UNL     1       6.986   7.793  16.183  0.00  0.00    +0.000 HD
ENDBRANCH  29  31
ENDBRANCH  27  29
ENDBRANCH   2  27
TORSDOF 9
ENDMDL
MODEL 6
REMARK VINA RESULT:      -7.2      1.376      2.117
REMARK  Name = 
REMARK  12 active torsions:
REMARK  status: ('A' for Active; 'I' for Inactive)
REMARK    1  A    between atoms: C_1  and  O_2
REMARK    2  A    between atoms: O_2  and  C_3
REMARK    3  A    between atoms: C_5  and  O_6
REMARK    4  A    between atoms: O_6  and  C_7
REMARK    5  A    between atoms: C_8  and  C_9
REMARK    6  A    between atoms: C_10  and  C_11
REMARK    7  A    between atoms: C_11  and  C_17
REMARK    8  A    between atoms: N_12  and  N_13
REMARK    9  A    between atoms: N_13  and  C_14
REMARK   10  A    between atoms: C_14  and  N_15
REMARK   11  A    between atoms: C_26  and  O_27
REMARK   12  A    between atoms: O_27  and  C_28
REMARK                            x       y       z     vdW  Elec       q    Type
REMARK                         _______ _______ _______ _____ _____    ______ ____
ROOT
ATOM      1  C   UNL     1       2.846   7.463  17.927  0.00  0.00    +0.000 C 
ATOM      2  N   UNL     1       3.945   7.706  17.255  0.00  0.00    +0.000 NA
ENDROOT
BRANCH   1   3
ATOM      3  C   UNL     1       2.564   6.198  18.600  0.00  0.00    +0.000 A 
ATOM      4  N   UNL     1       2.059   5.131  18.004  0.00  0.00    +0.000 NA
ATOM      5  C   UNL     1       1.869   4.197  18.996  0.00  0.00    +0.000 A 
ATOM      6  C   UNL     1       1.351   2.895  18.918  0.00  0.00    +0.000 A 
ATOM      7  C   UNL     1       1.220   2.151  20.097  0.00  0.00    +0.000 A 
ATOM      8  C   UNL     1       1.604   2.686  21.329  0.00  0.00    +0.000 A 
ATOM      9  C   UNL     1       2.143   3.976  21.424  0.00  0.00    +0.000 A 
ATOM     10  C   UNL     1       2.257   4.699  20.233  0.00  0.00    +0.000 A 
ATOM     11  N   UNL     1       2.704   5.962  19.952  0.00  0.00    +0.000 N 
ATOM     12  H   UNL     1       3.054   6.638  20.621  0.00  0.00    +0.000 HD
ENDBRANCH   1   3
BRANCH   1  14
ATOM     13  C   UNL     1       1.902   9.376  19.202  0.00  0.00    +0.000 C 
ATOM     14  C   UNL     1       1.839   8.566  18.132  0.00  0.00    +0.000 C 
BRANCH  13  18
ATOM     15  C   UNL     1      -0.841  12.604  20.006  0.00  0.00    +0.000 A 
ATOM     16  C   UNL     1      -1.047  11.354  20.581  0.00  0.00    +0.000 A 
ATOM     17  C   UNL     1      -0.163  10.286  20.354  0.00  0.00    +0.000 A 
ATOM     18  C   UNL     1       0.940  10.459  19.496  0.00  0.00    +0.000 A 
ATOM     19  C   UNL     1       1.136  11.730  18.898  0.00  0.00    +0.000 A 
ATOM     20  C   UNL     1       0.244  12.786  19.153  0.00  0.00    +0.000 A 
BRANCH  15  22
ATOM     21  C   UNL     1      -3.120  13.101  20.459  0.00  0.00    +0.000 C 
ATOM     22  O   UNL     1      -1.777  13.552  20.318  0.00  0.00    +0.000 OA
ENDBRANCH  15  22
BRANCH  17  23
ATOM     23  O   UNL     1      -0.554   9.135  20.989  0.00  0.00    +0.000 OA
ATOM     24  C   UNL     1      -0.370   9.073  22.397  0.00  0.00    +0.000 C 
ENDBRANCH  17  23
BRANCH  19  25
ATOM     25  O   UNL     1       2.238  11.854  18.079  0.00  0.00    +0.000 OA
ATOM     26  C   UNL     1       2.935  13.093  18.096  0.00  0.00    +0.000 C 
ENDBRANCH  19  25
ENDBRANCH  13  18
ENDBRANCH   1  14
BRANCH   2  27
ATOM     27  N   UNL     1       4.772   6.660  16.934  0.00  0.00    +0.000 N 
ATOM     28  H   UNL     1       4.554   6.083  16.123  0.00  0.00    +0.000 HD
BRANCH  27  29
ATOM     29  C   UNL     1       6.017   6.542  17.486  0.00  0.00    +0.000 C 
ATOM     30  S   UNL     1       6.347   5.447  18.685  0.00  0.00    +0.000 S 
BRANCH  29  31
ATOM     31  N   UNL     1       6.945   7.414  17.030  0.00  0.00    +0.000 N 
ATOM     32  H   UNL     1       7.871   7.345  17.434  0.00  0.00    +0.000 HD
ATOM     33  H   UNL     1       6.665   8.263  16.557  0.00  0.00    +0.000 HD
ENDBRANCH  29  31
ENDBRANCH  27  29
ENDBRANCH   2  27
TORSDOF 9
ENDMDL
MODEL 7
REMARK VINA RESULT:      -7.1      1.924      3.813
REMARK  Name = 
REMARK  12 active torsions:
REMARK  status: ('A' for Active; 'I' for Inactive)
REMARK    1  A    between atoms: C_1  and  O_2
REMARK    2  A    between atoms: O_2  and  C_3
REMARK    3  A    between atoms: C_5  and  O_6
REMARK    4  A    between atoms: O_6  and  C_7
REMARK    5  A    between atoms: C_8  and  C_9
REMARK    6  A    between atoms: C_10  and  C_11
REMARK    7  A    between atoms: C_11  and  C_17
REMARK    8  A    between atoms: N_12  and  N_13
REMARK    9  A    between atoms: N_13  and  C_14
REMARK   10  A    between atoms: C_14  and  N_15
REMARK   11  A    between atoms: C_26  and  O_27
REMARK   12  A    between atoms: O_27  and  C_28
REMARK                            x       y       z     vdW  Elec       q    Type
REMARK                         _______ _______ _______ _____ _____    ______ ____
ROOT
ATOM      1  C   UNL     1       2.437   6.389  19.828  0.00  0.00    +0.000 C 
ATOM      2  N   UNL     1       1.735   5.574  20.577  0.00  0.00    +0.000 NA
ENDROOT
BRANCH   1   3
ATOM      3  C   UNL     1       3.527   5.961  18.957  0.00  0.00    +0.000 A 
ATOM      4  N   UNL     1       3.366   5.515  17.722  0.00  0.00    +0.000 NA
ATOM      5  C   UNL     1       4.617   5.142  17.288  0.00  0.00    +0.000 A 
ATOM      6  C   UNL     1       5.016   4.595  16.059  0.00  0.00    +0.000 A 
ATOM      7  C   UNL     1       6.363   4.257  15.877  0.00  0.00    +0.000 A 
ATOM      8  C   UNL     1       7.297   4.468  16.894  0.00  0.00    +0.000 A 
ATOM      9  C   UNL     1       6.922   5.033  18.120  0.00  0.00    +0.000 A 
ATOM     10  C   UNL     1       5.571   5.353  18.276  0.00  0.00    +0.000 A 
ATOM     11  N   UNL     1       4.857   5.884  19.317  0.00  0.00    +0.000 N 
ATOM     12  H   UNL     1       5.223   6.151  20.223  0.00  0.00    +0.000 HD
ENDBRANCH   1   3
BRANCH   1  14
ATOM     13  C   UNL     1       0.903   8.292  20.279  0.00  0.00    +0.000 C 
ATOM     14  C   UNL     1       2.054   7.846  19.750  0.00  0.00    +0.000 C 
BRANCH  13  18
ATOM     15  C   UNL     1      -0.442  12.389  20.212  0.00  0.00    +0.000 A 
ATOM     16  C   UNL     1      -0.513  11.612  19.060  0.00  0.00    +0.000 A 
ATOM     17  C   UNL     1      -0.100  10.270  19.052  0.00  0.00    +0.000 A 
ATOM     18  C   UNL     1       0.437   9.694  20.220  0.00  0.00    +0.000 A 
ATOM     19  C   UNL     1       0.524  10.494  21.387  0.00  0.00    +0.000 A 
ATOM     20  C   UNL     1       0.091  11.832  21.371  0.00  0.00    +0.000 A 
BRANCH  15  22
ATOM     21  C   UNL     1      -0.271  14.653  20.913  0.00  0.00    +0.000 C 
ATOM     22  O   UNL     1      -0.884  13.677  20.077  0.00  0.00    +0.000 OA
ENDBRANCH  15  22
BRANCH  17  23
ATOM     23  O   UNL     1      -0.227   9.687  17.817  0.00  0.00    +0.000 OA
ATOM     24  C   UNL     1      -1.490   9.795  17.172  0.00  0.00    +0.000 C 
ENDBRANCH  17  23
BRANCH  19  25
ATOM     25  O   UNL     1       1.042   9.882  22.508  0.00  0.00    +0.000 OA
ATOM     26  C   UNL     1       0.131   9.502  23.531  0.00  0.00    +0.000 C 
ENDBRANCH  19  25
ENDBRANCH  13  18
ENDBRANCH   1  14
BRANCH   2  27
ATOM     27  N   UNL     1       2.187   4.295  20.771  0.00  0.00    +0.000 N 
ATOM     28  H   UNL     1       2.774   4.089  21.578  0.00  0.00    +0.000 HD
BRANCH  27  29
ATOM     29  C   UNL     1       1.650   3.240  20.087  0.00  0.00    +0.000 C 
ATOM     30  S   UNL     1       2.580   2.224  19.166  0.00  0.00    +0.000 S 
BRANCH  29  31
ATOM     31  N   UNL     1       0.305   3.114  20.166  0.00  0.00    +0.000 N 
ATOM     32  H   UNL     1      -0.215   3.259  19.310  0.00  0.00    +0.000 HD
ATOM     33  H   UNL     1      -0.166   3.177  21.058  0.00  0.00    +0.000 HD
ENDBRANCH  29  31
ENDBRANCH  27  29
ENDBRANCH   2  27
TORSDOF 9
ENDMDL
MODEL 8
REMARK VINA RESULT:      -7.0      1.920      3.753
REMARK  Name = 
REMARK  12 active torsions:
REMARK  status: ('A' for Active; 'I' for Inactive)
REMARK    1  A    between atoms: C_1  and  O_2
REMARK    2  A    between atoms: O_2  and  C_3
REMARK    3  A    between atoms: C_5  and  O_6
REMARK    4  A    between atoms: O_6  and  C_7
REMARK    5  A    between atoms: C_8  and  C_9
REMARK    6  A    between atoms: C_10  and  C_11
REMARK    7  A    between atoms: C_11  and  C_17
REMARK    8  A    between atoms: N_12  and  N_13
REMARK    9  A    between atoms: N_13  and  C_14
REMARK   10  A    between atoms: C_14  and  N_15
REMARK   11  A    between atoms: C_26  and  O_27
REMARK   12  A    between atoms: O_27  and  C_28
REMARK                            x       y       z     vdW  Elec       q    Type
REMARK                         _______ _______ _______ _____ _____    ______ ____
ROOT
ATOM      1  C   UNL     1       2.178   6.971  19.769  0.00  0.00    +0.000 C 
ATOM      2  N   UNL     1       1.813   6.262  20.810  0.00  0.00    +0.000 NA
ENDROOT
BRANCH   1   3
ATOM      3  C   UNL     1       2.965   6.443  18.658  0.00  0.00    +0.000 A 
ATOM      4  N   UNL     1       3.056   5.160  18.350  0.00  0.00    +0.000 NA
ATOM      5  C   UNL     1       3.951   5.083  17.308  0.00  0.00    +0.000 A 
ATOM      6  C   UNL     1       4.419   3.962  16.606  0.00  0.00    +0.000 A 
ATOM      7  C   UNL     1       5.375   4.148  15.600  0.00  0.00    +0.000 A 
ATOM      8  C   UNL     1       5.850   5.425  15.290  0.00  0.00    +0.000 A 
ATOM      9  C   UNL     1       5.379   6.558  15.966  0.00  0.00    +0.000 A 
ATOM     10  C   UNL     1       4.430   6.343  16.969  0.00  0.00    +0.000 A 
ATOM     11  N   UNL     1       3.781   7.186  17.830  0.00  0.00    +0.000 N 
ATOM     12  H   UNL     1       3.894   8.191  17.887  0.00  0.00    +0.000 HD
ENDBRANCH   1   3
BRANCH   1  14
ATOM     13  C   UNL     1       0.621   8.829  20.314  0.00  0.00    +0.000 C 
ATOM     14  C   UNL     1       1.684   8.387  19.622  0.00  0.00    +0.000 C 
BRANCH  13  18
ATOM     15  C   UNL     1      -1.026  12.809  20.106  0.00  0.00    +0.000 A 
ATOM     16  C   UNL     1      -1.027  11.993  18.978  0.00  0.00    +0.000 A 
ATOM     17  C   UNL     1      -0.514  10.686  19.016  0.00  0.00    +0.000 A 
ATOM     18  C   UNL     1       0.052  10.189  20.206  0.00  0.00    +0.000 A 
ATOM     19  C   UNL     1       0.066  11.030  21.348  0.00  0.00    +0.000 A 
ATOM     20  C   UNL     1      -0.466  12.330  21.286  0.00  0.00    +0.000 A 
BRANCH  15  22
ATOM     21  C   UNL     1      -2.568  14.456  20.850  0.00  0.00    +0.000 C 
ATOM     22  O   UNL     1      -1.562  14.055  19.926  0.00  0.00    +0.000 OA
ENDBRANCH  15  22
BRANCH  17  23
ATOM     23  O   UNL     1      -0.584  10.057  17.799  0.00  0.00    +0.000 OA
ATOM     24  C   UNL     1      -1.858   9.990  17.173  0.00  0.00    +0.000 C 
ENDBRANCH  17  23
BRANCH  19  25
ATOM     25  O   UNL     1       0.616  10.493  22.493  0.00  0.00    +0.000 OA
ATOM     26  C   UNL     1      -0.251   9.788  23.372  0.00  0.00    +0.000 C 
ENDBRANCH  19  25
ENDBRANCH  13  18
ENDBRANCH   1  14
BRANCH   2  27
ATOM     27  N   UNL     1       2.396   5.039  21.019  0.00  0.00    +0.000 N 
ATOM     28  H   UNL     1       3.332   4.995  21.419  0.00  0.00    +0.000 HD
BRANCH  27  29
ATOM     29  C   UNL     1       1.665   3.885  20.976  0.00  0.00    +0.000 C 
ATOM     30  S   UNL     1       2.134   2.516  21.783  0.00  0.00    +0.000 S 
BRANCH  29  31
ATOM     31  N   UNL     1       0.566   3.917  20.187  0.00  0.00    +0.000 N 
ATOM     32  H   UNL     1       0.491   3.193  19.484  0.00  0.00    +0.000 HD
ATOM     33  H   UNL     1       0.021   4.764  20.098  0.00  0.00    +0.000 HD
ENDBRANCH  29  31
ENDBRANCH  27  29
ENDBRANCH   2  27
TORSDOF 9
ENDMDL
MODEL 9
REMARK VINA RESULT:      -7.0      1.479      1.741
REMARK  Name = 
REMARK  12 active torsions:
REMARK  status: ('A' for Active; 'I' for Inactive)
REMARK    1  A    between atoms: C_1  and  O_2
REMARK    2  A    between atoms: O_2  and  C_3
REMARK    3  A    between atoms: C_5  and  O_6
REMARK    4  A    between atoms: O_6  and  C_7
REMARK    5  A    between atoms: C_8  and  C_9
REMARK    6  A    between atoms: C_10  and  C_11
REMARK    7  A    between atoms: C_11  and  C_17
REMARK    8  A    between atoms: N_12  and  N_13
REMARK    9  A    between atoms: N_13  and  C_14
REMARK   10  A    between atoms: C_14  and  N_15
REMARK   11  A    between atoms: C_26  and  O_27
REMARK   12  A    between atoms: O_27  and  C_28
REMARK                            x       y       z     vdW  Elec       q    Type
REMARK                         _______ _______ _______ _____ _____    ______ ____
ROOT
ATOM      1  C   UNL     1       2.670   7.666  18.327  0.00  0.00    +0.000 C 
ATOM      2  N   UNL     1       3.607   7.949  17.455  0.00  0.00    +0.000 NA
ENDROOT
BRANCH   1   3
ATOM      3  C   UNL     1       2.443   6.333  18.878  0.00  0.00    +0.000 A 
ATOM      4  N   UNL     1       2.013   5.298  18.175  0.00  0.00    +0.000 NA
ATOM      5  C   UNL     1       1.853   4.269  19.075  0.00  0.00    +0.000 A 
ATOM      6  C   UNL     1       1.411   2.954  18.868  0.00  0.00    +0.000 A 
ATOM      7  C   UNL     1       1.293   2.101  19.973  0.00  0.00    +0.000 A 
ATOM      8  C   UNL     1       1.618   2.544  21.257  0.00  0.00    +0.000 A 
ATOM      9  C   UNL     1       2.081   3.847  21.481  0.00  0.00    +0.000 A 
ATOM     10  C   UNL     1       2.182   4.678  20.362  0.00  0.00    +0.000 A 
ATOM     11  N   UNL     1       2.564   5.984  20.207  0.00  0.00    +0.000 N 
ATOM     12  H   UNL     1       2.859   6.616  20.942  0.00  0.00    +0.000 HD
ENDBRANCH   1   3
BRANCH   1  14
ATOM     13  C   UNL     1       1.230   9.680  18.108  0.00  0.00    +0.000 C 
ATOM     14  C   UNL     1       1.827   8.777  18.902  0.00  0.00    +0.000 C 
BRANCH  13  18
ATOM     15  C   UNL     1      -1.056  13.049  19.527  0.00  0.00    +0.000 A 
ATOM     16  C   UNL     1      -1.692  11.844  19.244  0.00  0.00    +0.000 A 
ATOM     17  C   UNL     1      -0.975  10.723  18.797  0.00  0.00    +0.000 A 
ATOM     18  C   UNL     1       0.415  10.816  18.589  0.00  0.00    +0.000 A 
ATOM     19  C   UNL     1       1.056  12.051  18.862  0.00  0.00    +0.000 A 
ATOM     20  C   UNL     1       0.317  13.154  19.322  0.00  0.00    +0.000 A 
BRANCH  15  22
ATOM     21  C   UNL     1      -2.996  13.670  20.749  0.00  0.00    +0.000 C 
ATOM     22  O   UNL     1      -1.877  14.055  19.960  0.00  0.00    +0.000 OA
ENDBRANCH  15  22
BRANCH  17  23
ATOM     23  O   UNL     1      -1.785   9.644  18.551  0.00  0.00    +0.000 OA
ATOM     24  C   UNL     1      -2.814   9.807  17.583  0.00  0.00    +0.000 C 
ENDBRANCH  17  23
BRANCH  19  25
ATOM     25  O   UNL     1       2.419  12.088  18.659  0.00  0.00    +0.000 OA
ATOM     26  C   UNL     1       2.991  13.325  18.255  0.00  0.00    +0.000 C 
ENDBRANCH  19  25
ENDBRANCH  13  18
ENDBRANCH   1  14
BRANCH   2  27
ATOM     27  N   UNL     1       4.253   6.922  16.818  0.00  0.00    +0.000 N 
ATOM     28  H   UNL     1       3.885   6.573  15.933  0.00  0.00    +0.000 HD
BRANCH  27  29
ATOM     29  C   UNL     1       5.517   6.544  17.177  0.00  0.00    +0.000 C 
ATOM     30  S   UNL     1       5.829   5.082  17.891  0.00  0.00    +0.000 S 
BRANCH  29  31
ATOM     31  N   UNL     1       6.485   7.464  16.962  0.00  0.00    +0.000 N 
ATOM     32  H   UNL     1       7.107   7.294  16.182  0.00  0.00    +0.000 HD
ATOM     33  H   UNL     1       6.762   8.101  17.697  0.00  0.00    +0.000 HD
ENDBRANCH  29  31
ENDBRANCH  27  29
ENDBRANCH   2  27
TORSDOF 9
ENDMDL
