MODEL 1
REMARK VINA RESULT:      -7.8      0.000      0.000
REMARK  Name = 
REMARK  5 active torsions:
REMARK  status: ('A' for Active; 'I' for Inactive)
REMARK    1  A    between atoms: C_1  and  C_2
REMARK    2  A    between atoms: C_4  and  C_5
REMARK    3  A    between atoms: C_11  and  C_12
REMARK    4  A    between atoms: N_15  and  C_16
REMARK    5  A    between atoms: C_16  and  C_17
REMARK                            x       y       z     vdW  Elec       q    Type
REMARK                         _______ _______ _______ _____ _____    ______ ____
ROOT
ATOM      1  C   UNL     1       1.902   7.749  20.278  0.00  0.00    +0.000 C 
ATOM      2  C   UNL     1       1.474   8.472  19.002  0.00  0.00    +0.000 C 
ATOM      3  C   UNL     1       1.212   9.931  19.349  0.00  0.00    +0.000 C 
ATOM      4  N   UNL     1       0.180  10.106  20.406  0.00  0.00    +0.000 NA
ATOM      5  C   UNL     1       0.411   9.237  21.593  0.00  0.00    +0.000 C 
ATOM      6  C   UNL     1       0.698   7.767  21.225  0.00  0.00    +0.000 C 
ENDROOT
BRANCH   1  12
ATOM      7  C   UNL     1       1.528   2.885  20.890  0.00  0.00    +0.000 C 
ATOM      8  C   UNL     1       2.290   4.042  20.315  0.00  0.00    +0.000 A 
ATOM      9  C   UNL     1       3.464   3.853  19.581  0.00  0.00    +0.000 A 
ATOM     10  C   UNL     1       4.107   4.977  19.043  0.00  0.00    +0.000 A 
ATOM     11  N   UNL     1       3.591   6.216  19.246  0.00  0.00    +0.000 NA
ATOM     12  C   UNL     1       2.455   6.384  19.981  0.00  0.00    +0.000 A 
ATOM     13  N   UNL     1       1.821   5.298  20.502  0.00  0.00    +0.000 NA
BRANCH  10  14
ATOM     14  C   UNL     1       5.319   4.846  18.228  0.00  0.00    +0.000 A 
ATOM     15  N   UNL     1       6.573   4.799  18.732  0.00  0.00    +0.000 NA
ATOM     16  C   UNL     1       7.502   4.618  17.757  0.00  0.00    +0.000 A 
ATOM     17  C   UNL     1       6.994   4.528  16.466  0.00  0.00    +0.000 A 
ATOM     18  S   UNL     1       5.323   4.678  16.553  0.00  0.00    +0.000 S 
ENDBRANCH  10  14
ENDBRANCH   1  12
BRANCH   4  19
ATOM     19  C   UNL     1       0.201  11.524  20.854  0.00  0.00    +0.000 C 
BRANCH  19  20
ATOM     20  C   UNL     1      -1.146  11.966  21.376  0.00  0.00    +0.000 A 
ATOM     21  C   UNL     1      -1.415  11.916  22.751  0.00  0.00    +0.000 A 
ATOM     22  C   UNL     1      -2.670  12.294  23.236  0.00  0.00    +0.000 A 
ATOM     23  C   UNL     1      -3.666  12.718  22.351  0.00  0.00    +0.000 A 
ATOM     24  F   UNL     1      -4.887  13.074  22.823  0.00  0.00    +0.000 F 
ATOM     25  C   UNL     1      -3.406  12.772  20.978  0.00  0.00    +0.000 A 
ATOM     26  C   UNL     1      -2.150  12.402  20.491  0.00  0.00    +0.000 A 
ENDBRANCH  19  20
ENDBRANCH   4  19
TORSDOF 4
ENDMDL
MODEL 2
REMARK VINA RESULT:      -7.7      1.582      1.759
REMARK  Name = 
REMARK  5 active torsions:
REMARK  status: ('A' for Active; 'I' for Inactive)
REMARK    1  A    between atoms: C_1  and  C_2
REMARK    2  A    between atoms: C_4  and  C_5
REMARK    3  A    between atoms: C_11  and  C_12
REMARK    4  A    between atoms: N_15  and  C_16
REMARK    5  A    between atoms: C_16  and  C_17
REMARK                            x       y       z     vdW  Elec       q    Type
REMARK                         _______ _______ _______ _____ _____    ______ ____
ROOT
ATOM      1  C   UNL     1       2.302   7.283  19.125  0.00  0.00    +0.000 C 
ATOM      2  C   UNL     1       1.554   8.181  18.142  0.00  0.00    +0.000 C 
ATOM      3  C   UNL     1       1.450   9.572  18.755  0.00  0.00    +0.000 C 
ATOM      4  N   UNL     1       0.767   9.579  20.077  0.00  0.00    +0.000 NA
ATOM      5  C   UNL     1       1.296   8.546  21.010  0.00  0.00    +0.000 C 
ATOM      6  C   UNL     1       1.418   7.150  20.368  0.00  0.00    +0.000 C 
ENDROOT
BRANCH   1  12
ATOM      7  C   UNL     1       1.531   2.445  18.708  0.00  0.00    +0.000 C 
ATOM      8  C   UNL     1       2.350   3.642  18.326  0.00  0.00    +0.000 A 
ATOM      9  C   UNL     1       3.441   3.537  17.459  0.00  0.00    +0.000 A 
ATOM     10  C   UNL     1       4.141   4.702  17.116  0.00  0.00    +0.000 A 
ATOM     11  N   UNL     1       3.759   5.899  17.630  0.00  0.00    +0.000 NA
ATOM     12  C   UNL     1       2.702   5.982  18.489  0.00  0.00    +0.000 A 
ATOM     13  N   UNL     1       2.014   4.856  18.822  0.00  0.00    +0.000 NA
BRANCH  10  14
ATOM     14  C   UNL     1       5.269   4.668  16.181  0.00  0.00    +0.000 A 
ATOM     15  N   UNL     1       5.173   4.288  14.887  0.00  0.00    +0.000 NA
ATOM     16  C   UNL     1       6.360   4.406  14.236  0.00  0.00    +0.000 A 
ATOM     17  C   UNL     1       7.415   4.875  15.012  0.00  0.00    +0.000 A 
ATOM     18  S   UNL     1       6.836   5.152  16.565  0.00  0.00    +0.000 S 
ENDBRANCH  10  14
ENDBRANCH   1  12
BRANCH   4  19
ATOM     19  C   UNL     1       0.961  10.915  20.700  0.00  0.00    +0.000 C 
BRANCH  19  20
ATOM     20  C   UNL     1      -0.330  11.465  21.259  0.00  0.00    +0.000 A 
ATOM     21  C   UNL     1      -0.685  11.203  22.589  0.00  0.00    +0.000 A 
ATOM     22  C   UNL     1      -1.893  11.682  23.103  0.00  0.00    +0.000 A 
ATOM     23  C   UNL     1      -2.757  12.422  22.289  0.00  0.00    +0.000 A 
ATOM     24  F   UNL     1      -3.934  12.877  22.787  0.00  0.00    +0.000 F 
ATOM     25  C   UNL     1      -2.410  12.689  20.962  0.00  0.00    +0.000 A 
ATOM     26  C   UNL     1      -1.200  12.218  20.448  0.00  0.00    +0.000 A 
ENDBRANCH  19  20
ENDBRANCH   4  19
TORSDOF 4
ENDMDL
MODEL 3
REMARK VINA RESULT:      -7.6      1.091      1.102
REMARK  Name = 
REMARK  5 active torsions:
REMARK  status: ('A' for Active; 'I' for Inactive)
REMARK    1  A    between atoms: C_1  and  C_2
REMARK    2  A    between atoms: C_4  and  C_5
REMARK    3  A    between atoms: C_11  and  C_12
REMARK    4  A    between atoms: N_15  and  C_16
REMARK    5  A    between atoms: C_16  and  C_17
REMARK                            x       y       z     vdW  Elec       q    Type
REMARK                         _______ _______ _______ _____ _____    ______ ____
ROOT
ATOM      1  C   UNL     1       1.620   7.997  20.435  0.00  0.00    +0.000 C 
ATOM      2  C   UNL     1       1.295   8.845  19.208  0.00  0.00    +0.000 C 
ATOM      3  C   UNL     1       1.011  10.266  19.675  0.00  0.00    +0.000 C 
ATOM      4  N   UNL     1      -0.100  10.347  20.662  0.00  0.00    +0.000 NA
ATOM      5  C   UNL     1       0.035   9.363  21.771  0.00  0.00    +0.000 C 
ATOM      6  C   UNL     1       0.347   7.934  21.283  0.00  0.00    +0.000 C 
ENDROOT
BRANCH   1  12
ATOM      7  C   UNL     1       2.139   3.226  21.505  0.00  0.00    +0.000 C 
ATOM      8  C   UNL     1       2.471   4.371  20.594  0.00  0.00    +0.000 A 
ATOM      9  C   UNL     1       3.294   4.203  19.477  0.00  0.00    +0.000 A 
ATOM     10  C   UNL     1       3.534   5.309  18.649  0.00  0.00    +0.000 A 
ATOM     11  N   UNL     1       2.978   6.512  18.944  0.00  0.00    +0.000 NA
ATOM     12  C   UNL     1       2.192   6.662  20.049  0.00  0.00    +0.000 A 
ATOM     13  N   UNL     1       1.948   5.593  20.855  0.00  0.00    +0.000 NA
BRANCH  10  14
ATOM     14  C   UNL     1       4.354   5.193  17.439  0.00  0.00    +0.000 A 
ATOM     15  N   UNL     1       4.658   4.022  16.836  0.00  0.00    +0.000 NA
ATOM     16  C   UNL     1       5.384   4.211  15.703  0.00  0.00    +0.000 A 
ATOM     17  C   UNL     1       5.671   5.538  15.400  0.00  0.00    +0.000 A 
ATOM     18  S   UNL     1       4.988   6.504  16.593  0.00  0.00    +0.000 S 
ENDBRANCH  10  14
ENDBRANCH   1  12
BRANCH   4  19
ATOM     19  C   UNL     1      -0.111  11.714  21.248  0.00  0.00    +0.000 C 
BRANCH  19  20
ATOM     20  C   UNL     1      -1.497  12.125  21.684  0.00  0.00    +0.000 A 
ATOM     21  C   UNL     1      -1.854  12.058  23.038  0.00  0.00    +0.000 A 
ATOM     22  C   UNL     1      -3.146  12.406  23.443  0.00  0.00    +0.000 A 
ATOM     23  C   UNL     1      -4.091  12.819  22.498  0.00  0.00    +0.000 A 
ATOM     24  F   UNL     1      -5.346  13.147  22.893  0.00  0.00    +0.000 F 
ATOM     25  C   UNL     1      -3.743  12.889  21.146  0.00  0.00    +0.000 A 
ATOM     26  C   UNL     1      -2.451  12.549  20.739  0.00  0.00    +0.000 A 
ENDBRANCH  19  20
ENDBRANCH   4  19
TORSDOF 4
ENDMDL
MODEL 4
REMARK VINA RESULT:      -7.6      1.258      1.839
REMARK  Name = 
REMARK  5 active torsions:
REMARK  status: ('A' for Active; 'I' for Inactive)
REMARK    1  A    between atoms: C_1  and  C_2
REMARK    2  A    between atoms: C_4  and  C_5
REMARK    3  A    between atoms: C_11  and  C_12
REMARK    4  A    between atoms: N_15  and  C_16
REMARK    5  A    between atoms: C_16  and  C_17
REMARK                            x       y       z     vdW  Elec       q    Type
REMARK                         _______ _______ _______ _____ _____    ______ ____
ROOT
ATOM      1  C   UNL     1       1.560   7.518  19.607  0.00  0.00    +0.000 C 
ATOM      2  C   UNL     1       1.534   8.214  20.966  0.00  0.00    +0.000 C 
ATOM      3  C   UNL     1       0.478   9.311  20.919  0.00  0.00    +0.000 C 
ATOM      4  N   UNL     1       0.717  10.306  19.839  0.00  0.00    +0.000 NA
ATOM      5  C   UNL     1       0.992   9.676  18.518  0.00  0.00    +0.000 C 
ATOM      6  C   UNL     1       2.046   8.552  18.587  0.00  0.00    +0.000 C 
ENDROOT
BRANCH   1  12
ATOM      7  C   UNL     1       2.132   3.029  21.527  0.00  0.00    +0.000 C 
ATOM      8  C   UNL     1       2.650   4.099  20.614  0.00  0.00    +0.000 A 
ATOM      9  C   UNL     1       3.828   3.929  19.881  0.00  0.00    +0.000 A 
ATOM     10  C   UNL     1       4.237   4.956  19.019  0.00  0.00    +0.000 A 
ATOM     11  N   UNL     1       3.496   6.090  18.915  0.00  0.00    +0.000 NA
ATOM     12  C   UNL     1       2.359   6.247  19.652  0.00  0.00    +0.000 A 
ATOM     13  N   UNL     1       1.952   5.252  20.486  0.00  0.00    +0.000 NA
BRANCH  10  14
ATOM     14  C   UNL     1       5.439   4.826  18.190  0.00  0.00    +0.000 A 
ATOM     15  N   UNL     1       6.696   4.753  18.682  0.00  0.00    +0.000 NA
ATOM     16  C   UNL     1       7.615   4.579  17.695  0.00  0.00    +0.000 A 
ATOM     17  C   UNL     1       7.094   4.520  16.407  0.00  0.00    +0.000 A 
ATOM     18  S   UNL     1       5.426   4.690  16.512  0.00  0.00    +0.000 S 
ENDBRANCH  10  14
ENDBRANCH   1  12
BRANCH   4  19
ATOM     19  C   UNL     1      -0.496  11.157  19.707  0.00  0.00    +0.000 C 
BRANCH  19  20
ATOM     20  C   UNL     1      -0.660  12.084  20.888  0.00  0.00    +0.000 A 
ATOM     21  C   UNL     1       0.220  13.161  21.062  0.00  0.00    +0.000 A 
ATOM     22  C   UNL     1       0.092  14.003  22.170  0.00  0.00    +0.000 A 
ATOM     23  C   UNL     1      -0.913  13.771  23.115  0.00  0.00    +0.000 A 
ATOM     24  F   UNL     1      -1.028  14.584  24.195  0.00  0.00    +0.000 F 
ATOM     25  C   UNL     1      -1.795  12.700  22.949  0.00  0.00    +0.000 A 
ATOM     26  C   UNL     1      -1.675  11.861  21.839  0.00  0.00    +0.000 A 
ENDBRANCH  19  20
ENDBRANCH   4  19
TORSDOF 4
ENDMDL
MODEL 5
REMARK VINA RESULT:      -7.6      1.182      1.610
REMARK  Name = 
REMARK  5 active torsions:
REMARK  status: ('A' for Active; 'I' for Inactive)
REMARK    1  A    between atoms: C_1  and  C_2
REMARK    2  A    between atoms: C_4  and  C_5
REMARK    3  A    between atoms: C_11  and  C_12
REMARK    4  A    between atoms: N_15  and  C_16
REMARK    5  A    between atoms: C_16  and  C_17
REMARK                            x       y       z     vdW  Elec       q    Type
REMARK                         _______ _______ _______ _____ _____    ______ ____
ROOT
ATOM      1  C   UNL     1       2.334   7.399  19.641  0.00  0.00    +0.000 C 
ATOM      2  C   UNL     1       1.648   8.169  18.515  0.00  0.00    +0.000 C 
ATOM      3  C   UNL     1       1.441   9.604  18.979  0.00  0.00    +0.000 C 
ATOM      4  N   UNL     1       0.640   9.705  20.228  0.00  0.00    +0.000 NA
ATOM      5  C   UNL     1       1.116   8.789  21.300  0.00  0.00    +0.000 C 
ATOM      6  C   UNL     1       1.345   7.345  20.809  0.00  0.00    +0.000 C 
ENDROOT
BRANCH   1  12
ATOM      7  C   UNL     1       2.186   2.506  20.097  0.00  0.00    +0.000 C 
ATOM      8  C   UNL     1       2.788   3.705  19.427  0.00  0.00    +0.000 A 
ATOM      9  C   UNL     1       3.782   3.578  18.454  0.00  0.00    +0.000 A 
ATOM     10  C   UNL     1       4.276   4.740  17.843  0.00  0.00    +0.000 A 
ATOM     11  N   UNL     1       3.793   5.956  18.207  0.00  0.00    +0.000 NA
ATOM     12  C   UNL     1       2.835   6.063  19.173  0.00  0.00    +0.000 A 
ATOM     13  N   UNL     1       2.346   4.940  19.766  0.00  0.00    +0.000 NA
BRANCH  10  14
ATOM     14  C   UNL     1       5.290   4.675  16.786  0.00  0.00    +0.000 A 
ATOM     15  N   UNL     1       5.202   3.879  15.696  0.00  0.00    +0.000 NA
ATOM     16  C   UNL     1       6.252   4.061  14.853  0.00  0.00    +0.000 A 
ATOM     17  C   UNL     1       7.189   5.000  15.270  0.00  0.00    +0.000 A 
ATOM     18  S   UNL     1       6.681   5.623  16.745  0.00  0.00    +0.000 S 
ENDBRANCH  10  14
ENDBRANCH   1  12
BRANCH   4  19
ATOM     19  C   UNL     1       0.730  11.102  20.733  0.00  0.00    +0.000 C 
BRANCH  19  20
ATOM     20  C   UNL     1      -0.598  11.594  21.257  0.00  0.00    +0.000 A 
ATOM     21  C   UNL     1      -1.499  12.232  20.393  0.00  0.00    +0.000 A 
ATOM     22  C   UNL     1      -2.716  12.718  20.879  0.00  0.00    +0.000 A 
ATOM     23  C   UNL     1      -3.038  12.576  22.233  0.00  0.00    +0.000 A 
ATOM     24  F   UNL     1      -4.215  13.058  22.704  0.00  0.00    +0.000 F 
ATOM     25  C   UNL     1      -2.146  11.941  23.101  0.00  0.00    +0.000 A 
ATOM     26  C   UNL     1      -0.932  11.446  22.617  0.00  0.00    +0.000 A 
ENDBRANCH  19  20
ENDBRANCH   4  19
TORSDOF 4
ENDMDL
MODEL 6
REMARK VINA RESULT:      -7.5      4.622      9.910
REMARK  Name = 
REMARK  5 active torsions:
REMARK  status: ('A' for Active; 'I' for Inactive)
REMARK    1  A    between atoms: C_1  and  C_2
REMARK    2  A    between atoms: C_4  and  C_5
REMARK    3  A    between atoms: C_11  and  C_12
REMARK    4  A    between atoms: N_15  and  C_16
REMARK    5  A    between atoms: C_16  and  C_17
REMARK                            x       y       z     vdW  Elec       q    Type
REMARK                         _______ _______ _______ _____ _____    ______ ____
ROOT
ATOM      1  C   UNL     1       0.894   9.039  18.900  0.00  0.00    +0.000 C 
ATOM      2  C   UNL     1       2.154   8.946  18.042  0.00  0.00    +0.000 C 
ATOM      3  C   UNL     1       2.617   7.495  18.035  0.00  0.00    +0.000 C 
ATOM      4  N   UNL     1       2.885   6.960  19.397  0.00  0.00    +0.000 NA
ATOM      5  C   UNL     1       1.781   7.236  20.358  0.00  0.00    +0.000 C 
ATOM      6  C   UNL     1       1.307   8.704  20.336  0.00  0.00    +0.000 C 
ENDROOT
BRANCH   1  12
ATOM      7  C   UNL     1       1.292  13.936  18.704  0.00  0.00    +0.000 C 
ATOM      8  C   UNL     1       0.403  12.728  18.679  0.00  0.00    +0.000 A 
ATOM      9  C   UNL     1      -0.983  12.841  18.544  0.00  0.00    +0.000 A 
ATOM     10  C   UNL     1      -1.751  11.669  18.492  0.00  0.00    +0.000 A 
ATOM     11  N   UNL     1      -1.145  10.457  18.581  0.00  0.00    +0.000 NA
ATOM     12  C   UNL     1       0.208  10.365  18.731  0.00  0.00    +0.000 A 
ATOM     13  N   UNL     1       0.961  11.497  18.775  0.00  0.00    +0.000 NA
BRANCH  10  14
ATOM     14  C   UNL     1      -3.205  11.716  18.311  0.00  0.00    +0.000 A 
ATOM     15  N   UNL     1      -4.074  12.161  19.245  0.00  0.00    +0.000 NA
ATOM     16  C   UNL     1      -5.355  12.146  18.791  0.00  0.00    +0.000 A 
ATOM     17  C   UNL     1      -5.515  11.680  17.491  0.00  0.00    +0.000 A 
ATOM     18  S   UNL     1      -3.998  11.276  16.892  0.00  0.00    +0.000 S 
ENDBRANCH  10  14
ENDBRANCH   1  12
BRANCH   4  19
ATOM     19  C   UNL     1       3.061   5.487  19.298  0.00  0.00    +0.000 C 
BRANCH  19  20
ATOM     20  C   UNL     1       4.319   5.122  18.548  0.00  0.00    +0.000 A 
ATOM     21  C   UNL     1       5.574   5.413  19.100  0.00  0.00    +0.000 A 
ATOM     22  C   UNL     1       6.741   5.107  18.395  0.00  0.00    +0.000 A 
ATOM     23  C   UNL     1       6.663   4.513  17.131  0.00  0.00    +0.000 A 
ATOM     24  F   UNL     1       7.797   4.226  16.445  0.00  0.00    +0.000 F 
ATOM     25  C   UNL     1       5.416   4.218  16.574  0.00  0.00    +0.000 A 
ATOM     26  C   UNL     1       4.247   4.515  17.279  0.00  0.00    +0.000 A 
ENDBRANCH  19  20
ENDBRANCH   4  19
TORSDOF 4
ENDMDL
MODEL 7
REMARK VINA RESULT:      -7.5      2.387      2.835
REMARK  Name = 
REMARK  5 active torsions:
REMARK  status: ('A' for Active; 'I' for Inactive)
REMARK    1  A    between atoms: C_1  and  C_2
REMARK    2  A    between atoms: C_4  and  C_5
REMARK    3  A    between atoms: C_11  and  C_12
REMARK    4  A    between atoms: N_15  and  C_16
REMARK    5  A    between atoms: C_16  and  C_17
REMARK                            x       y       z     vdW  Elec       q    Type
REMARK                         _______ _______ _______ _____ _____    ______ ____
ROOT
ATOM      1  C   UNL     1       1.676   7.563  19.457  0.00  0.00    +0.000 C 
ATOM      2  C   UNL     1       1.621   8.226  20.831  0.00  0.00    +0.000 C 
ATOM      3  C   UNL     1       0.608   9.361  20.771  0.00  0.00    +0.000 C 
ATOM      4  N   UNL     1       0.926  10.373  19.727  0.00  0.00    +0.000 NA
ATOM      5  C   UNL     1       1.231   9.767  18.402  0.00  0.00    +0.000 C 
ATOM      6  C   UNL     1       2.239   8.603  18.483  0.00  0.00    +0.000 C 
ENDROOT
BRANCH   1  12
ATOM      7  C   UNL     1       2.051   3.036  21.337  0.00  0.00    +0.000 C 
ATOM      8  C   UNL     1       2.623   4.095  20.443  0.00  0.00    +0.000 A 
ATOM      9  C   UNL     1       3.805   3.888  19.725  0.00  0.00    +0.000 A 
ATOM     10  C   UNL     1       4.264   4.908  18.880  0.00  0.00    +0.000 A 
ATOM     11  N   UNL     1       3.568   6.070  18.778  0.00  0.00    +0.000 NA
ATOM     12  C   UNL     1       2.426   6.263  19.499  0.00  0.00    +0.000 A 
ATOM     13  N   UNL     1       1.970   5.275  20.317  0.00  0.00    +0.000 NA
BRANCH  10  14
ATOM     14  C   UNL     1       5.473   4.741  18.068  0.00  0.00    +0.000 A 
ATOM     15  N   UNL     1       6.728   4.719  18.569  0.00  0.00    +0.000 NA
ATOM     16  C   UNL     1       7.655   4.494  17.601  0.00  0.00    +0.000 A 
ATOM     17  C   UNL     1       7.142   4.343  16.317  0.00  0.00    +0.000 A 
ATOM     18  S   UNL     1       5.471   4.495  16.402  0.00  0.00    +0.000 S 
ENDBRANCH  10  14
ENDBRANCH   1  12
BRANCH   4  19
ATOM     19  C   UNL     1      -0.249  11.272  19.571  0.00  0.00    +0.000 C 
BRANCH  19  20
ATOM     20  C   UNL     1       0.157  12.726  19.550  0.00  0.00    +0.000 A 
ATOM     21  C   UNL     1       1.233  13.164  20.333  0.00  0.00    +0.000 A 
ATOM     22  C   UNL     1       1.593  14.515  20.343  0.00  0.00    +0.000 A 
ATOM     23  C   UNL     1       0.876  15.438  19.574  0.00  0.00    +0.000 A 
ATOM     24  F   UNL     1       1.221  16.749  19.593  0.00  0.00    +0.000 F 
ATOM     25  C   UNL     1      -0.198  15.009  18.789  0.00  0.00    +0.000 A 
ATOM     26  C   UNL     1      -0.555  13.659  18.772  0.00  0.00    +0.000 A 
ENDBRANCH  19  20
ENDBRANCH   4  19
TORSDOF 4
ENDMDL
MODEL 8
REMARK VINA RESULT:      -7.4      4.661      9.798
REMARK  Name = 
REMARK  5 active torsions:
REMARK  status: ('A' for Active; 'I' for Inactive)
REMARK    1  A    between atoms: C_1  and  C_2
REMARK    2  A    between atoms: C_4  and  C_5
REMARK    3  A    between atoms: C_11  and  C_12
REMARK    4  A    between atoms: N_15  and  C_16
REMARK    5  A    between atoms: C_16  and  C_17
REMARK                            x       y       z     vdW  Elec       q    Type
REMARK                         _______ _______ _______ _____ _____    ______ ____
ROOT
ATOM      1  C   UNL     1       1.438   8.464  18.776  0.00  0.00    +0.000 C 
ATOM      2  C   UNL     1       2.698   8.646  17.933  0.00  0.00    +0.000 C 
ATOM      3  C   UNL     1       3.271   7.267  17.631  0.00  0.00    +0.000 C 
ATOM      4  N   UNL     1       3.583   6.483  18.856  0.00  0.00    +0.000 NA
ATOM      5  C   UNL     1       2.465   6.469  19.839  0.00  0.00    +0.000 C 
ATOM      6  C   UNL     1       1.881   7.869  20.116  0.00  0.00    +0.000 C 
ENDROOT
BRANCH   1  12
ATOM      7  C   UNL     1       1.003  12.935  20.774  0.00  0.00    +0.000 C 
ATOM      8  C   UNL     1       0.428  11.879  19.877  0.00  0.00    +0.000 A 
ATOM      9  C   UNL     1      -0.785  12.066  19.210  0.00  0.00    +0.000 A 
ATOM     10  C   UNL     1      -1.247  11.052  18.359  0.00  0.00    +0.000 A 
ATOM     11  N   UNL     1      -0.522   9.914  18.204  0.00  0.00    +0.000 NA
ATOM     12  C   UNL     1       0.652   9.740  18.877  0.00  0.00    +0.000 A 
ATOM     13  N   UNL     1       1.110  10.722  19.700  0.00  0.00    +0.000 NA
BRANCH  10  14
ATOM     14  C   UNL     1      -2.491  11.201  17.598  0.00  0.00    +0.000 A 
ATOM     15  N   UNL     1      -2.599  10.984  16.268  0.00  0.00    +0.000 NA
ATOM     16  C   UNL     1      -3.877  11.141  15.833  0.00  0.00    +0.000 A 
ATOM     17  C   UNL     1      -4.796  11.491  16.816  0.00  0.00    +0.000 A 
ATOM     18  S   UNL     1      -3.977  11.607  18.278  0.00  0.00    +0.000 S 
ENDBRANCH  10  14
ENDBRANCH   1  12
BRANCH   4  19
ATOM     19  C   UNL     1       3.870   5.079  18.455  0.00  0.00    +0.000 C 
BRANCH  19  20
ATOM     20  C   UNL     1       4.897   5.011  17.350  0.00  0.00    +0.000 A 
ATOM     21  C   UNL     1       6.137   5.646  17.505  0.00  0.00    +0.000 A 
ATOM     22  C   UNL     1       7.079   5.613  16.473  0.00  0.00    +0.000 A 
ATOM     23  C   UNL     1       6.786   4.951  15.277  0.00  0.00    +0.000 A 
ATOM     24  F   UNL     1       7.698   4.929  14.273  0.00  0.00    +0.000 F 
ATOM     25  C   UNL     1       5.553   4.314  15.114  0.00  0.00    +0.000 A 
ATOM     26  C   UNL     1       4.612   4.338  16.147  0.00  0.00    +0.000 A 
ENDBRANCH  19  20
ENDBRANCH   4  19
TORSDOF 4
ENDMDL
MODEL 9
REMARK VINA RESULT:      -7.4      1.605      1.914
REMARK  Name = 
REMARK  5 active torsions:
REMARK  status: ('A' for Active; 'I' for Inactive)
REMARK    1  A    between atoms: C_1  and  C_2
REMARK    2  A    between atoms: C_4  and  C_5
REMARK    3  A    between atoms: C_11  and  C_12
REMARK    4  A    between atoms: N_15  and  C_16
REMARK    5  A    between atoms: C_16  and  C_17
REMARK                            x       y       z     vdW  Elec       q    Type
REMARK                         _______ _______ _______ _____ _____    ______ ____
ROOT
ATOM      1  C   UNL     1       2.544   7.379  19.358  0.00  0.00    +0.000 C 
ATOM      2  C   UNL     1       1.913   8.028  18.128  0.00  0.00    +0.000 C 
ATOM      3  C   UNL     1       1.575   9.472  18.475  0.00  0.00    +0.000 C 
ATOM      4  N   UNL     1       0.663   9.595  19.644  0.00  0.00    +0.000 NA
ATOM      5  C   UNL     1       1.101   8.781  20.811  0.00  0.00    +0.000 C 
ATOM      6  C   UNL     1       1.462   7.329  20.440  0.00  0.00    +0.000 C 
ENDROOT
BRANCH   1  12
ATOM      7  C   UNL     1       3.236   2.673  20.605  0.00  0.00    +0.000 C 
ATOM      8  C   UNL     1       3.531   3.796  19.655  0.00  0.00    +0.000 A 
ATOM      9  C   UNL     1       4.367   3.620  18.549  0.00  0.00    +0.000 A 
ATOM     10  C   UNL     1       4.571   4.703  17.682  0.00  0.00    +0.000 A 
ATOM     11  N   UNL     1       3.968   5.893  17.930  0.00  0.00    +0.000 NA
ATOM     12  C   UNL     1       3.169   6.054  19.024  0.00  0.00    +0.000 A 
ATOM     13  N   UNL     1       2.960   5.006  19.867  0.00  0.00    +0.000 NA
BRANCH  10  14
ATOM     14  C   UNL     1       5.404   4.574  16.482  0.00  0.00    +0.000 A 
ATOM     15  N   UNL     1       4.922   4.311  15.247  0.00  0.00    +0.000 NA
ATOM     16  C   UNL     1       5.907   4.302  14.312  0.00  0.00    +0.000 A 
ATOM     17  C   UNL     1       7.186   4.550  14.799  0.00  0.00    +0.000 A 
ATOM     18  S   UNL     1       7.073   4.792  16.458  0.00  0.00    +0.000 S 
ENDBRANCH  10  14
ENDBRANCH   1  12
BRANCH   4  19
ATOM     19  C   UNL     1       0.620  11.023  20.059  0.00  0.00    +0.000 C 
BRANCH  19  20
ATOM     20  C   UNL     1      -0.784  11.577  20.012  0.00  0.00    +0.000 A 
ATOM     21  C   UNL     1      -1.280  12.323  21.090  0.00  0.00    +0.000 A 
ATOM     22  C   UNL     1      -2.589  12.811  21.065  0.00  0.00    +0.000 A 
ATOM     23  C   UNL     1      -3.414  12.553  19.966  0.00  0.00    +0.000 A 
ATOM     24  F   UNL     1      -4.687  13.019  19.949  0.00  0.00    +0.000 F 
ATOM     25  C   UNL     1      -2.927  11.811  18.886  0.00  0.00    +0.000 A 
ATOM     26  C   UNL     1      -1.617  11.328  18.904  0.00  0.00    +0.000 A 
ENDBRANCH  19  20
ENDBRANCH   4  19
TORSDOF 4
ENDMDL
