MODEL 1
REMARK VINA RESULT:      -7.3      0.000      0.000
REMARK  Name = 
REMARK  5 active torsions:
REMARK  status: ('A' for Active; 'I' for Inactive)
REMARK    1  A    between atoms: C_2  and  C_13
REMARK    2  A    between atoms: N_3  and  N_4
REMARK    3  A    between atoms: N_7  and  C_8
REMARK    4  A    between atoms: C_8  and  C_9
REMARK    5  A    between atoms: C_9  and  O_10
REMARK                            x       y       z     vdW  Elec       q    Type
REMARK                         _______ _______ _______ _____ _____    ______ ____
ROOT
ATOM      1  O   UNL     1       2.993   8.466  17.161  0.00  0.00    +0.000 OA
ATOM      2  C   UNL     1       2.274   8.348  18.155  0.00  0.00    +0.000 C 
ATOM      3  N   UNL     1       2.203   7.204  18.934  0.00  0.00    +0.000 N 
ATOM      4  H   UNL     1       1.779   7.297  19.857  0.00  0.00    +0.000 HD
ENDROOT
BRANCH   2   5
ATOM      5  C   UNL     1       1.357   9.490  18.589  0.00  0.00    +0.000 C 
ATOM      6  C   UNL     1       0.037   9.285  17.819  0.00  0.00    +0.000 C 
ATOM      7  C   UNL     1      -0.998  10.256  18.287  0.00  0.00    +0.000 A 
ATOM      8  C   UNL     1      -0.830  10.939  19.473  0.00  0.00    +0.000 A 
ATOM      9  S   UNL     1      -2.114  12.007  19.775  0.00  0.00    +0.000 S 
ATOM     10  C   UNL     1      -2.936  11.544  18.323  0.00  0.00    +0.000 A 
ATOM     11  C   UNL     1      -4.168  12.036  17.845  0.00  0.00    +0.000 A 
ATOM     12  C   UNL     1      -4.677  11.531  16.646  0.00  0.00    +0.000 A 
ATOM     13  C   UNL     1      -3.985  10.562  15.934  0.00  0.00    +0.000 A 
ATOM     14  C   UNL     1      -2.761  10.085  16.410  0.00  0.00    +0.000 A 
ATOM     15  C   UNL     1      -2.219  10.577  17.618  0.00  0.00    +0.000 A 
ATOM     16  C   UNL     1       0.365  10.805  20.376  0.00  0.00    +0.000 C 
ATOM     17  N   UNL     1       1.129   9.558  20.074  0.00  0.00    +0.000 NA
ATOM     18  H   UNL     1       0.505   8.786  20.324  0.00  0.00    +0.000 HD
ENDBRANCH   2   5
BRANCH   3  19
ATOM     19  N   UNL     1       3.070   6.140  18.623  0.00  0.00    +0.000 NA
ATOM     20  C   UNL     1       3.636   5.523  19.832  0.00  0.00    +0.000 C 
ATOM     21  C   UNL     1       2.672   4.527  20.502  0.00  0.00    +0.000 C 
ATOM     22  N   UNL     1       2.203   3.445  19.609  0.00  0.00    +0.000 NA
ATOM     23  C   UNL     1       1.597   4.081  18.411  0.00  0.00    +0.000 C 
ATOM     24  C   UNL     1       2.479   5.146  17.715  0.00  0.00    +0.000 C 
BRANCH  22  25
ATOM     25  C   UNL     1       3.293   2.522  19.203  0.00  0.00    +0.000 C 
BRANCH  25  26
ATOM     26  C   UNL     1       4.287   2.200  20.331  0.00  0.00    +0.000 C 
BRANCH  26  27
ATOM     27  O   UNL     1       5.243   1.241  19.894  0.00  0.00    +0.000 OA
ATOM     28  H   UNL     1       6.100   1.554  20.242  0.00  0.00    +0.000 HD
ENDBRANCH  26  27
ENDBRANCH  25  26
ENDBRANCH  22  25
ENDBRANCH   3  19
TORSDOF 5
ENDMDL
MODEL 2
REMARK VINA RESULT:      -7.0      3.739      8.720
REMARK  Name = 
REMARK  5 active torsions:
REMARK  status: ('A' for Active; 'I' for Inactive)
REMARK    1  A    between atoms: C_2  and  C_13
REMARK    2  A    between atoms: N_3  and  N_4
REMARK    3  A    between atoms: N_7  and  C_8
REMARK    4  A    between atoms: C_8  and  C_9
REMARK    5  A    between atoms: C_9  and  O_10
REMARK                            x       y       z     vdW  Elec       q    Type
REMARK                         _______ _______ _______ _____ _____    ______ ____
ROOT
ATOM      1  O   UNL     1       1.496   8.688  22.142  0.00  0.00    +0.000 OA
ATOM      2  C   UNL     1       1.261   8.522  20.944  0.00  0.00    +0.000 C 
ATOM      3  N   UNL     1       0.740   9.500  20.111  0.00  0.00    +0.000 N 
ATOM      4  H   UNL     1       0.819   9.343  19.105  0.00  0.00    +0.000 HD
ENDROOT
BRANCH   2   5
ATOM      5  C   UNL     1       1.507   7.167  20.284  0.00  0.00    +0.000 C 
ATOM      6  C   UNL     1       2.674   7.384  19.301  0.00  0.00    +0.000 C 
ATOM      7  C   UNL     1       3.110   6.082  18.711  0.00  0.00    +0.000 A 
ATOM      8  C   UNL     1       2.725   4.890  19.288  0.00  0.00    +0.000 A 
ATOM      9  S   UNL     1       3.312   3.552  18.424  0.00  0.00    +0.000 S 
ATOM     10  C   UNL     1       4.122   4.559  17.272  0.00  0.00    +0.000 A 
ATOM     11  C   UNL     1       4.886   4.143  16.163  0.00  0.00    +0.000 A 
ATOM     12  C   UNL     1       5.473   5.112  15.346  0.00  0.00    +0.000 A 
ATOM     13  C   UNL     1       5.307   6.463  15.617  0.00  0.00    +0.000 A 
ATOM     14  C   UNL     1       4.542   6.867  16.713  0.00  0.00    +0.000 A 
ATOM     15  C   UNL     1       3.935   5.912  17.557  0.00  0.00    +0.000 A 
ATOM     16  C   UNL     1       1.848   4.771  20.503  0.00  0.00    +0.000 C 
ATOM     17  N   UNL     1       1.799   6.059  21.258  0.00  0.00    +0.000 NA
ATOM     18  H   UNL     1       2.747   6.206  21.614  0.00  0.00    +0.000 HD
ENDBRANCH   2   5
BRANCH   3  19
ATOM     19  N   UNL     1       0.550  10.788  20.644  0.00  0.00    +0.000 NA
ATOM     20  C   UNL     1       1.362  11.796  19.945  0.00  0.00    +0.000 C 
ATOM     21  C   UNL     1       0.726  12.263  18.622  0.00  0.00    +0.000 C 
ATOM     22  N   UNL     1      -0.647  12.794  18.765  0.00  0.00    +0.000 NA
ATOM     23  C   UNL     1      -1.466  11.751  19.436  0.00  0.00    +0.000 C 
ATOM     24  C   UNL     1      -0.863  11.181  20.743  0.00  0.00    +0.000 C 
BRANCH  22  25
ATOM     25  C   UNL     1      -0.696  14.060  19.539  0.00  0.00    +0.000 C 
BRANCH  25  26
ATOM     26  C   UNL     1      -0.114  15.270  18.788  0.00  0.00    +0.000 C 
BRANCH  26  27
ATOM     27  O   UNL     1      -1.058  16.334  18.750  0.00  0.00    +0.000 OA
ATOM     28  H   UNL     1      -0.764  16.915  18.023  0.00  0.00    +0.000 HD
ENDBRANCH  26  27
ENDBRANCH  25  26
ENDBRANCH  22  25
ENDBRANCH   3  19
TORSDOF 5
ENDMDL
MODEL 3
REMARK VINA RESULT:      -6.9      3.708      8.957
REMARK  Name = 
REMARK  5 active torsions:
REMARK  status: ('A' for Active; 'I' for Inactive)
REMARK    1  A    between atoms: C_2  and  C_13
REMARK    2  A    between atoms: N_3  and  N_4
REMARK    3  A    between atoms: N_7  and  C_8
REMARK    4  A    between atoms: C_8  and  C_9
REMARK    5  A    between atoms: C_9  and  O_10
REMARK                            x       y       z     vdW  Elec       q    Type
REMARK                         _______ _______ _______ _____ _____    ______ ____
ROOT
ATOM      1  O   UNL     1       2.195  10.268  17.621  0.00  0.00    +0.000 OA
ATOM      2  C   UNL     1       1.733   9.596  18.544  0.00  0.00    +0.000 C 
ATOM      3  N   UNL     1       0.990  10.117  19.592  0.00  0.00    +0.000 N 
ATOM      4  H   UNL     1       0.453   9.456  20.154  0.00  0.00    +0.000 HD
ENDROOT
BRANCH   2   5
ATOM      5  C   UNL     1       1.987   8.091  18.611  0.00  0.00    +0.000 C 
ATOM      6  C   UNL     1       3.194   7.827  17.689  0.00  0.00    +0.000 C 
ATOM      7  C   UNL     1       3.636   6.403  17.801  0.00  0.00    +0.000 A 
ATOM      8  C   UNL     1       3.213   5.621  18.855  0.00  0.00    +0.000 A 
ATOM      9  S   UNL     1       3.814   4.037  18.748  0.00  0.00    +0.000 S 
ATOM     10  C   UNL     1       4.682   4.388  17.291  0.00  0.00    +0.000 A 
ATOM     11  C   UNL     1       5.484   3.504  16.541  0.00  0.00    +0.000 A 
ATOM     12  C   UNL     1       6.115   3.978  15.388  0.00  0.00    +0.000 A 
ATOM     13  C   UNL     1       5.957   5.296  14.984  0.00  0.00    +0.000 A 
ATOM     14  C   UNL     1       5.155   6.164  15.728  0.00  0.00    +0.000 A 
ATOM     15  C   UNL     1       4.502   5.715  16.898  0.00  0.00    +0.000 A 
ATOM     16  C   UNL     1       2.287   6.083  19.946  0.00  0.00    +0.000 C 
ATOM     17  N   UNL     1       2.226   7.574  20.002  0.00  0.00    +0.000 NA
ATOM     18  H   UNL     1       3.161   7.877  20.286  0.00  0.00    +0.000 HD
ENDBRANCH   2   5
BRANCH   3  19
ATOM     19  N   UNL     1       0.669  11.487  19.555  0.00  0.00    +0.000 NA
ATOM     20  C   UNL     1      -0.670  11.720  18.992  0.00  0.00    +0.000 C 
ATOM     21  C   UNL     1      -1.797  11.496  20.018  0.00  0.00    +0.000 C 
ATOM     22  N   UNL     1      -1.665  12.306  21.248  0.00  0.00    +0.000 NA
ATOM     23  C   UNL     1      -0.325  12.030  21.828  0.00  0.00    +0.000 C 
ATOM     24  C   UNL     1       0.860  12.171  20.842  0.00  0.00    +0.000 C 
BRANCH  22  25
ATOM     25  C   UNL     1      -1.825  13.761  20.999  0.00  0.00    +0.000 C 
BRANCH  25  26
ATOM     26  C   UNL     1      -3.285  14.199  20.797  0.00  0.00    +0.000 C 
BRANCH  26  27
ATOM     27  O   UNL     1      -3.343  15.547  20.345  0.00  0.00    +0.000 OA
ATOM     28  H   UNL     1      -2.520  15.963  20.668  0.00  0.00    +0.000 HD
ENDBRANCH  26  27
ENDBRANCH  25  26
ENDBRANCH  22  25
ENDBRANCH   3  19
TORSDOF 5
ENDMDL
MODEL 4
REMARK VINA RESULT:      -6.8      3.831      8.832
REMARK  Name = 
REMARK  5 active torsions:
REMARK  status: ('A' for Active; 'I' for Inactive)
REMARK    1  A    between atoms: C_2  and  C_13
REMARK    2  A    between atoms: N_3  and  N_4
REMARK    3  A    between atoms: N_7  and  C_8
REMARK    4  A    between atoms: C_8  and  C_9
REMARK    5  A    between atoms: C_9  and  O_10
REMARK                            x       y       z     vdW  Elec       q    Type
REMARK                         _______ _______ _______ _____ _____    ______ ____
ROOT
ATOM      1  O   UNL     1       2.020   9.992  17.476  0.00  0.00    +0.000 OA
ATOM      2  C   UNL     1       1.582   9.292  18.390  0.00  0.00    +0.000 C 
ATOM      3  N   UNL     1       0.728   9.749  19.382  0.00  0.00    +0.000 N 
ATOM      4  H   UNL     1       0.236   9.044  19.932  0.00  0.00    +0.000 HD
ENDROOT
BRANCH   2   5
ATOM      5  C   UNL     1       1.996   7.826  18.511  0.00  0.00    +0.000 C 
ATOM      6  C   UNL     1       3.180   7.642  17.541  0.00  0.00    +0.000 C 
ATOM      7  C   UNL     1       3.773   6.279  17.693  0.00  0.00    +0.000 A 
ATOM      8  C   UNL     1       3.484   5.511  18.802  0.00  0.00    +0.000 A 
ATOM      9  S   UNL     1       4.244   3.994  18.735  0.00  0.00    +0.000 S 
ATOM     10  C   UNL     1       5.001   4.359  17.221  0.00  0.00    +0.000 A 
ATOM     11  C   UNL     1       5.855   3.525  16.470  0.00  0.00    +0.000 A 
ATOM     12  C   UNL     1       6.377   4.003  15.266  0.00  0.00    +0.000 A 
ATOM     13  C   UNL     1       6.063   5.277  14.812  0.00  0.00    +0.000 A 
ATOM     14  C   UNL     1       5.211   6.093  15.558  0.00  0.00    +0.000 A 
ATOM     15  C   UNL     1       4.664   5.639  16.779  0.00  0.00    +0.000 A 
ATOM     16  C   UNL     1       2.568   5.929  19.918  0.00  0.00    +0.000 C 
ATOM     17  N   UNL     1       2.353   7.407  19.910  0.00  0.00    +0.000 NA
ATOM     18  H   UNL     1       3.264   7.818  20.131  0.00  0.00    +0.000 HD
ENDBRANCH   2   5
BRANCH   3  19
ATOM     19  N   UNL     1       0.261  11.073  19.291  0.00  0.00    +0.000 NA
ATOM     20  C   UNL     1      -0.994  11.264  20.034  0.00  0.00    +0.000 C 
ATOM     21  C   UNL     1      -0.770  11.458  21.545  0.00  0.00    +0.000 C 
ATOM     22  N   UNL     1       0.140  12.574  21.883  0.00  0.00    +0.000 NA
ATOM     23  C   UNL     1       1.417  12.349  21.158  0.00  0.00    +0.000 C 
ATOM     24  C   UNL     1       1.274  12.080  19.640  0.00  0.00    +0.000 C 
BRANCH  22  25
ATOM     25  C   UNL     1      -0.422  13.902  21.529  0.00  0.00    +0.000 C 
BRANCH  25  26
ATOM     26  C   UNL     1       0.459  15.085  21.965  0.00  0.00    +0.000 C 
BRANCH  26  27
ATOM     27  O   UNL     1       0.268  15.364  23.348  0.00  0.00    +0.000 OA
ATOM     28  H   UNL     1      -0.635  15.732  23.415  0.00  0.00    +0.000 HD
ENDBRANCH  26  27
ENDBRANCH  25  26
ENDBRANCH  22  25
ENDBRANCH   3  19
TORSDOF 5
ENDMDL
MODEL 5
REMARK VINA RESULT:      -6.7      3.504      4.211
REMARK  Name = 
REMARK  5 active torsions:
REMARK  status: ('A' for Active; 'I' for Inactive)
REMARK    1  A    between atoms: C_2  and  C_13
REMARK    2  A    between atoms: N_3  and  N_4
REMARK    3  A    between atoms: N_7  and  C_8
REMARK    4  A    between atoms: C_8  and  C_9
REMARK    5  A    between atoms: C_9  and  O_10
REMARK                            x       y       z     vdW  Elec       q    Type
REMARK                         _______ _______ _______ _____ _____    ______ ____
ROOT
ATOM      1  O   UNL     1       1.312   5.567  20.747  0.00  0.00    +0.000 OA
ATOM      2  C   UNL     1       1.841   6.636  20.438  0.00  0.00    +0.000 C 
ATOM      3  N   UNL     1       2.915   6.751  19.569  0.00  0.00    +0.000 N 
ATOM      4  H   UNL     1       3.111   7.679  19.193  0.00  0.00    +0.000 HD
ENDROOT
BRANCH   2   5
ATOM      5  C   UNL     1       1.349   7.949  21.042  0.00  0.00    +0.000 C 
ATOM      6  C   UNL     1       1.484   9.003  19.925  0.00  0.00    +0.000 C 
ATOM      7  C   UNL     1       0.879  10.300  20.354  0.00  0.00    +0.000 A 
ATOM      8  C   UNL     1       0.031  10.351  21.441  0.00  0.00    +0.000 A 
ATOM      9  S   UNL     1      -0.501  11.932  21.755  0.00  0.00    +0.000 S 
ATOM     10  C   UNL     1       0.381  12.573  20.409  0.00  0.00    +0.000 A 
ATOM     11  C   UNL     1       0.441  13.918  19.991  0.00  0.00    +0.000 A 
ATOM     12  C   UNL     1       1.207  14.241  18.868  0.00  0.00    +0.000 A 
ATOM     13  C   UNL     1       1.899  13.259  18.174  0.00  0.00    +0.000 A 
ATOM     14  C   UNL     1       1.841  11.930  18.600  0.00  0.00    +0.000 A 
ATOM     15  C   UNL     1       1.077  11.571  19.732  0.00  0.00    +0.000 A 
ATOM     16  C   UNL     1      -0.344   9.167  22.289  0.00  0.00    +0.000 C 
ATOM     17  N   UNL     1      -0.054   7.885  21.580  0.00  0.00    +0.000 NA
ATOM     18  H   UNL     1      -0.689   7.864  20.778  0.00  0.00    +0.000 HD
ENDBRANCH   2   5
BRANCH   3  19
ATOM     19  N   UNL     1       3.375   5.583  18.931  0.00  0.00    +0.000 NA
ATOM     20  C   UNL     1       3.537   5.779  17.482  0.00  0.00    +0.000 C 
ATOM     21  C   UNL     1       4.858   6.483  17.118  0.00  0.00    +0.000 C 
ATOM     22  N   UNL     1       6.067   5.804  17.631  0.00  0.00    +0.000 NA
ATOM     23  C   UNL     1       5.908   5.648  19.100  0.00  0.00    +0.000 C 
ATOM     24  C   UNL     1       4.575   5.006  19.553  0.00  0.00    +0.000 C 
BRANCH  22  25
ATOM     25  C   UNL     1       6.294   4.480  16.998  0.00  0.00    +0.000 C 
BRANCH  25  26
ATOM     26  C   UNL     1       6.530   4.550  15.480  0.00  0.00    +0.000 C 
BRANCH  26  27
ATOM     27  O   UNL     1       7.617   5.421  15.185  0.00  0.00    +0.000 OA
ATOM     28  H   UNL     1       7.786   5.308  14.230  0.00  0.00    +0.000 HD
ENDBRANCH  26  27
ENDBRANCH  25  26
ENDBRANCH  22  25
ENDBRANCH   3  19
TORSDOF 5
ENDMDL
MODEL 6
REMARK VINA RESULT:      -6.7      2.685      3.201
REMARK  Name = 
REMARK  5 active torsions:
REMARK  status: ('A' for Active; 'I' for Inactive)
REMARK    1  A    between atoms: C_2  and  C_13
REMARK    2  A    between atoms: N_3  and  N_4
REMARK    3  A    between atoms: N_7  and  C_8
REMARK    4  A    between atoms: C_8  and  C_9
REMARK    5  A    between atoms: C_9  and  O_10
REMARK                            x       y       z     vdW  Elec       q    Type
REMARK                         _______ _______ _______ _____ _____    ______ ____
ROOT
ATOM      1  O   UNL     1       3.340   8.020  16.796  0.00  0.00    +0.000 OA
ATOM      2  C   UNL     1       2.548   8.086  17.737  0.00  0.00    +0.000 C 
ATOM      3  N   UNL     1       2.260   7.031  18.588  0.00  0.00    +0.000 N 
ATOM      4  H   UNL     1       1.794   7.257  19.468  0.00  0.00    +0.000 HD
ENDROOT
BRANCH   2   5
ATOM      5  C   UNL     1       1.780   9.377  18.017  0.00  0.00    +0.000 C 
ATOM      6  C   UNL     1       1.380   9.314  19.504  0.00  0.00    +0.000 C 
ATOM      7  C   UNL     1       0.758  10.604  19.933  0.00  0.00    +0.000 A 
ATOM      8  C   UNL     1       0.898  11.738  19.161  0.00  0.00    +0.000 A 
ATOM      9  S   UNL     1       0.079  13.064  19.833  0.00  0.00    +0.000 S 
ATOM     10  C   UNL     1      -0.455  12.138  21.195  0.00  0.00    +0.000 A 
ATOM     11  C   UNL     1      -1.246  12.583  22.273  0.00  0.00    +0.000 A 
ATOM     12  C   UNL     1      -1.570  11.682  23.289  0.00  0.00    +0.000 A 
ATOM     13  C   UNL     1      -1.124  10.369  23.243  0.00  0.00    +0.000 A 
ATOM     14  C   UNL     1      -0.346   9.933  22.167  0.00  0.00    +0.000 A 
ATOM     15  C   UNL     1      -0.003  10.820  21.123  0.00  0.00    +0.000 A 
ATOM     16  C   UNL     1       1.638  11.797  17.854  0.00  0.00    +0.000 C 
ATOM     17  N   UNL     1       2.554  10.627  17.701  0.00  0.00    +0.000 NA
ATOM     18  H   UNL     1       3.266  10.738  18.428  0.00  0.00    +0.000 HD
ENDBRANCH   2   5
BRANCH   3  19
ATOM     19  N   UNL     1       2.981   5.833  18.422  0.00  0.00    +0.000 NA
ATOM     20  C   UNL     1       3.568   5.367  19.687  0.00  0.00    +0.000 C 
ATOM     21  C   UNL     1       2.556   4.620  20.576  0.00  0.00    +0.000 C 
ATOM     22  N   UNL     1       1.906   3.466  19.915  0.00  0.00    +0.000 NA
ATOM     23  C   UNL     1       1.284   3.959  18.659  0.00  0.00    +0.000 C 
ATOM     24  C   UNL     1       2.220   4.778  17.738  0.00  0.00    +0.000 C 
BRANCH  22  25
ATOM     25  C   UNL     1       2.856   2.365  19.617  0.00  0.00    +0.000 C 
BRANCH  25  26
ATOM     26  C   UNL     1       3.962   2.197  20.673  0.00  0.00    +0.000 C 
BRANCH  26  27
ATOM     27  O   UNL     1       5.210   1.920  20.047  0.00  0.00    +0.000 OA
ATOM     28  H   UNL     1       5.019   1.899  19.089  0.00  0.00    +0.000 HD
ENDBRANCH  26  27
ENDBRANCH  25  26
ENDBRANCH  22  25
ENDBRANCH   3  19
TORSDOF 5
ENDMDL
MODEL 7
REMARK VINA RESULT:      -6.7      4.809      9.489
REMARK  Name = 
REMARK  5 active torsions:
REMARK  status: ('A' for Active; 'I' for Inactive)
REMARK    1  A    between atoms: C_2  and  C_13
REMARK    2  A    between atoms: N_3  and  N_4
REMARK    3  A    between atoms: N_7  and  C_8
REMARK    4  A    between atoms: C_8  and  C_9
REMARK    5  A    between atoms: C_9  and  O_10
REMARK                            x       y       z     vdW  Elec       q    Type
REMARK                         _______ _______ _______ _____ _____    ______ ____
ROOT
ATOM      1  O   UNL     1      -0.149  10.224  23.466  0.00  0.00    +0.000 OA
ATOM      2  C   UNL     1      -0.146  10.872  22.419  0.00  0.00    +0.000 C 
ATOM      3  N   UNL     1      -0.913  12.007  22.203  0.00  0.00    +0.000 N 
ATOM      4  H   UNL     1      -0.653  12.600  21.414  0.00  0.00    +0.000 HD
ENDROOT
BRANCH   2   5
ATOM      5  C   UNL     1       0.713  10.432  21.235  0.00  0.00    +0.000 C 
ATOM      6  C   UNL     1       0.744   8.892  21.288  0.00  0.00    +0.000 C 
ATOM      7  C   UNL     1       1.427   8.340  20.079  0.00  0.00    +0.000 A 
ATOM      8  C   UNL     1       1.634   9.134  18.970  0.00  0.00    +0.000 A 
ATOM      9  S   UNL     1       2.456   8.300  17.741  0.00  0.00    +0.000 S 
ATOM     10  C   UNL     1       2.522   6.842  18.673  0.00  0.00    +0.000 A 
ATOM     11  C   UNL     1       3.097   5.612  18.295  0.00  0.00    +0.000 A 
ATOM     12  C   UNL     1       3.044   4.540  19.188  0.00  0.00    +0.000 A 
ATOM     13  C   UNL     1       2.437   4.678  20.428  0.00  0.00    +0.000 A 
ATOM     14  C   UNL     1       1.876   5.902  20.798  0.00  0.00    +0.000 A 
ATOM     15  C   UNL     1       1.915   7.007  19.919  0.00  0.00    +0.000 A 
ATOM     16  C   UNL     1       1.234  10.579  18.866  0.00  0.00    +0.000 C 
ATOM     17  N   UNL     1       0.221  10.932  19.905  0.00  0.00    +0.000 NA
ATOM     18  H   UNL     1      -0.617  10.395  19.666  0.00  0.00    +0.000 HD
ENDBRANCH   2   5
BRANCH   3  19
ATOM     19  N   UNL     1      -1.678  12.499  23.276  0.00  0.00    +0.000 NA
ATOM     20  C   UNL     1      -1.413  13.924  23.529  0.00  0.00    +0.000 C 
ATOM     21  C   UNL     1      -2.180  14.854  22.571  0.00  0.00    +0.000 C 
ATOM     22  N   UNL     1      -3.645  14.650  22.573  0.00  0.00    +0.000 NA
ATOM     23  C   UNL     1      -3.900  13.216  22.277  0.00  0.00    +0.000 C 
ATOM     24  C   UNL     1      -3.115  12.213  23.155  0.00  0.00    +0.000 C 
BRANCH  22  25
ATOM     25  C   UNL     1      -4.276  15.026  23.863  0.00  0.00    +0.000 C 
BRANCH  25  26
ATOM     26  C   UNL     1      -5.788  15.290  23.760  0.00  0.00    +0.000 C 
BRANCH  26  27
ATOM     27  O   UNL     1      -6.518  14.274  24.438  0.00  0.00    +0.000 OA
ATOM     28  H   UNL     1      -6.238  14.333  25.372  0.00  0.00    +0.000 HD
ENDBRANCH  26  27
ENDBRANCH  25  26
ENDBRANCH  22  25
ENDBRANCH   3  19
TORSDOF 5
ENDMDL
MODEL 8
REMARK VINA RESULT:      -6.6      3.844      8.686
REMARK  Name = 
REMARK  5 active torsions:
REMARK  status: ('A' for Active; 'I' for Inactive)
REMARK    1  A    between atoms: C_2  and  C_13
REMARK    2  A    between atoms: N_3  and  N_4
REMARK    3  A    between atoms: N_7  and  C_8
REMARK    4  A    between atoms: C_8  and  C_9
REMARK    5  A    between atoms: C_9  and  O_10
REMARK                            x       y       z     vdW  Elec       q    Type
REMARK                         _______ _______ _______ _____ _____    ______ ____
ROOT
ATOM      1  O   UNL     1       1.475   8.698  22.060  0.00  0.00    +0.000 OA
ATOM      2  C   UNL     1       1.379   8.564  20.839  0.00  0.00    +0.000 C 
ATOM      3  N   UNL     1       1.073   9.595  19.964  0.00  0.00    +0.000 N 
ATOM      4  H   UNL     1       1.263   9.435  18.974  0.00  0.00    +0.000 HD
ENDROOT
BRANCH   2   5
ATOM      5  C   UNL     1       1.568   7.194  20.191  0.00  0.00    +0.000 C 
ATOM      6  C   UNL     1       2.755   7.348  19.220  0.00  0.00    +0.000 C 
ATOM      7  C   UNL     1       3.135   6.023  18.644  0.00  0.00    +0.000 A 
ATOM      8  C   UNL     1       2.688   4.854  19.223  0.00  0.00    +0.000 A 
ATOM      9  S   UNL     1       3.220   3.484  18.375  0.00  0.00    +0.000 S 
ATOM     10  C   UNL     1       4.090   4.443  17.226  0.00  0.00    +0.000 A 
ATOM     11  C   UNL     1       4.846   3.983  16.129  0.00  0.00    +0.000 A 
ATOM     12  C   UNL     1       5.487   4.918  15.312  0.00  0.00    +0.000 A 
ATOM     13  C   UNL     1       5.383   6.277  15.572  0.00  0.00    +0.000 A 
ATOM     14  C   UNL     1       4.626   6.725  16.657  0.00  0.00    +0.000 A 
ATOM     15  C   UNL     1       3.964   5.805  17.501  0.00  0.00    +0.000 A 
ATOM     16  C   UNL     1       1.792   4.786  20.430  0.00  0.00    +0.000 C 
ATOM     17  N   UNL     1       1.796   6.080  21.175  0.00  0.00    +0.000 NA
ATOM     18  H   UNL     1       2.746   6.184  21.541  0.00  0.00    +0.000 HD
ENDBRANCH   2   5
BRANCH   3  19
ATOM     19  N   UNL     1       0.948  10.893  20.493  0.00  0.00    +0.000 NA
ATOM     20  C   UNL     1       1.174  11.925  19.469  0.00  0.00    +0.000 C 
ATOM     21  C   UNL     1      -0.065  12.177  18.590  0.00  0.00    +0.000 C 
ATOM     22  N   UNL     1      -1.282  12.539  19.349  0.00  0.00    +0.000 NA
ATOM     23  C   UNL     1      -1.521  11.468  20.352  0.00  0.00    +0.000 C 
ATOM     24  C   UNL     1      -0.302  11.109  21.235  0.00  0.00    +0.000 C 
BRANCH  22  25
ATOM     25  C   UNL     1      -1.168  13.856  20.024  0.00  0.00    +0.000 C 
BRANCH  25  26
ATOM     26  C   UNL     1      -2.378  14.208  20.905  0.00  0.00    +0.000 C 
BRANCH  26  27
ATOM     27  O   UNL     1      -3.566  14.258  20.123  0.00  0.00    +0.000 OA
ATOM     28  H   UNL     1      -3.316  14.726  19.303  0.00  0.00    +0.000 HD
ENDBRANCH  26  27
ENDBRANCH  25  26
ENDBRANCH  22  25
ENDBRANCH   3  19
TORSDOF 5
ENDMDL
MODEL 9
REMARK VINA RESULT:      -6.6      2.691      3.516
REMARK  Name = 
REMARK  5 active torsions:
REMARK  status: ('A' for Active; 'I' for Inactive)
REMARK    1  A    between atoms: C_2  and  C_13
REMARK    2  A    between atoms: N_3  and  N_4
REMARK    3  A    between atoms: N_7  and  C_8
REMARK    4  A    between atoms: C_8  and  C_9
REMARK    5  A    between atoms: C_9  and  O_10
REMARK                            x       y       z     vdW  Elec       q    Type
REMARK                         _______ _______ _______ _____ _____    ______ ____
ROOT
ATOM      1  O   UNL     1       1.580   7.760  21.485  0.00  0.00    +0.000 OA
ATOM      2  C   UNL     1       1.551   8.091  20.298  0.00  0.00    +0.000 C 
ATOM      3  N   UNL     1       2.229   7.427  19.287  0.00  0.00    +0.000 N 
ATOM      4  H   UNL     1       1.942   7.624  18.328  0.00  0.00    +0.000 HD
ENDROOT
BRANCH   2   5
ATOM      5  C   UNL     1       0.762   9.321  19.854  0.00  0.00    +0.000 C 
ATOM      6  C   UNL     1       0.155   9.917  21.138  0.00  0.00    +0.000 C 
ATOM      7  C   UNL     1      -0.511  11.223  20.845  0.00  0.00    +0.000 A 
ATOM      8  C   UNL     1      -0.255  11.888  19.665  0.00  0.00    +0.000 A 
ATOM      9  S   UNL     1      -1.150  13.325  19.542  0.00  0.00    +0.000 S 
ATOM     10  C   UNL     1      -1.879  13.089  21.095  0.00  0.00    +0.000 A 
ATOM     11  C   UNL     1      -2.811  13.929  21.737  0.00  0.00    +0.000 A 
ATOM     12  C   UNL     1      -3.283  13.571  23.002  0.00  0.00    +0.000 A 
ATOM     13  C   UNL     1      -2.845  12.408  23.620  0.00  0.00    +0.000 A 
ATOM     14  C   UNL     1      -1.926  11.578  22.974  0.00  0.00    +0.000 A 
ATOM     15  C   UNL     1      -1.431  11.911  21.694  0.00  0.00    +0.000 A 
ATOM     16  C   UNL     1       0.663  11.390  18.584  0.00  0.00    +0.000 C 
ATOM     17  N   UNL     1       1.582  10.333  19.104  0.00  0.00    +0.000 NA
ATOM     18  H   UNL     1       2.185  10.804  19.784  0.00  0.00    +0.000 HD
ENDBRANCH   2   5
BRANCH   3  19
ATOM     19  N   UNL     1       2.924   6.250  19.623  0.00  0.00    +0.000 NA
ATOM     20  C   UNL     1       2.076   5.055  19.487  0.00  0.00    +0.000 C 
ATOM     21  C   UNL     1       1.966   4.562  18.032  0.00  0.00    +0.000 C 
ATOM     22  N   UNL     1       3.268   4.279  17.390  0.00  0.00    +0.000 NA
ATOM     23  C   UNL     1       4.100   5.506  17.498  0.00  0.00    +0.000 C 
ATOM     24  C   UNL     1       4.208   6.104  18.922  0.00  0.00    +0.000 C 
BRANCH  22  25
ATOM     25  C   UNL     1       3.974   3.126  18.004  0.00  0.00    +0.000 C 
BRANCH  25  26
ATOM     26  C   UNL     1       3.140   1.835  18.037  0.00  0.00    +0.000 C 
BRANCH  26  27
ATOM     27  O   UNL     1       3.965   0.717  18.349  0.00  0.00    +0.000 OA
ATOM     28  H   UNL     1       3.833   0.086  17.615  0.00  0.00    +0.000 HD
ENDBRANCH  26  27
ENDBRANCH  25  26
ENDBRANCH  22  25
ENDBRANCH   3  19
TORSDOF 5
ENDMDL
