MODEL 1
REMARK VINA RESULT:      -7.0      0.000      0.000
REMARK  Name = 
REMARK  3 active torsions:
REMARK  status: ('A' for Active; 'I' for Inactive)
REMARK    1  A    between atoms: C_1  and  N_2
REMARK    2  A    between atoms: C_18  and  O_19
REMARK    3  A    between atoms: C_25  and  O_26
REMARK                            x       y       z     vdW  Elec       q    Type
REMARK                         _______ _______ _______ _____ _____    ______ ____
ROOT
ATOM      1  C   UNL     1      12.333  14.124  17.007  0.00  0.00    +0.000 C 
ATOM      2  N   UNL     1      10.900  14.231  17.247  0.00  0.00    +0.000 NA
ATOM      3  C   UNL     1      10.570  15.536  17.824  0.00  0.00    +0.000 C 
ATOM      4  C   UNL     1      10.726  15.511  19.326  0.00  0.00    +0.000 C 
ATOM      5  C   UNL     1       9.839  14.423  19.961  0.00  0.00    +0.000 C 
ATOM      6  C   UNL     1      10.121  14.552  21.464  0.00  0.00    +0.000 C 
ATOM      7  C   UNL     1       9.312  13.597  22.261  0.00  0.00    +0.000 A 
ATOM      8  N   UNL     1       8.965  14.088  23.475  0.00  0.00    +0.000 NA
ATOM      9  C   UNL     1       8.060  13.431  24.188  0.00  0.00    +0.000 A 
ATOM     10  C   UNL     1       7.666  14.024  25.384  0.00  0.00    +0.000 A 
ATOM     11  C   UNL     1       6.684  13.442  26.180  0.00  0.00    +0.000 A 
ATOM     12  C   UNL     1       6.094  12.249  25.775  0.00  0.00    +0.000 A 
ATOM     13  C   UNL     1       6.493  11.635  24.573  0.00  0.00    +0.000 A 
ATOM     14  C   UNL     1       7.490  12.225  23.745  0.00  0.00    +0.000 A 
ATOM     15  C   UNL     1       7.945  11.689  22.499  0.00  0.00    +0.000 A 
ATOM     16  C   UNL     1       8.886  12.386  21.725  0.00  0.00    +0.000 A 
ATOM     17  C   UNL     1       9.333  11.946  20.312  0.00  0.00    +0.000 C 
ATOM     18  C   UNL     1      10.285  13.003  19.537  0.00  0.00    +0.000 C 
ATOM     19  C   UNL     1      10.272  13.038  17.946  0.00  0.00    +0.000 C 
ATOM     20  C   UNL     1       8.814  12.992  17.482  0.00  0.00    +0.000 C 
ATOM     21  C   UNL     1       7.929  13.939  18.270  0.00  0.00    +0.000 A 
ATOM     22  C   UNL     1       6.627  14.126  17.787  0.00  0.00    +0.000 A 
ATOM     23  C   UNL     1       5.734  14.918  18.490  0.00  0.00    +0.000 A 
ATOM     24  C   UNL     1       6.143  15.514  19.679  0.00  0.00    +0.000 A 
ATOM     25  C   UNL     1       7.444  15.380  20.160  0.00  0.00    +0.000 A 
ATOM     26  C   UNL     1       8.368  14.592  19.468  0.00  0.00    +0.000 A 
ENDROOT
BRANCH  18  27
ATOM     27  O   UNL     1      11.648  12.716  19.923  0.00  0.00    +0.000 OA
ATOM     28  H   UNL     1      11.834  13.144  20.778  0.00  0.00    +0.000 HD
ENDBRANCH  18  27
BRANCH  24  29
ATOM     29  O   UNL     1       5.262  16.246  20.421  0.00  0.00    +0.000 OA
ATOM     30  H   UNL     1       4.378  16.126  20.038  0.00  0.00    +0.000 HD
ENDBRANCH  24  29
TORSDOF 2
ENDMDL
MODEL 2
REMARK VINA RESULT:      -6.9      9.126     11.055
REMARK  Name = 
REMARK  3 active torsions:
REMARK  status: ('A' for Active; 'I' for Inactive)
REMARK    1  A    between atoms: C_1  and  N_2
REMARK    2  A    between atoms: C_18  and  O_19
REMARK    3  A    between atoms: C_25  and  O_26
REMARK                            x       y       z     vdW  Elec       q    Type
REMARK                         _______ _______ _______ _____ _____    ______ ____
ROOT
ATOM      1  C   UNL     1       3.089  13.834  19.879  0.00  0.00    +0.000 C 
ATOM      2  N   UNL     1       1.936  13.004  19.552  0.00  0.00    +0.000 NA
ATOM      3  C   UNL     1       1.028  13.715  18.647  0.00  0.00    +0.000 C 
ATOM      4  C   UNL     1       0.068  14.581  19.426  0.00  0.00    +0.000 C 
ATOM      5  C   UNL     1      -0.749  13.745  20.431  0.00  0.00    +0.000 C 
ATOM      6  C   UNL     1      -1.659  14.776  21.112  0.00  0.00    +0.000 C 
ATOM      7  C   UNL     1      -2.566  14.143  22.100  0.00  0.00    +0.000 A 
ATOM      8  N   UNL     1      -3.767  14.765  22.184  0.00  0.00    +0.000 NA
ATOM      9  C   UNL     1      -4.742  14.170  22.857  0.00  0.00    +0.000 A 
ATOM     10  C   UNL     1      -5.983  14.799  22.834  0.00  0.00    +0.000 A 
ATOM     11  C   UNL     1      -7.085  14.230  23.465  0.00  0.00    +0.000 A 
ATOM     12  C   UNL     1      -6.939  13.018  24.132  0.00  0.00    +0.000 A 
ATOM     13  C   UNL     1      -5.686  12.378  24.171  0.00  0.00    +0.000 A 
ATOM     14  C   UNL     1      -4.554  12.945  23.521  0.00  0.00    +0.000 A 
ATOM     15  C   UNL     1      -3.249  12.361  23.487  0.00  0.00    +0.000 A 
ATOM     16  C   UNL     1      -2.214  12.970  22.759  0.00  0.00    +0.000 A 
ATOM     17  C   UNL     1      -0.815  12.343  22.562  0.00  0.00    +0.000 C 
ATOM     18  C   UNL     1       0.152  13.137  21.533  0.00  0.00    +0.000 C 
ATOM     19  C   UNL     1       1.269  12.331  20.738  0.00  0.00    +0.000 C 
ATOM     20  C   UNL     1       0.635  11.048  20.198  0.00  0.00    +0.000 C 
ATOM     21  C   UNL     1      -0.719  11.299  19.559  0.00  0.00    +0.000 A 
ATOM     22  C   UNL     1      -1.285  10.230  18.852  0.00  0.00    +0.000 A 
ATOM     23  C   UNL     1      -2.551  10.356  18.302  0.00  0.00    +0.000 A 
ATOM     24  C   UNL     1      -3.250  11.546  18.470  0.00  0.00    +0.000 A 
ATOM     25  C   UNL     1      -2.694  12.640  19.132  0.00  0.00    +0.000 A 
ATOM     26  C   UNL     1      -1.417  12.543  19.691  0.00  0.00    +0.000 A 
ENDROOT
BRANCH  18  27
ATOM     27  O   UNL     1       0.849  14.149  22.295  0.00  0.00    +0.000 OA
ATOM     28  H   UNL     1       1.349  14.719  21.684  0.00  0.00    +0.000 HD
ENDBRANCH  18  27
BRANCH  24  29
ATOM     29  O   UNL     1      -4.523  11.671  17.994  0.00  0.00    +0.000 OA
ATOM     30  H   UNL     1      -4.502  11.491  17.040  0.00  0.00    +0.000 HD
ENDBRANCH  24  29
TORSDOF 2
ENDMDL
MODEL 3
REMARK VINA RESULT:      -6.8      1.892      3.734
REMARK  Name = 
REMARK  3 active torsions:
REMARK  status: ('A' for Active; 'I' for Inactive)
REMARK    1  A    between atoms: C_1  and  N_2
REMARK    2  A    between atoms: C_18  and  O_19
REMARK    3  A    between atoms: C_25  and  O_26
REMARK                            x       y       z     vdW  Elec       q    Type
REMARK                         _______ _______ _______ _____ _____    ______ ____
ROOT
ATOM      1  C   UNL     1      10.270  18.061  17.711  0.00  0.00    +0.000 C 
ATOM      2  N   UNL     1      10.669  16.721  18.125  0.00  0.00    +0.000 NA
ATOM      3  C   UNL     1       9.793  15.713  17.523  0.00  0.00    +0.000 C 
ATOM      4  C   UNL     1       8.558  15.506  18.367  0.00  0.00    +0.000 C 
ATOM      5  C   UNL     1       8.928  15.083  19.802  0.00  0.00    +0.000 C 
ATOM      6  C   UNL     1       7.569  14.915  20.496  0.00  0.00    +0.000 C 
ATOM      7  C   UNL     1       7.720  14.461  21.900  0.00  0.00    +0.000 A 
ATOM      8  N   UNL     1       6.707  13.656  22.303  0.00  0.00    +0.000 NA
ATOM      9  C   UNL     1       6.836  13.005  23.452  0.00  0.00    +0.000 A 
ATOM     10  C   UNL     1       5.814  12.118  23.777  0.00  0.00    +0.000 A 
ATOM     11  C   UNL     1       5.878  11.346  24.934  0.00  0.00    +0.000 A 
ATOM     12  C   UNL     1       6.977  11.471  25.777  0.00  0.00    +0.000 A 
ATOM     13  C   UNL     1       8.011  12.374  25.464  0.00  0.00    +0.000 A 
ATOM     14  C   UNL     1       7.962  13.161  24.279  0.00  0.00    +0.000 A 
ATOM     15  C   UNL     1       8.970  14.087  23.866  0.00  0.00    +0.000 A 
ATOM     16  C   UNL     1       8.857  14.766  22.642  0.00  0.00    +0.000 A 
ATOM     17  C   UNL     1       9.957  15.682  22.059  0.00  0.00    +0.000 C 
ATOM     18  C   UNL     1       9.684  16.207  20.552  0.00  0.00    +0.000 C 
ATOM     19  C   UNL     1      10.920  16.554  19.613  0.00  0.00    +0.000 C 
ATOM     20  C   UNL     1      11.948  15.429  19.747  0.00  0.00    +0.000 C 
ATOM     21  C   UNL     1      11.309  14.054  19.684  0.00  0.00    +0.000 A 
ATOM     22  C   UNL     1      12.182  12.962  19.588  0.00  0.00    +0.000 A 
ATOM     23  C   UNL     1      11.680  11.670  19.599  0.00  0.00    +0.000 A 
ATOM     24  C   UNL     1      10.308  11.475  19.716  0.00  0.00    +0.000 A 
ATOM     25  C   UNL     1       9.413  12.542  19.771  0.00  0.00    +0.000 A 
ATOM     26  C   UNL     1       9.891  13.856  19.755  0.00  0.00    +0.000 A 
ENDROOT
BRANCH  18  27
ATOM     27  O   UNL     1       8.903  17.420  20.656  0.00  0.00    +0.000 OA
ATOM     28  H   UNL     1       8.893  17.867  19.792  0.00  0.00    +0.000 HD
ENDBRANCH  18  27
BRANCH  24  29
ATOM     29  O   UNL     1       9.796  10.212  19.794  0.00  0.00    +0.000 OA
ATOM     30  H   UNL     1      10.356   9.630  19.255  0.00  0.00    +0.000 HD
ENDBRANCH  24  29
TORSDOF 2
ENDMDL
MODEL 4
REMARK VINA RESULT:      -6.7      8.781     12.188
REMARK  Name = 
REMARK  3 active torsions:
REMARK  status: ('A' for Active; 'I' for Inactive)
REMARK    1  A    between atoms: C_1  and  N_2
REMARK    2  A    between atoms: C_18  and  O_19
REMARK    3  A    between atoms: C_25  and  O_26
REMARK                            x       y       z     vdW  Elec       q    Type
REMARK                         _______ _______ _______ _____ _____    ______ ____
ROOT
ATOM      1  C   UNL     1      -4.008  12.795  24.956  0.00  0.00    +0.000 C 
ATOM      2  N   UNL     1      -3.921  12.557  23.521  0.00  0.00    +0.000 NA
ATOM      3  C   UNL     1      -2.673  11.867  23.188  0.00  0.00    +0.000 C 
ATOM      4  C   UNL     1      -1.549  12.857  22.999  0.00  0.00    +0.000 C 
ATOM      5  C   UNL     1      -1.886  13.882  21.899  0.00  0.00    +0.000 C 
ATOM      6  C   UNL     1      -0.646  14.784  21.846  0.00  0.00    +0.000 C 
ATOM      7  C   UNL     1      -0.766  15.826  20.796  0.00  0.00    +0.000 A 
ATOM      8  N   UNL     1       0.424  16.142  20.231  0.00  0.00    +0.000 NA
ATOM      9  C   UNL     1       0.424  16.887  19.133  0.00  0.00    +0.000 A 
ATOM     10  C   UNL     1       1.662  17.105  18.535  0.00  0.00    +0.000 A 
ATOM     11  C   UNL     1       1.766  17.828  17.351  0.00  0.00    +0.000 A 
ATOM     12  C   UNL     1       0.616  18.345  16.763  0.00  0.00    +0.000 A 
ATOM     13  C   UNL     1      -0.640  18.141  17.366  0.00  0.00    +0.000 A 
ATOM     14  C   UNL     1      -0.760  17.394  18.572  0.00  0.00    +0.000 A 
ATOM     15  C   UNL     1      -1.991  17.115  19.245  0.00  0.00    +0.000 A 
ATOM     16  C   UNL     1      -2.008  16.310  20.395  0.00  0.00    +0.000 A 
ATOM     17  C   UNL     1      -3.301  15.853  21.108  0.00  0.00    +0.000 C 
ATOM     18  C   UNL     1      -3.082  14.778  22.300  0.00  0.00    +0.000 C 
ATOM     19  C   UNL     1      -4.250  13.756  22.648  0.00  0.00    +0.000 C 
ATOM     20  C   UNL     1      -4.792  13.189  21.334  0.00  0.00    +0.000 C 
ATOM     21  C   UNL     1      -3.683  12.779  20.383  0.00  0.00    +0.000 A 
ATOM     22  C   UNL     1      -4.070  12.059  19.244  0.00  0.00    +0.000 A 
ATOM     23  C   UNL     1      -3.126  11.712  18.290  0.00  0.00    +0.000 A 
ATOM     24  C   UNL     1      -1.802  12.095  18.473  0.00  0.00    +0.000 A 
ATOM     25  C   UNL     1      -1.382  12.775  19.616  0.00  0.00    +0.000 A 
ATOM     26  C   UNL     1      -2.311  13.132  20.597  0.00  0.00    +0.000 A 
ENDROOT
BRANCH  18  27
ATOM     27  O   UNL     1      -2.827  15.527  23.510  0.00  0.00    +0.000 OA
ATOM     28  H   UNL     1      -2.384  16.363  23.279  0.00  0.00    +0.000 HD
ENDBRANCH  18  27
BRANCH  24  29
ATOM     29  O   UNL     1      -0.867  11.821  17.517  0.00  0.00    +0.000 OA
ATOM     30  H   UNL     1       0.010  11.976  17.905  0.00  0.00    +0.000 HD
ENDBRANCH  24  29
TORSDOF 2
ENDMDL
MODEL 5
REMARK VINA RESULT:      -6.7      6.064      8.518
REMARK  Name = 
REMARK  3 active torsions:
REMARK  status: ('A' for Active; 'I' for Inactive)
REMARK    1  A    between atoms: C_1  and  N_2
REMARK    2  A    between atoms: C_18  and  O_19
REMARK    3  A    between atoms: C_25  and  O_26
REMARK                            x       y       z     vdW  Elec       q    Type
REMARK                         _______ _______ _______ _____ _____    ______ ____
ROOT
ATOM      1  C   UNL     1       1.308  18.263  17.066  0.00  0.00    +0.000 C 
ATOM      2  N   UNL     1       1.871  17.790  18.325  0.00  0.00    +0.000 NA
ATOM      3  C   UNL     1       2.983  16.869  18.079  0.00  0.00    +0.000 C 
ATOM      4  C   UNL     1       2.477  15.460  17.882  0.00  0.00    +0.000 C 
ATOM      5  C   UNL     1       1.667  14.982  19.103  0.00  0.00    +0.000 C 
ATOM      6  C   UNL     1       1.250  13.554  18.729  0.00  0.00    +0.000 C 
ATOM      7  C   UNL     1       0.483  12.901  19.819  0.00  0.00    +0.000 A 
ATOM      8  N   UNL     1       0.701  11.566  19.888  0.00  0.00    +0.000 NA
ATOM      9  C   UNL     1       0.257  10.906  20.949  0.00  0.00    +0.000 A 
ATOM     10  C   UNL     1       0.589   9.556  21.021  0.00  0.00    +0.000 A 
ATOM     11  C   UNL     1       0.217   8.786  22.120  0.00  0.00    +0.000 A 
ATOM     12  C   UNL     1      -0.501   9.376  23.155  0.00  0.00    +0.000 A 
ATOM     13  C   UNL     1      -0.852  10.737  23.087  0.00  0.00    +0.000 A 
ATOM     14  C   UNL     1      -0.469  11.538  21.974  0.00  0.00    +0.000 A 
ATOM     15  C   UNL     1      -0.759  12.930  21.825  0.00  0.00    +0.000 A 
ATOM     16  C   UNL     1      -0.276  13.645  20.717  0.00  0.00    +0.000 A 
ATOM     17  C   UNL     1      -0.430  15.173  20.544  0.00  0.00    +0.000 C 
ATOM     18  C   UNL     1       0.367  15.803  19.283  0.00  0.00    +0.000 C 
ATOM     19  C   UNL     1       0.853  17.316  19.348  0.00  0.00    +0.000 C 
ATOM     20  C   UNL     1       1.489  17.551  20.720  0.00  0.00    +0.000 C 
ATOM     21  C   UNL     1       2.434  16.432  21.117  0.00  0.00    +0.000 A 
ATOM     22  C   UNL     1       3.222  16.653  22.254  0.00  0.00    +0.000 A 
ATOM     23  C   UNL     1       4.056  15.650  22.724  0.00  0.00    +0.000 A 
ATOM     24  C   UNL     1       4.092  14.429  22.060  0.00  0.00    +0.000 A 
ATOM     25  C   UNL     1       3.352  14.197  20.902  0.00  0.00    +0.000 A 
ATOM     26  C   UNL     1       2.506  15.192  20.403  0.00  0.00    +0.000 A 
ENDROOT
BRANCH  18  27
ATOM     27  O   UNL     1      -0.506  15.708  18.134  0.00  0.00    +0.000 OA
ATOM     28  H   UNL     1      -1.323  16.206  18.313  0.00  0.00    +0.000 HD
ENDBRANCH  18  27
BRANCH  24  29
ATOM     29  O   UNL     1       4.857  13.406  22.541  0.00  0.00    +0.000 OA
ATOM     30  H   UNL     1       5.738  13.477  22.137  0.00  0.00    +0.000 HD
ENDBRANCH  24  29
TORSDOF 2
ENDMDL
MODEL 6
REMARK VINA RESULT:      -6.2      7.661     11.193
REMARK  Name = 
REMARK  3 active torsions:
REMARK  status: ('A' for Active; 'I' for Inactive)
REMARK    1  A    between atoms: C_1  and  N_2
REMARK    2  A    between atoms: C_18  and  O_19
REMARK    3  A    between atoms: C_25  and  O_26
REMARK                            x       y       z     vdW  Elec       q    Type
REMARK                         _______ _______ _______ _____ _____    ______ ____
ROOT
ATOM      1  C   UNL     1      -4.111  13.258  24.407  0.00  0.00    +0.000 C 
ATOM      2  N   UNL     1      -3.776  12.836  23.052  0.00  0.00    +0.000 NA
ATOM      3  C   UNL     1      -2.668  11.878  23.069  0.00  0.00    +0.000 C 
ATOM      4  C   UNL     1      -1.341  12.596  23.075  0.00  0.00    +0.000 C 
ATOM      5  C   UNL     1      -1.204  13.528  21.855  0.00  0.00    +0.000 C 
ATOM      6  C   UNL     1       0.187  14.154  22.025  0.00  0.00    +0.000 C 
ATOM      7  C   UNL     1       0.522  15.064  20.904  0.00  0.00    +0.000 A 
ATOM      8  N   UNL     1       1.845  15.069  20.608  0.00  0.00    +0.000 NA
ATOM      9  C   UNL     1       2.241  15.661  19.490  0.00  0.00    +0.000 A 
ATOM     10  C   UNL     1       3.594  15.556  19.181  0.00  0.00    +0.000 A 
ATOM     11  C   UNL     1       4.103  16.097  18.003  0.00  0.00    +0.000 A 
ATOM     12  C   UNL     1       3.245  16.757  17.129  0.00  0.00    +0.000 A 
ATOM     13  C   UNL     1       1.877  16.879  17.437  0.00  0.00    +0.000 A 
ATOM     14  C   UNL     1       1.343  16.321  18.633  0.00  0.00    +0.000 A 
ATOM     15  C   UNL     1      -0.033  16.375  19.021  0.00  0.00    +0.000 A 
ATOM     16  C   UNL     1      -0.469  15.732  20.191  0.00  0.00    +0.000 A 
ATOM     17  C   UNL     1      -1.952  15.629  20.616  0.00  0.00    +0.000 C 
ATOM     18  C   UNL     1      -2.231  14.684  21.901  0.00  0.00    +0.000 C 
ATOM     19  C   UNL     1      -3.641  13.962  22.042  0.00  0.00    +0.000 C 
ATOM     20  C   UNL     1      -4.005  13.360  20.683  0.00  0.00    +0.000 C 
ATOM     21  C   UNL     1      -2.838  12.628  20.047  0.00  0.00    +0.000 A 
ATOM     22  C   UNL     1      -3.124  11.867  18.906  0.00  0.00    +0.000 A 
ATOM     23  C   UNL     1      -2.099  11.228  18.225  0.00  0.00    +0.000 A 
ATOM     24  C   UNL     1      -0.792  11.360  18.682  0.00  0.00    +0.000 A 
ATOM     25  C   UNL     1      -0.484  12.076  19.838  0.00  0.00    +0.000 A 
ATOM     26  C   UNL     1      -1.498  12.725  20.548  0.00  0.00    +0.000 A 
ENDROOT
BRANCH  18  27
ATOM     27  O   UNL     1      -2.079  15.508  23.080  0.00  0.00    +0.000 OA
ATOM     28  H   UNL     1      -2.960  15.765  23.405  0.00  0.00    +0.000 HD
ENDBRANCH  18  27
BRANCH  24  29
ATOM     29  O   UNL     1       0.240  10.794  17.991  0.00  0.00    +0.000 OA
ATOM     30  H   UNL     1       0.136   9.830  18.039  0.00  0.00    +0.000 HD
ENDBRANCH  24  29
TORSDOF 2
ENDMDL
MODEL 7
REMARK VINA RESULT:      -6.2      9.029     11.144
REMARK  Name = 
REMARK  3 active torsions:
REMARK  status: ('A' for Active; 'I' for Inactive)
REMARK    1  A    between atoms: C_1  and  N_2
REMARK    2  A    between atoms: C_18  and  O_19
REMARK    3  A    between atoms: C_25  and  O_26
REMARK                            x       y       z     vdW  Elec       q    Type
REMARK                         _______ _______ _______ _____ _____    ______ ____
ROOT
ATOM      1  C   UNL     1       3.338  14.075  20.833  0.00  0.00    +0.000 C 
ATOM      2  N   UNL     1       2.367  13.177  20.218  0.00  0.00    +0.000 NA
ATOM      3  C   UNL     1       1.783  13.790  19.023  0.00  0.00    +0.000 C 
ATOM      4  C   UNL     1       0.607  14.663  19.391  0.00  0.00    +0.000 C 
ATOM      5  C   UNL     1      -0.472  13.858  20.143  0.00  0.00    +0.000 C 
ATOM      6  C   UNL     1      -1.572  14.891  20.421  0.00  0.00    +0.000 C 
ATOM      7  C   UNL     1      -2.735  14.284  21.114  0.00  0.00    +0.000 A 
ATOM      8  N   UNL     1      -3.912  14.859  20.766  0.00  0.00    +0.000 NA
ATOM      9  C   UNL     1      -5.039  14.267  21.137  0.00  0.00    +0.000 A 
ATOM     10  C   UNL     1      -6.220  14.841  20.675  0.00  0.00    +0.000 A 
ATOM     11  C   UNL     1      -7.454  14.266  20.963  0.00  0.00    +0.000 A 
ATOM     12  C   UNL     1      -7.505  13.106  21.729  0.00  0.00    +0.000 A 
ATOM     13  C   UNL     1      -6.318  12.523  22.211  0.00  0.00    +0.000 A 
ATOM     14  C   UNL     1      -5.049  13.096  21.914  0.00  0.00    +0.000 A 
ATOM     15  C   UNL     1      -3.790  12.566  22.340  0.00  0.00    +0.000 A 
ATOM     16  C   UNL     1      -2.589  13.171  21.936  0.00  0.00    +0.000 A 
ATOM     17  C   UNL     1      -1.188  12.593  22.240  0.00  0.00    +0.000 C 
ATOM     18  C   UNL     1       0.041  13.359  21.516  0.00  0.00    +0.000 C 
ATOM     19  C   UNL     1       1.369  12.553  21.178  0.00  0.00    +0.000 C 
ATOM     20  C   UNL     1       0.967  11.212  20.560  0.00  0.00    +0.000 C 
ATOM     21  C   UNL     1      -0.116  11.365  19.508  0.00  0.00    +0.000 A 
ATOM     22  C   UNL     1      -0.405  10.231  18.738  0.00  0.00    +0.000 A 
ATOM     23  C   UNL     1      -1.431  10.268  17.807  0.00  0.00    +0.000 A 
ATOM     24  C   UNL     1      -2.170  11.436  17.656  0.00  0.00    +0.000 A 
ATOM     25  C   UNL     1      -1.878  12.592  18.378  0.00  0.00    +0.000 A 
ATOM     26  C   UNL     1      -0.844  12.585  19.320  0.00  0.00    +0.000 A 
ENDROOT
BRANCH  18  27
ATOM     27  O   UNL     1       0.437  14.447  22.382  0.00  0.00    +0.000 OA
ATOM     28  H   UNL     1       1.161  14.146  22.960  0.00  0.00    +0.000 HD
ENDBRANCH  18  27
BRANCH  24  29
ATOM     29  O   UNL     1      -3.226  11.477  16.792  0.00  0.00    +0.000 OA
ATOM     30  H   UNL     1      -3.817  12.193  17.078  0.00  0.00    +0.000 HD
ENDBRANCH  24  29
TORSDOF 2
ENDMDL
MODEL 8
REMARK VINA RESULT:      -6.2      2.338      6.663
REMARK  Name = 
REMARK  3 active torsions:
REMARK  status: ('A' for Active; 'I' for Inactive)
REMARK    1  A    between atoms: C_1  and  N_2
REMARK    2  A    between atoms: C_18  and  O_19
REMARK    3  A    between atoms: C_25  and  O_26
REMARK                            x       y       z     vdW  Elec       q    Type
REMARK                         _______ _______ _______ _____ _____    ______ ____
ROOT
ATOM      1  C   UNL     1       6.722  12.380  28.171  0.00  0.00    +0.000 C 
ATOM      2  N   UNL     1       6.190  13.131  27.041  0.00  0.00    +0.000 NA
ATOM      3  C   UNL     1       5.385  12.264  26.178  0.00  0.00    +0.000 C 
ATOM      4  C   UNL     1       6.258  11.551  25.174  0.00  0.00    +0.000 C 
ATOM      5  C   UNL     1       7.051  12.552  24.311  0.00  0.00    +0.000 C 
ATOM      6  C   UNL     1       7.860  11.658  23.362  0.00  0.00    +0.000 C 
ATOM      7  C   UNL     1       8.669  12.456  22.409  0.00  0.00    +0.000 A 
ATOM      8  N   UNL     1       8.803  11.855  21.202  0.00  0.00    +0.000 NA
ATOM      9  C   UNL     1       9.305  12.559  20.196  0.00  0.00    +0.000 A 
ATOM     10  C   UNL     1       9.334  11.931  18.955  0.00  0.00    +0.000 A 
ATOM     11  C   UNL     1       9.793  12.601  17.825  0.00  0.00    +0.000 A 
ATOM     12  C   UNL     1      10.235  13.915  17.943  0.00  0.00    +0.000 A 
ATOM     13  C   UNL     1      10.221  14.556  19.196  0.00  0.00    +0.000 A 
ATOM     14  C   UNL     1       9.744  13.885  20.357  0.00  0.00    +0.000 A 
ATOM     15  C   UNL     1       9.672  14.459  21.665  0.00  0.00    +0.000 A 
ATOM     16  C   UNL     1       9.121  13.732  22.733  0.00  0.00    +0.000 A 
ATOM     17  C   UNL     1       8.885  14.318  24.143  0.00  0.00    +0.000 C 
ATOM     18  C   UNL     1       8.069  13.355  25.157  0.00  0.00    +0.000 C 
ATOM     19  C   UNL     1       7.199  14.007  26.318  0.00  0.00    +0.000 C 
ATOM     20  C   UNL     1       6.402  15.168  25.719  0.00  0.00    +0.000 C 
ATOM     21  C   UNL     1       5.751  14.799  24.399  0.00  0.00    +0.000 A 
ATOM     22  C   UNL     1       4.833  15.719  23.875  0.00  0.00    +0.000 A 
ATOM     23  C   UNL     1       4.251  15.489  22.638  0.00  0.00    +0.000 A 
ATOM     24  C   UNL     1       4.597  14.346  21.925  0.00  0.00    +0.000 A 
ATOM     25  C   UNL     1       5.475  13.394  22.440  0.00  0.00    +0.000 A 
ATOM     26  C   UNL     1       6.072  13.596  23.688  0.00  0.00    +0.000 A 
ENDROOT
BRANCH  18  27
ATOM     27  O   UNL     1       9.037  12.500  25.809  0.00  0.00    +0.000 OA
ATOM     28  H   UNL     1       9.820  13.029  26.045  0.00  0.00    +0.000 HD
ENDBRANCH  18  27
BRANCH  24  29
ATOM     29  O   UNL     1       4.086  14.132  20.678  0.00  0.00    +0.000 OA
ATOM     30  H   UNL     1       4.633  14.624  20.044  0.00  0.00    +0.000 HD
ENDBRANCH  24  29
TORSDOF 2
ENDMDL
MODEL 9
REMARK VINA RESULT:      -6.1      6.381      8.870
REMARK  Name = 
REMARK  3 active torsions:
REMARK  status: ('A' for Active; 'I' for Inactive)
REMARK    1  A    between atoms: C_1  and  N_2
REMARK    2  A    between atoms: C_18  and  O_19
REMARK    3  A    between atoms: C_25  and  O_26
REMARK                            x       y       z     vdW  Elec       q    Type
REMARK                         _______ _______ _______ _____ _____    ______ ____
ROOT
ATOM      1  C   UNL     1       5.617  16.937  20.504  0.00  0.00    +0.000 C 
ATOM      2  N   UNL     1       4.465  17.241  19.665  0.00  0.00    +0.000 NA
ATOM      3  C   UNL     1       3.427  17.924  20.441  0.00  0.00    +0.000 C 
ATOM      4  C   UNL     1       2.538  16.924  21.140  0.00  0.00    +0.000 C 
ATOM      5  C   UNL     1       1.883  15.959  20.133  0.00  0.00    +0.000 C 
ATOM      6  C   UNL     1       1.026  15.039  21.012  0.00  0.00    +0.000 C 
ATOM      7  C   UNL     1       0.271  14.051  20.202  0.00  0.00    +0.000 A 
ATOM      8  N   UNL     1      -0.933  13.741  20.741  0.00  0.00    +0.000 NA
ATOM      9  C   UNL     1      -1.795  13.049  20.008  0.00  0.00    +0.000 A 
ATOM     10  C   UNL     1      -3.052  12.838  20.566  0.00  0.00    +0.000 A 
ATOM     11  C   UNL     1      -4.047  12.170  19.858  0.00  0.00    +0.000 A 
ATOM     12  C   UNL     1      -3.774  11.702  18.576  0.00  0.00    +0.000 A 
ATOM     13  C   UNL     1      -2.502  11.900  18.006  0.00  0.00    +0.000 A 
ATOM     14  C   UNL     1      -1.480  12.590  18.717  0.00  0.00    +0.000 A 
ATOM     15  C   UNL     1      -0.168  12.858  18.214  0.00  0.00    +0.000 A 
ATOM     16  C   UNL     1       0.745  13.608  18.972  0.00  0.00    +0.000 A 
ATOM     17  C   UNL     1       2.132  14.053  18.454  0.00  0.00    +0.000 C 
ATOM     18  C   UNL     1       2.934  15.066  19.431  0.00  0.00    +0.000 C 
ATOM     19  C   UNL     1       3.975  16.091  18.801  0.00  0.00    +0.000 C 
ATOM     20  C   UNL     1       3.328  16.729  17.571  0.00  0.00    +0.000 C 
ATOM     21  C   UNL     1       1.898  17.164  17.832  0.00  0.00    +0.000 A 
ATOM     22  C   UNL     1       1.290  17.944  16.839  0.00  0.00    +0.000 A 
ATOM     23  C   UNL     1      -0.038  18.319  16.970  0.00  0.00    +0.000 A 
ATOM     24  C   UNL     1      -0.755  17.905  18.087  0.00  0.00    +0.000 A 
ATOM     25  C   UNL     1      -0.164  17.165  19.109  0.00  0.00    +0.000 A 
ATOM     26  C   UNL     1       1.175  16.777  19.007  0.00  0.00    +0.000 A 
ENDROOT
BRANCH  18  27
ATOM     27  O   UNL     1       3.681  14.256  20.367  0.00  0.00    +0.000 OA
ATOM     28  H   UNL     1       4.583  14.613  20.449  0.00  0.00    +0.000 HD
ENDBRANCH  18  27
BRANCH  24  29
ATOM     29  O   UNL     1      -2.081  18.208  18.205  0.00  0.00    +0.000 OA
ATOM     30  H   UNL     1      -2.181  19.164  18.068  0.00  0.00    +0.000 HD
ENDBRANCH  24  29
TORSDOF 2
ENDMDL
