MODEL 1
REMARK VINA RESULT:      -6.8      0.000      0.000
REMARK  Name = 
REMARK  11 active torsions:
REMARK  status: ('A' for Active; 'I' for Inactive)
REMARK    1  A    between atoms: C_1  and  O_2
REMARK    2  A    between atoms: O_2  and  C_3
REMARK    3  A    between atoms: C_6  and  O_7
REMARK    4  A    between atoms: O_7  and  C_8
REMARK    5  A    between atoms: C_8  and  C_9
REMARK    6  A    between atoms: C_9  and  O_10
REMARK    7  A    between atoms: C_9  and  C_11
REMARK    8  A    between atoms: C_11  and  N_12
REMARK    9  A    between atoms: N_12  and  C_13
REMARK   10  A    between atoms: C_13  and  C_14
REMARK   11  A    between atoms: C_13  and  C_15
REMARK                            x       y       z     vdW  Elec       q    Type
REMARK                         _______ _______ _______ _____ _____    ______ ____
ROOT
ATOM      1  C   UNL     1       7.712   5.507  18.774  0.00  0.00    +0.000 C 
ENDROOT
BRANCH   1   2
ATOM      2  O   UNL     1       8.035   6.839  18.461  0.00  0.00    +0.000 OA
ATOM      3  H   UNL     1       8.906   7.049  18.891  0.00  0.00    +0.000 HD
ENDBRANCH   1   2
BRANCH   1   4
ATOM      4  C   UNL     1       7.585   4.663  17.500  0.00  0.00    +0.000 C 
BRANCH   4   5
ATOM      5  O   UNL     1       7.355   5.419  16.367  0.00  0.00    +0.000 OA
BRANCH   5   9
ATOM      6  C   UNL     1       5.822   3.734  12.850  0.00  0.00    +0.000 A 
ATOM      7  C   UNL     1       5.077   3.693  14.039  0.00  0.00    +0.000 A 
ATOM      8  C   UNL     1       5.579   4.255  15.204  0.00  0.00    +0.000 A 
ATOM      9  C   UNL     1       6.845   4.880  15.221  0.00  0.00    +0.000 A 
ATOM     10  C   UNL     1       7.586   4.931  14.034  0.00  0.00    +0.000 A 
ATOM     11  C   UNL     1       7.079   4.360  12.857  0.00  0.00    +0.000 A 
BRANCH   6  13
ATOM     12  C   UNL     1       4.042   3.212  11.282  0.00  0.00    +0.000 C 
ATOM     13  O   UNL     1       5.361   3.180  11.698  0.00  0.00    +0.000 OA
ENDBRANCH   6  13
ENDBRANCH   5   9
ENDBRANCH   4   5
ENDBRANCH   1   4
BRANCH   1  14
ATOM     14  C   UNL     1       6.391   5.441  19.575  0.00  0.00    +0.000 C 
BRANCH  14  15
ATOM     15  N   UNL     1       5.293   4.994  18.703  0.00  0.00    +0.000 NA
ATOM     16  H   UNL     1       5.074   3.998  18.950  0.00  0.00    +0.000 HD
BRANCH  15  17
ATOM     17  C   UNL     1       4.051   5.782  18.815  0.00  0.00    +0.000 C 
ATOM     18  C   UNL     1       3.752   6.597  17.542  0.00  0.00    +0.000 C 
BRANCH  17  19
ATOM     19  C   UNL     1       2.899   4.828  19.077  0.00  0.00    +0.000 A 
ATOM     20  C   UNL     1       2.393   4.024  18.040  0.00  0.00    +0.000 A 
ATOM     21  C   UNL     1       1.328   3.148  18.279  0.00  0.00    +0.000 A 
ATOM     22  C   UNL     1       0.758   3.067  19.552  0.00  0.00    +0.000 A 
ATOM     23  C   UNL     1       1.251   3.861  20.590  0.00  0.00    +0.000 A 
ATOM     24  C   UNL     1       2.315   4.737  20.357  0.00  0.00    +0.000 A 
ENDBRANCH  17  19
ENDBRANCH  15  17
ENDBRANCH  14  15
ENDBRANCH   1  14
TORSDOF 9
ENDMDL
MODEL 2
REMARK VINA RESULT:      -6.7      3.609      6.798
REMARK  Name = 
REMARK  11 active torsions:
REMARK  status: ('A' for Active; 'I' for Inactive)
REMARK    1  A    between atoms: C_1  and  O_2
REMARK    2  A    between atoms: O_2  and  C_3
REMARK    3  A    between atoms: C_6  and  O_7
REMARK    4  A    between atoms: O_7  and  C_8
REMARK    5  A    between atoms: C_8  and  C_9
REMARK    6  A    between atoms: C_9  and  O_10
REMARK    7  A    between atoms: C_9  and  C_11
REMARK    8  A    between atoms: C_11  and  N_12
REMARK    9  A    between atoms: N_12  and  C_13
REMARK   10  A    between atoms: C_13  and  C_14
REMARK   11  A    between atoms: C_13  and  C_15
REMARK                            x       y       z     vdW  Elec       q    Type
REMARK                         _______ _______ _______ _____ _____    ______ ____
ROOT
ATOM      1  C   UNL     1       2.199   3.154  21.041  0.00  0.00    +0.000 C 
ENDROOT
BRANCH   1   2
ATOM      2  O   UNL     1       1.002   2.635  21.564  0.00  0.00    +0.000 OA
ATOM      3  H   UNL     1       0.808   1.783  21.090  0.00  0.00    +0.000 HD
ENDBRANCH   1   2
BRANCH   1   4
ATOM      4  C   UNL     1       2.220   4.684  21.141  0.00  0.00    +0.000 C 
BRANCH   4   5
ATOM      5  O   UNL     1       2.739   5.296  20.016  0.00  0.00    +0.000 OA
BRANCH   5   9
ATOM      6  C   UNL     1       1.552   9.124  18.794  0.00  0.00    +0.000 A 
ATOM      7  C   UNL     1       1.285   8.682  20.099  0.00  0.00    +0.000 A 
ATOM      8  C   UNL     1       1.682   7.418  20.509  0.00  0.00    +0.000 A 
ATOM      9  C   UNL     1       2.361   6.550  19.628  0.00  0.00    +0.000 A 
ATOM     10  C   UNL     1       2.637   6.990  18.328  0.00  0.00    +0.000 A 
ATOM     11  C   UNL     1       2.233   8.268  17.913  0.00  0.00    +0.000 A 
BRANCH   6  13
ATOM     12  C   UNL     1       0.338  11.210  19.065  0.00  0.00    +0.000 C 
ATOM     13  O   UNL     1       1.164  10.352  18.361  0.00  0.00    +0.000 OA
ENDBRANCH   6  13
ENDBRANCH   5   9
ENDBRANCH   4   5
ENDBRANCH   1   4
BRANCH   1  14
ATOM     14  C   UNL     1       2.379   2.727  19.566  0.00  0.00    +0.000 C 
BRANCH  14  15
ATOM     15  N   UNL     1       3.797   2.823  19.182  0.00  0.00    +0.000 NA
ATOM     16  H   UNL     1       4.264   1.927  19.460  0.00  0.00    +0.000 HD
BRANCH  15  17
ATOM     17  C   UNL     1       4.037   3.042  17.743  0.00  0.00    +0.000 C 
ATOM     18  C   UNL     1       2.732   3.281  16.957  0.00  0.00    +0.000 C 
BRANCH  17  19
ATOM     19  C   UNL     1       4.942   4.252  17.585  0.00  0.00    +0.000 A 
ATOM     20  C   UNL     1       4.948   4.981  16.383  0.00  0.00    +0.000 A 
ATOM     21  C   UNL     1       5.785   6.092  16.234  0.00  0.00    +0.000 A 
ATOM     22  C   UNL     1       6.624   6.485  17.281  0.00  0.00    +0.000 A 
ATOM     23  C   UNL     1       6.627   5.768  18.479  0.00  0.00    +0.000 A 
ATOM     24  C   UNL     1       5.792   4.657  18.633  0.00  0.00    +0.000 A 
ENDBRANCH  17  19
ENDBRANCH  15  17
ENDBRANCH  14  15
ENDBRANCH   1  14
TORSDOF 9
ENDMDL
MODEL 3
REMARK VINA RESULT:      -6.6      2.477      4.140
REMARK  Name = 
REMARK  11 active torsions:
REMARK  status: ('A' for Active; 'I' for Inactive)
REMARK    1  A    between atoms: C_1  and  O_2
REMARK    2  A    between atoms: O_2  and  C_3
REMARK    3  A    between atoms: C_6  and  O_7
REMARK    4  A    between atoms: O_7  and  C_8
REMARK    5  A    between atoms: C_8  and  C_9
REMARK    6  A    between atoms: C_9  and  O_10
REMARK    7  A    between atoms: C_9  and  C_11
REMARK    8  A    between atoms: C_11  and  N_12
REMARK    9  A    between atoms: N_12  and  C_13
REMARK   10  A    between atoms: C_13  and  C_14
REMARK   11  A    between atoms: C_13  and  C_15
REMARK                            x       y       z     vdW  Elec       q    Type
REMARK                         _______ _______ _______ _____ _____    ______ ____
ROOT
ATOM      1  C   UNL     1       3.561   1.743  18.637  0.00  0.00    +0.000 C 
ENDROOT
BRANCH   1   2
ATOM      2  O   UNL     1       3.976   0.400  18.630  0.00  0.00    +0.000 OA
ATOM      3  H   UNL     1       4.967   0.389  18.545  0.00  0.00    +0.000 HD
ENDBRANCH   1   2
BRANCH   1   4
ATOM      4  C   UNL     1       4.548   2.615  19.422  0.00  0.00    +0.000 C 
BRANCH   4   5
ATOM      5  O   UNL     1       4.600   3.920  18.971  0.00  0.00    +0.000 OA
BRANCH   5   9
ATOM      6  C   UNL     1       6.863   5.003  15.615  0.00  0.00    +0.000 A 
ATOM      7  C   UNL     1       5.487   4.755  15.492  0.00  0.00    +0.000 A 
ATOM      8  C   UNL     1       4.734   4.402  16.601  0.00  0.00    +0.000 A 
ATOM      9  C   UNL     1       5.330   4.285  17.876  0.00  0.00    +0.000 A 
ATOM     10  C   UNL     1       6.700   4.542  18.004  0.00  0.00    +0.000 A 
ATOM     11  C   UNL     1       7.462   4.896  16.881  0.00  0.00    +0.000 A 
BRANCH   6  13
ATOM     12  C   UNL     1       7.391   4.921  13.245  0.00  0.00    +0.000 C 
ATOM     13  O   UNL     1       7.628   5.338  14.543  0.00  0.00    +0.000 OA
ENDBRANCH   6  13
ENDBRANCH   5   9
ENDBRANCH   4   5
ENDBRANCH   1   4
BRANCH   1  14
ATOM     14  C   UNL     1       2.149   1.873  19.254  0.00  0.00    +0.000 C 
BRANCH  14  15
ATOM     15  N   UNL     1       1.546   3.158  18.868  0.00  0.00    +0.000 NA
ATOM     16  H   UNL     1       0.701   2.952  18.283  0.00  0.00    +0.000 HD
BRANCH  15  17
ATOM     17  C   UNL     1       1.128   4.012  19.996  0.00  0.00    +0.000 C 
ATOM     18  C   UNL     1       1.778   3.589  21.328  0.00  0.00    +0.000 C 
BRANCH  17  19
ATOM     19  C   UNL     1       1.518   5.446  19.685  0.00  0.00    +0.000 A 
ATOM     20  C   UNL     1       1.978   5.793  18.402  0.00  0.00    +0.000 A 
ATOM     21  C   UNL     1       2.343   7.113  18.115  0.00  0.00    +0.000 A 
ATOM     22  C   UNL     1       2.255   8.097  19.103  0.00  0.00    +0.000 A 
ATOM     23  C   UNL     1       1.800   7.764  20.381  0.00  0.00    +0.000 A 
ATOM     24  C   UNL     1       1.434   6.447  20.673  0.00  0.00    +0.000 A 
ENDBRANCH  17  19
ENDBRANCH  15  17
ENDBRANCH  14  15
ENDBRANCH   1  14
TORSDOF 9
ENDMDL
MODEL 4
REMARK VINA RESULT:      -6.6      3.142      6.061
REMARK  Name = 
REMARK  11 active torsions:
REMARK  status: ('A' for Active; 'I' for Inactive)
REMARK    1  A    between atoms: C_1  and  O_2
REMARK    2  A    between atoms: O_2  and  C_3
REMARK    3  A    between atoms: C_6  and  O_7
REMARK    4  A    between atoms: O_7  and  C_8
REMARK    5  A    between atoms: C_8  and  C_9
REMARK    6  A    between atoms: C_9  and  O_10
REMARK    7  A    between atoms: C_9  and  C_11
REMARK    8  A    between atoms: C_11  and  N_12
REMARK    9  A    between atoms: N_12  and  C_13
REMARK   10  A    between atoms: C_13  and  C_14
REMARK   11  A    between atoms: C_13  and  C_15
REMARK                            x       y       z     vdW  Elec       q    Type
REMARK                         _______ _______ _______ _____ _____    ______ ____
ROOT
ATOM      1  C   UNL     1       5.141   5.637  16.041  0.00  0.00    +0.000 C 
ENDROOT
BRANCH   1   2
ATOM      2  O   UNL     1       6.010   6.151  15.062  0.00  0.00    +0.000 OA
ATOM      3  H   UNL     1       5.757   7.098  14.900  0.00  0.00    +0.000 HD
ENDBRANCH   1   2
BRANCH   1   4
ATOM      4  C   UNL     1       4.558   6.765  16.900  0.00  0.00    +0.000 C 
BRANCH   4   5
ATOM      5  O   UNL     1       3.422   6.391  17.593  0.00  0.00    +0.000 OA
BRANCH   5   9
ATOM      6  C   UNL     1       1.108   9.158  19.724  0.00  0.00    +0.000 A 
ATOM      7  C   UNL     1       1.385   9.364  18.363  0.00  0.00    +0.000 A 
ATOM      8  C   UNL     1       2.146   8.447  17.653  0.00  0.00    +0.000 A 
ATOM      9  C   UNL     1       2.657   7.290  18.279  0.00  0.00    +0.000 A 
ATOM     10  C   UNL     1       2.375   7.076  19.633  0.00  0.00    +0.000 A 
ATOM     11  C   UNL     1       1.607   8.005  20.352  0.00  0.00    +0.000 A 
BRANCH   6  13
ATOM     12  C   UNL     1       0.883  11.195  21.028  0.00  0.00    +0.000 C 
ATOM     13  O   UNL     1       0.376  10.045  20.447  0.00  0.00    +0.000 OA
ENDBRANCH   6  13
ENDBRANCH   5   9
ENDBRANCH   4   5
ENDBRANCH   1   4
BRANCH   1  14
ATOM     14  C   UNL     1       5.880   4.624  16.946  0.00  0.00    +0.000 C 
BRANCH  14  15
ATOM     15  N   UNL     1       4.950   3.576  17.396  0.00  0.00    +0.000 NA
ATOM     16  H   UNL     1       5.282   2.663  17.003  0.00  0.00    +0.000 HD
BRANCH  15  17
ATOM     17  C   UNL     1       4.837   3.433  18.861  0.00  0.00    +0.000 C 
ATOM     18  C   UNL     1       5.473   4.614  19.619  0.00  0.00    +0.000 C 
BRANCH  17  19
ATOM     19  C   UNL     1       3.364   3.345  19.223  0.00  0.00    +0.000 A 
ATOM     20  C   UNL     1       2.409   3.039  18.237  0.00  0.00    +0.000 A 
ATOM     21  C   UNL     1       1.052   2.962  18.568  0.00  0.00    +0.000 A 
ATOM     22  C   UNL     1       0.635   3.191  19.882  0.00  0.00    +0.000 A 
ATOM     23  C   UNL     1       1.575   3.496  20.869  0.00  0.00    +0.000 A 
ATOM     24  C   UNL     1       2.932   3.574  20.544  0.00  0.00    +0.000 A 
ENDBRANCH  17  19
ENDBRANCH  15  17
ENDBRANCH  14  15
ENDBRANCH   1  14
TORSDOF 9
ENDMDL
MODEL 5
REMARK VINA RESULT:      -6.6      1.000      1.447
REMARK  Name = 
REMARK  11 active torsions:
REMARK  status: ('A' for Active; 'I' for Inactive)
REMARK    1  A    between atoms: C_1  and  O_2
REMARK    2  A    between atoms: O_2  and  C_3
REMARK    3  A    between atoms: C_6  and  O_7
REMARK    4  A    between atoms: O_7  and  C_8
REMARK    5  A    between atoms: C_8  and  C_9
REMARK    6  A    between atoms: C_9  and  O_10
REMARK    7  A    between atoms: C_9  and  C_11
REMARK    8  A    between atoms: C_11  and  N_12
REMARK    9  A    between atoms: N_12  and  C_13
REMARK   10  A    between atoms: C_13  and  C_14
REMARK   11  A    between atoms: C_13  and  C_15
REMARK                            x       y       z     vdW  Elec       q    Type
REMARK                         _______ _______ _______ _____ _____    ______ ____
ROOT
ATOM      1  C   UNL     1       6.877   4.994  17.816  0.00  0.00    +0.000 C 
ENDROOT
BRANCH   1   2
ATOM      2  O   UNL     1       8.015   4.924  18.639  0.00  0.00    +0.000 OA
ATOM      3  H   UNL     1       8.710   5.516  18.246  0.00  0.00    +0.000 HD
ENDBRANCH   1   2
BRANCH   1   4
ATOM      4  C   UNL     1       6.943   6.218  16.895  0.00  0.00    +0.000 C 
BRANCH   4   5
ATOM      5  O   UNL     1       7.582   5.963  15.697  0.00  0.00    +0.000 OA
BRANCH   5   9
ATOM      6  C   UNL     1       5.852   3.579  12.717  0.00  0.00    +0.000 A 
ATOM      7  C   UNL     1       7.152   4.084  12.555  0.00  0.00    +0.000 A 
ATOM      8  C   UNL     1       7.730   4.869  13.541  0.00  0.00    +0.000 A 
ATOM      9  C   UNL     1       7.029   5.176  14.727  0.00  0.00    +0.000 A 
ATOM     10  C   UNL     1       5.736   4.667  14.897  0.00  0.00    +0.000 A 
ATOM     11  C   UNL     1       5.151   3.875  13.897  0.00  0.00    +0.000 A 
BRANCH   6  13
ATOM     12  C   UNL     1       5.756   1.619  11.285  0.00  0.00    +0.000 C 
ATOM     13  O   UNL     1       5.257   2.819  11.761  0.00  0.00    +0.000 OA
ENDBRANCH   6  13
ENDBRANCH   5   9
ENDBRANCH   4   5
ENDBRANCH   1   4
BRANCH   1  14
ATOM     14  C   UNL     1       5.591   5.056  18.671  0.00  0.00    +0.000 C 
BRANCH  14  15
ATOM     15  N   UNL     1       4.541   5.796  17.952  0.00  0.00    +0.000 NA
ATOM     16  H   UNL     1       4.141   5.156  17.224  0.00  0.00    +0.000 HD
BRANCH  15  17
ATOM     17  C   UNL     1       3.434   6.281  18.797  0.00  0.00    +0.000 C 
ATOM     18  C   UNL     1       2.611   7.390  18.112  0.00  0.00    +0.000 C 
BRANCH  17  19
ATOM     19  C   UNL     1       2.522   5.109  19.115  0.00  0.00    +0.000 A 
ATOM     20  C   UNL     1       2.101   4.240  18.092  0.00  0.00    +0.000 A 
ATOM     21  C   UNL     1       1.257   3.164  18.383  0.00  0.00    +0.000 A 
ATOM     22  C   UNL     1       0.824   2.944  19.693  0.00  0.00    +0.000 A 
ATOM     23  C   UNL     1       1.234   3.800  20.717  0.00  0.00    +0.000 A 
ATOM     24  C   UNL     1       2.078   4.878  20.432  0.00  0.00    +0.000 A 
ENDBRANCH  17  19
ENDBRANCH  15  17
ENDBRANCH  14  15
ENDBRANCH   1  14
TORSDOF 9
ENDMDL
MODEL 6
REMARK VINA RESULT:      -6.6      0.985      1.018
REMARK  Name = 
REMARK  11 active torsions:
REMARK  status: ('A' for Active; 'I' for Inactive)
REMARK    1  A    between atoms: C_1  and  O_2
REMARK    2  A    between atoms: O_2  and  C_3
REMARK    3  A    between atoms: C_6  and  O_7
REMARK    4  A    between atoms: O_7  and  C_8
REMARK    5  A    between atoms: C_8  and  C_9
REMARK    6  A    between atoms: C_9  and  O_10
REMARK    7  A    between atoms: C_9  and  C_11
REMARK    8  A    between atoms: C_11  and  N_12
REMARK    9  A    between atoms: N_12  and  C_13
REMARK   10  A    between atoms: C_13  and  C_14
REMARK   11  A    between atoms: C_13  and  C_15
REMARK                            x       y       z     vdW  Elec       q    Type
REMARK                         _______ _______ _______ _____ _____    ______ ____
ROOT
ATOM      1  C   UNL     1       6.785   6.295  17.644  0.00  0.00    +0.000 C 
ENDROOT
BRANCH   1   2
ATOM      2  O   UNL     1       7.228   7.519  17.114  0.00  0.00    +0.000 OA
ATOM      3  H   UNL     1       7.809   7.319  16.333  0.00  0.00    +0.000 HD
ENDBRANCH   1   2
BRANCH   1   4
ATOM      4  C   UNL     1       7.324   5.118  16.822  0.00  0.00    +0.000 C 
BRANCH   4   5
ATOM      5  O   UNL     1       7.555   5.439  15.498  0.00  0.00    +0.000 OA
BRANCH   5   9
ATOM      6  C   UNL     1       5.577   3.502  12.353  0.00  0.00    +0.000 A 
ATOM      7  C   UNL     1       4.911   3.749  13.564  0.00  0.00    +0.000 A 
ATOM      8  C   UNL     1       5.561   4.395  14.605  0.00  0.00    +0.000 A 
ATOM      9  C   UNL     1       6.901   4.819  14.472  0.00  0.00    +0.000 A 
ATOM     10  C   UNL     1       7.566   4.582  13.263  0.00  0.00    +0.000 A 
ATOM     11  C   UNL     1       6.909   3.926  12.211  0.00  0.00    +0.000 A 
BRANCH   6  13
ATOM     12  C   UNL     1       3.753   3.225  10.773  0.00  0.00    +0.000 C 
ATOM     13  O   UNL     1       4.970   2.859  11.321  0.00  0.00    +0.000 OA
ENDBRANCH   6  13
ENDBRANCH   5   9
ENDBRANCH   4   5
ENDBRANCH   1   4
BRANCH   1  14
ATOM     14  C   UNL     1       5.240   6.242  17.676  0.00  0.00    +0.000 C 
BRANCH  14  15
ATOM     15  N   UNL     1       4.779   5.735  18.978  0.00  0.00    +0.000 NA
ATOM     16  H   UNL     1       5.409   6.130  19.717  0.00  0.00    +0.000 HD
BRANCH  15  17
ATOM     17  C   UNL     1       3.388   6.086  19.323  0.00  0.00    +0.000 C 
ATOM     18  C   UNL     1       2.805   7.169  18.394  0.00  0.00    +0.000 C 
BRANCH  17  19
ATOM     19  C   UNL     1       2.536   4.832  19.221  0.00  0.00    +0.000 A 
ATOM     20  C   UNL     1       2.698   3.951  18.136  0.00  0.00    +0.000 A 
ATOM     21  C   UNL     1       1.911   2.799  18.038  0.00  0.00    +0.000 A 
ATOM     22  C   UNL     1       0.957   2.514  19.019  0.00  0.00    +0.000 A 
ATOM     23  C   UNL     1       0.787   3.381  20.100  0.00  0.00    +0.000 A 
ATOM     24  C   UNL     1       1.571   4.534  20.203  0.00  0.00    +0.000 A 
ENDBRANCH  17  19
ENDBRANCH  15  17
ENDBRANCH  14  15
ENDBRANCH   1  14
TORSDOF 9
ENDMDL
MODEL 7
REMARK VINA RESULT:      -6.6      0.606      1.164
REMARK  Name = 
REMARK  11 active torsions:
REMARK  status: ('A' for Active; 'I' for Inactive)
REMARK    1  A    between atoms: C_1  and  O_2
REMARK    2  A    between atoms: O_2  and  C_3
REMARK    3  A    between atoms: C_6  and  O_7
REMARK    4  A    between atoms: O_7  and  C_8
REMARK    5  A    between atoms: C_8  and  C_9
REMARK    6  A    between atoms: C_9  and  O_10
REMARK    7  A    between atoms: C_9  and  C_11
REMARK    8  A    between atoms: C_11  and  N_12
REMARK    9  A    between atoms: N_12  and  C_13
REMARK   10  A    between atoms: C_13  and  C_14
REMARK   11  A    between atoms: C_13  and  C_15
REMARK                            x       y       z     vdW  Elec       q    Type
REMARK                         _______ _______ _______ _____ _____    ______ ____
ROOT
ATOM      1  C   UNL     1       7.215   5.345  18.822  0.00  0.00    +0.000 C 
ENDROOT
BRANCH   1   2
ATOM      2  O   UNL     1       8.110   6.350  19.229  0.00  0.00    +0.000 OA
ATOM      3  H   UNL     1       8.566   6.697  18.416  0.00  0.00    +0.000 HD
ENDBRANCH   1   2
BRANCH   1   4
ATOM      4  C   UNL     1       7.730   4.631  17.567  0.00  0.00    +0.000 C 
BRANCH   4   5
ATOM      5  O   UNL     1       7.526   5.353  16.407  0.00  0.00    +0.000 OA
BRANCH   5   9
ATOM      6  C   UNL     1       5.861   3.622  12.973  0.00  0.00    +0.000 A 
ATOM      7  C   UNL     1       5.262   3.426  14.227  0.00  0.00    +0.000 A 
ATOM      8  C   UNL     1       5.807   4.002  15.365  0.00  0.00    +0.000 A 
ATOM      9  C   UNL     1       6.971   4.797  15.289  0.00  0.00    +0.000 A 
ATOM     10  C   UNL     1       7.567   5.002  14.039  0.00  0.00    +0.000 A 
ATOM     11  C   UNL     1       7.016   4.416  12.888  0.00  0.00    +0.000 A 
BRANCH   6  13
ATOM     12  C   UNL     1       4.105   3.332  11.320  0.00  0.00    +0.000 C 
ATOM     13  O   UNL     1       5.357   3.059  11.844  0.00  0.00    +0.000 OA
ENDBRANCH   6  13
ENDBRANCH   5   9
ENDBRANCH   4   5
ENDBRANCH   1   4
BRANCH   1  14
ATOM     14  C   UNL     1       5.817   5.943  18.542  0.00  0.00    +0.000 C 
BRANCH  14  15
ATOM     15  N   UNL     1       4.835   5.400  19.495  0.00  0.00    +0.000 NA
ATOM     16  H   UNL     1       5.133   5.687  20.459  0.00  0.00    +0.000 HD
BRANCH  15  17
ATOM     17  C   UNL     1       3.448   5.856  19.285  0.00  0.00    +0.000 C 
ATOM     18  C   UNL     1       3.297   6.722  18.019  0.00  0.00    +0.000 C 
BRANCH  17  19
ATOM     19  C   UNL     1       2.554   4.634  19.162  0.00  0.00    +0.000 A 
ATOM     20  C   UNL     1       1.538   4.401  20.107  0.00  0.00    +0.000 A 
ATOM     21  C   UNL     1       0.717   3.274  19.998  0.00  0.00    +0.000 A 
ATOM     22  C   UNL     1       0.901   2.369  18.949  0.00  0.00    +0.000 A 
ATOM     23  C   UNL     1       1.907   2.590  18.005  0.00  0.00    +0.000 A 
ATOM     24  C   UNL     1       2.730   3.715  18.109  0.00  0.00    +0.000 A 
ENDBRANCH  17  19
ENDBRANCH  15  17
ENDBRANCH  14  15
ENDBRANCH   1  14
TORSDOF 9
ENDMDL
MODEL 8
REMARK VINA RESULT:      -6.5      3.721      6.984
REMARK  Name = 
REMARK  11 active torsions:
REMARK  status: ('A' for Active; 'I' for Inactive)
REMARK    1  A    between atoms: C_1  and  O_2
REMARK    2  A    between atoms: O_2  and  C_3
REMARK    3  A    between atoms: C_6  and  O_7
REMARK    4  A    between atoms: O_7  and  C_8
REMARK    5  A    between atoms: C_8  and  C_9
REMARK    6  A    between atoms: C_9  and  O_10
REMARK    7  A    between atoms: C_9  and  C_11
REMARK    8  A    between atoms: C_11  and  N_12
REMARK    9  A    between atoms: N_12  and  C_13
REMARK   10  A    between atoms: C_13  and  C_14
REMARK   11  A    between atoms: C_13  and  C_15
REMARK                            x       y       z     vdW  Elec       q    Type
REMARK                         _______ _______ _______ _____ _____    ______ ____
ROOT
ATOM      1  C   UNL     1       1.128   3.952  19.941  0.00  0.00    +0.000 C 
ENDROOT
BRANCH   1   2
ATOM      2  O   UNL     1       1.193   4.193  18.558  0.00  0.00    +0.000 OA
ATOM      3  H   UNL     1       1.296   3.316  18.101  0.00  0.00    +0.000 HD
ENDBRANCH   1   2
BRANCH   1   4
ATOM      4  C   UNL     1       1.680   5.146  20.730  0.00  0.00    +0.000 C 
BRANCH   4   5
ATOM      5  O   UNL     1       2.497   5.966  19.975  0.00  0.00    +0.000 OA
BRANCH   5   9
ATOM      6  C   UNL     1       1.352   9.825  18.811  0.00  0.00    +0.000 A 
ATOM      7  C   UNL     1       1.981   8.966  17.896  0.00  0.00    +0.000 A 
ATOM      8  C   UNL     1       2.357   7.686  18.276  0.00  0.00    +0.000 A 
ATOM      9  C   UNL     1       2.115   7.218  19.586  0.00  0.00    +0.000 A 
ATOM     10  C   UNL     1       1.478   8.068  20.499  0.00  0.00    +0.000 A 
ATOM     11  C   UNL     1       1.101   9.364  20.114  0.00  0.00    +0.000 A 
BRANCH   6  13
ATOM     12  C   UNL     1       1.126  12.196  19.288  0.00  0.00    +0.000 C 
ATOM     13  O   UNL     1       0.985  11.088  18.471  0.00  0.00    +0.000 OA
ENDBRANCH   6  13
ENDBRANCH   5   9
ENDBRANCH   4   5
ENDBRANCH   1   4
BRANCH   1  14
ATOM     14  C   UNL     1       1.920   2.676  20.309  0.00  0.00    +0.000 C 
BRANCH  14  15
ATOM     15  N   UNL     1       3.352   2.989  20.437  0.00  0.00    +0.000 NA
ATOM     16  H   UNL     1       3.696   2.552  21.326  0.00  0.00    +0.000 HD
BRANCH  15  17
ATOM     17  C   UNL     1       4.195   2.502  19.328  0.00  0.00    +0.000 C 
ATOM     18  C   UNL     1       3.441   1.536  18.393  0.00  0.00    +0.000 C 
BRANCH  17  19
ATOM     19  C   UNL     1       4.672   3.700  18.525  0.00  0.00    +0.000 A 
ATOM     20  C   UNL     1       4.426   3.771  17.142  0.00  0.00    +0.000 A 
ATOM     21  C   UNL     1       4.869   4.872  16.401  0.00  0.00    +0.000 A 
ATOM     22  C   UNL     1       5.562   5.909  17.030  0.00  0.00    +0.000 A 
ATOM     23  C   UNL     1       5.813   5.850  18.403  0.00  0.00    +0.000 A 
ATOM     24  C   UNL     1       5.372   4.753  19.148  0.00  0.00    +0.000 A 
ENDBRANCH  17  19
ENDBRANCH  15  17
ENDBRANCH  14  15
ENDBRANCH   1  14
TORSDOF 9
ENDMDL
MODEL 9
REMARK VINA RESULT:      -6.4      3.121      5.976
REMARK  Name = 
REMARK  11 active torsions:
REMARK  status: ('A' for Active; 'I' for Inactive)
REMARK    1  A    between atoms: C_1  and  O_2
REMARK    2  A    between atoms: O_2  and  C_3
REMARK    3  A    between atoms: C_6  and  O_7
REMARK    4  A    between atoms: O_7  and  C_8
REMARK    5  A    between atoms: C_8  and  C_9
REMARK    6  A    between atoms: C_9  and  O_10
REMARK    7  A    between atoms: C_9  and  C_11
REMARK    8  A    between atoms: C_11  and  N_12
REMARK    9  A    between atoms: N_12  and  C_13
REMARK   10  A    between atoms: C_13  and  C_14
REMARK   11  A    between atoms: C_13  and  C_15
REMARK                            x       y       z     vdW  Elec       q    Type
REMARK                         _______ _______ _______ _____ _____    ______ ____
ROOT
ATOM      1  C   UNL     1       6.054   5.821  17.639  0.00  0.00    +0.000 C 
ENDROOT
BRANCH   1   2
ATOM      2  O   UNL     1       7.321   6.430  17.643  0.00  0.00    +0.000 OA
ATOM      3  H   UNL     1       7.925   5.876  17.081  0.00  0.00    +0.000 HD
ENDBRANCH   1   2
BRANCH   1   4
ATOM      4  C   UNL     1       4.962   6.834  17.276  0.00  0.00    +0.000 C 
BRANCH   4   5
ATOM      5  O   UNL     1       3.704   6.457  17.707  0.00  0.00    +0.000 OA
BRANCH   5   9
ATOM      6  C   UNL     1       1.122   9.141  19.628  0.00  0.00    +0.000 A 
ATOM      7  C   UNL     1       1.555   9.390  18.316  0.00  0.00    +0.000 A 
ATOM      8  C   UNL     1       2.405   8.501  17.675  0.00  0.00    +0.000 A 
ATOM      9  C   UNL     1       2.852   7.329  18.323  0.00  0.00    +0.000 A 
ATOM     10  C   UNL     1       2.415   7.073  19.629  0.00  0.00    +0.000 A 
ATOM     11  C   UNL     1       1.557   7.974  20.277  0.00  0.00    +0.000 A 
BRANCH   6  13
ATOM     12  C   UNL     1       0.464  10.395  21.602  0.00  0.00    +0.000 C 
ATOM     13  O   UNL     1       0.301  10.001  20.285  0.00  0.00    +0.000 OA
ENDBRANCH   6  13
ENDBRANCH   5   9
ENDBRANCH   4   5
ENDBRANCH   1   4
BRANCH   1  14
ATOM     14  C   UNL     1       5.745   5.197  19.020  0.00  0.00    +0.000 C 
BRANCH  14  15
ATOM     15  N   UNL     1       5.396   3.776  18.866  0.00  0.00    +0.000 NA
ATOM     16  H   UNL     1       5.406   3.339  19.819  0.00  0.00    +0.000 HD
BRANCH  15  17
ATOM     17  C   UNL     1       4.076   3.523  18.257  0.00  0.00    +0.000 C 
ATOM     18  C   UNL     1       4.077   2.282  17.342  0.00  0.00    +0.000 C 
BRANCH  17  19
ATOM     19  C   UNL     1       3.064   3.321  19.370  0.00  0.00    +0.000 A 
ATOM     20  C   UNL     1       1.717   3.679  19.178  0.00  0.00    +0.000 A 
ATOM     21  C   UNL     1       0.784   3.498  20.205  0.00  0.00    +0.000 A 
ATOM     22  C   UNL     1       1.185   2.961  21.431  0.00  0.00    +0.000 A 
ATOM     23  C   UNL     1       2.519   2.603  21.634  0.00  0.00    +0.000 A 
ATOM     24  C   UNL     1       3.456   2.781  20.611  0.00  0.00    +0.000 A 
ENDBRANCH  17  19
ENDBRANCH  15  17
ENDBRANCH  14  15
ENDBRANCH   1  14
TORSDOF 9
ENDMDL
