MODEL 1
REMARK VINA RESULT:      -8.5      0.000      0.000
REMARK  Name = 
REMARK  6 active torsions:
REMARK  status: ('A' for Active; 'I' for Inactive)
REMARK    1  A    between atoms: N_4  and  C_5
REMARK    2  A    between atoms: C_9  and  C_10
REMARK    3  A    between atoms: N_17  and  C_18
REMARK    4  A    between atoms: N_22  and  C_23
REMARK    5  A    between atoms: C_23  and  C_24
REMARK    6  A    between atoms: C_27  and  O_28
REMARK                            x       y       z     vdW  Elec       q    Type
REMARK                         _______ _______ _______ _____ _____    ______ ____
ROOT
ATOM      1  C   UNL     1       4.558   5.730  17.090  0.00  0.00    +0.000 A 
ATOM      2  S   UNL     1       3.982   7.334  17.242  0.00  0.00    +0.000 S 
ATOM      3  C   UNL     1       2.998   6.911  18.541  0.00  0.00    +0.000 A 
ATOM      4  C   UNL     1       3.071   5.566  18.871  0.00  0.00    +0.000 A 
ATOM      5  C   UNL     1       3.958   4.845  17.978  0.00  0.00    +0.000 A 
ATOM      6  C   UNL     1       2.233   4.964  19.996  0.00  0.00    +0.000 C 
ATOM      7  C   UNL     1       1.874   5.973  21.111  0.00  0.00    +0.000 C 
ATOM      8  C   UNL     1       1.536   7.302  20.536  0.00  0.00    +0.000 A 
ATOM      9  N   UNL     1       0.732   8.198  21.108  0.00  0.00    +0.000 NA
ATOM     10  N   UNL     1       0.773   9.251  20.243  0.00  0.00    +0.000 N 
ATOM     11  C   UNL     1       1.620   9.041  19.180  0.00  0.00    +0.000 A 
ATOM     12  C   UNL     1       2.099   7.773  19.338  0.00  0.00    +0.000 A 
ENDROOT
BRANCH   1  16
ATOM     13  N   UNL     1       7.469   5.182  15.096  0.00  0.00    +0.000 N 
ATOM     14  C   UNL     1       6.783   5.589  16.203  0.00  0.00    +0.000 C 
ATOM     15  O   UNL     1       7.391   5.943  17.201  0.00  0.00    +0.000 OA
ATOM     16  N   UNL     1       5.422   5.455  16.038  0.00  0.00    +0.000 N 
ATOM     17  H   UNL     1       8.463   5.376  15.163  0.00  0.00    +0.000 HD
ATOM     18  H   UNL     1       7.065   5.383  14.193  0.00  0.00    +0.000 HD
ATOM     19  H   UNL     1       5.161   4.687  15.435  0.00  0.00    +0.000 HD
ENDBRANCH   1  16
BRANCH  10  20
ATOM     20  C   UNL     1      -0.073  10.406  20.541  0.00  0.00    +0.000 C 
ATOM     21  C   UNL     1      -0.994  10.768  19.370  0.00  0.00    +0.000 C 
ATOM     22  C   UNL     1      -0.252  11.548  18.289  0.00  0.00    +0.000 C 
ATOM     23  C   UNL     1       0.507  12.750  18.862  0.00  0.00    +0.000 C 
ATOM     24  N   UNL     1       1.413  12.361  19.953  0.00  0.00    +0.000 NA
ATOM     25  C   UNL     1       0.688  11.651  21.027  0.00  0.00    +0.000 C 
BRANCH  24  26
ATOM     26  C   UNL     1       2.123  13.522  20.520  0.00  0.00    +0.000 C 
BRANCH  26  27
ATOM     27  C   UNL     1       2.281  14.673  19.558  0.00  0.00    +0.000 A 
ATOM     28  C   UNL     1       1.516  15.843  19.694  0.00  0.00    +0.000 A 
ATOM     29  C   UNL     1       1.626  16.873  18.755  0.00  0.00    +0.000 A 
ATOM     30  C   UNL     1       2.500  16.732  17.681  0.00  0.00    +0.000 A 
ATOM     31  C   UNL     1       3.280  15.593  17.541  0.00  0.00    +0.000 A 
ATOM     32  C   UNL     1       3.162  14.571  18.475  0.00  0.00    +0.000 A 
ATOM     33  F   UNL     1       3.909  13.469  18.324  0.00  0.00    +0.000 F 
BRANCH  30  34
ATOM     34  O   UNL     1       2.613  17.702  16.729  0.00  0.00    +0.000 OA
ATOM     35  H   UNL     1       3.303  17.437  16.097  0.00  0.00    +0.000 HD
ENDBRANCH  30  34
ENDBRANCH  26  27
ENDBRANCH  24  26
ENDBRANCH  10  20
BRANCH   5  36
ATOM     36  C   UNL     1       4.187   3.401  18.030  0.00  0.00    +0.000 C 
ATOM     37  N   UNL     1       5.113   2.955  18.935  0.00  0.00    +0.000 N 
ATOM     38  O   UNL     1       3.573   2.590  17.345  0.00  0.00    +0.000 OA
ATOM     39  H   UNL     1       5.292   3.509  19.763  0.00  0.00    +0.000 HD
ATOM     40  H   UNL     1       5.102   1.950  19.064  0.00  0.00    +0.000 HD
ENDBRANCH   5  36
TORSDOF 6
ENDMDL
MODEL 2
REMARK VINA RESULT:      -8.5      0.856      1.188
REMARK  Name = 
REMARK  6 active torsions:
REMARK  status: ('A' for Active; 'I' for Inactive)
REMARK    1  A    between atoms: N_4  and  C_5
REMARK    2  A    between atoms: C_9  and  C_10
REMARK    3  A    between atoms: N_17  and  C_18
REMARK    4  A    between atoms: N_22  and  C_23
REMARK    5  A    between atoms: C_23  and  C_24
REMARK    6  A    between atoms: C_27  and  O_28
REMARK                            x       y       z     vdW  Elec       q    Type
REMARK                         _______ _______ _______ _____ _____    ______ ____
ROOT
ATOM      1  C   UNL     1       4.533   5.868  17.153  0.00  0.00    +0.000 A 
ATOM      2  S   UNL     1       3.909   7.450  17.329  0.00  0.00    +0.000 S 
ATOM      3  C   UNL     1       2.925   6.974  18.609  0.00  0.00    +0.000 A 
ATOM      4  C   UNL     1       3.034   5.625  18.915  0.00  0.00    +0.000 A 
ATOM      5  C   UNL     1       3.951   4.948  18.017  0.00  0.00    +0.000 A 
ATOM      6  C   UNL     1       2.203   4.977  20.018  0.00  0.00    +0.000 C 
ATOM      7  C   UNL     1       1.803   5.953  21.149  0.00  0.00    +0.000 C 
ATOM      8  C   UNL     1       1.432   7.283  20.595  0.00  0.00    +0.000 A 
ATOM      9  N   UNL     1       0.595   8.144  21.176  0.00  0.00    +0.000 NA
ATOM     10  N   UNL     1       0.614   9.214  20.331  0.00  0.00    +0.000 N 
ATOM     11  C   UNL     1       1.478   9.050  19.274  0.00  0.00    +0.000 A 
ATOM     12  C   UNL     1       1.993   7.793  19.413  0.00  0.00    +0.000 A 
ENDROOT
BRANCH   1  16
ATOM     13  N   UNL     1       7.435   5.102  15.218  0.00  0.00    +0.000 N 
ATOM     14  C   UNL     1       6.749   5.401  16.359  0.00  0.00    +0.000 C 
ATOM     15  O   UNL     1       7.318   5.362  17.439  0.00  0.00    +0.000 OA
ATOM     16  N   UNL     1       5.417   5.639  16.106  0.00  0.00    +0.000 N 
ATOM     17  H   UNL     1       8.436   5.031  15.374  0.00  0.00    +0.000 HD
ATOM     18  H   UNL     1       7.179   5.594  14.373  0.00  0.00    +0.000 HD
ATOM     19  H   UNL     1       5.053   5.113  15.322  0.00  0.00    +0.000 HD
ENDBRANCH   1  16
BRANCH  10  20
ATOM     20  C   UNL     1      -0.269  10.337  20.643  0.00  0.00    +0.000 C 
ATOM     21  C   UNL     1      -1.239  10.647  19.497  0.00  0.00    +0.000 C 
ATOM     22  C   UNL     1      -0.563  11.443  18.384  0.00  0.00    +0.000 C 
ATOM     23  C   UNL     1       0.163  12.681  18.919  0.00  0.00    +0.000 C 
ATOM     24  N   UNL     1       1.118  12.343  19.986  0.00  0.00    +0.000 NA
ATOM     25  C   UNL     1       0.455  11.619  21.091  0.00  0.00    +0.000 C 
BRANCH  24  26
ATOM     26  C   UNL     1       1.797  13.539  20.517  0.00  0.00    +0.000 C 
BRANCH  26  27
ATOM     27  C   UNL     1       2.074  14.598  19.479  0.00  0.00    +0.000 A 
ATOM     28  C   UNL     1       3.117  14.447  18.550  0.00  0.00    +0.000 A 
ATOM     29  C   UNL     1       3.404  15.466  17.638  0.00  0.00    +0.000 A 
ATOM     30  C   UNL     1       2.649  16.636  17.654  0.00  0.00    +0.000 A 
ATOM     31  C   UNL     1       1.601  16.795  18.550  0.00  0.00    +0.000 A 
ATOM     32  C   UNL     1       1.324  15.779  19.458  0.00  0.00    +0.000 A 
ATOM     33  F   UNL     1       0.319  15.947  20.327  0.00  0.00    +0.000 F 
BRANCH  30  34
ATOM     34  O   UNL     1       2.917  17.664  16.800  0.00  0.00    +0.000 OA
ATOM     35  H   UNL     1       2.180  17.747  16.172  0.00  0.00    +0.000 HD
ENDBRANCH  30  34
ENDBRANCH  26  27
ENDBRANCH  24  26
ENDBRANCH  10  20
BRANCH   5  36
ATOM     36  C   UNL     1       4.222   3.511  18.044  0.00  0.00    +0.000 C 
ATOM     37  N   UNL     1       5.241   3.090  18.856  0.00  0.00    +0.000 N 
ATOM     38  O   UNL     1       3.568   2.683  17.419  0.00  0.00    +0.000 OA
ATOM     39  H   UNL     1       5.483   3.648  19.665  0.00  0.00    +0.000 HD
ATOM     40  H   UNL     1       5.270   2.084  18.984  0.00  0.00    +0.000 HD
ENDBRANCH   5  36
TORSDOF 6
ENDMDL
MODEL 3
REMARK VINA RESULT:      -8.4      1.524      2.994
REMARK  Name = 
REMARK  6 active torsions:
REMARK  status: ('A' for Active; 'I' for Inactive)
REMARK    1  A    between atoms: N_4  and  C_5
REMARK    2  A    between atoms: C_9  and  C_10
REMARK    3  A    between atoms: N_17  and  C_18
REMARK    4  A    between atoms: N_22  and  C_23
REMARK    5  A    between atoms: C_23  and  C_24
REMARK    6  A    between atoms: C_27  and  O_28
REMARK                            x       y       z     vdW  Elec       q    Type
REMARK                         _______ _______ _______ _____ _____    ______ ____
ROOT
ATOM      1  C   UNL     1       4.352   3.795  19.159  0.00  0.00    +0.000 A 
ATOM      2  S   UNL     1       3.108   4.505  20.094  0.00  0.00    +0.000 S 
ATOM      3  C   UNL     1       3.186   5.933  19.206  0.00  0.00    +0.000 A 
ATOM      4  C   UNL     1       4.151   5.909  18.209  0.00  0.00    +0.000 A 
ATOM      5  C   UNL     1       4.886   4.658  18.210  0.00  0.00    +0.000 A 
ATOM      6  C   UNL     1       4.413   7.114  17.310  0.00  0.00    +0.000 C 
ATOM      7  C   UNL     1       3.176   8.020  17.110  0.00  0.00    +0.000 C 
ATOM      8  C   UNL     1       2.415   8.167  18.378  0.00  0.00    +0.000 A 
ATOM      9  N   UNL     1       1.649   9.213  18.691  0.00  0.00    +0.000 NA
ATOM     10  N   UNL     1       1.134   8.869  19.906  0.00  0.00    +0.000 N 
ATOM     11  C   UNL     1       1.525   7.619  20.323  0.00  0.00    +0.000 A 
ATOM     12  C   UNL     1       2.379   7.162  19.360  0.00  0.00    +0.000 A 
ENDROOT
BRANCH   1  16
ATOM     13  N   UNL     1       4.823   0.263  19.393  0.00  0.00    +0.000 N 
ATOM     14  C   UNL     1       4.197   1.407  18.990  0.00  0.00    +0.000 C 
ATOM     15  O   UNL     1       3.278   1.348  18.188  0.00  0.00    +0.000 OA
ATOM     16  N   UNL     1       4.789   2.529  19.526  0.00  0.00    +0.000 N 
ATOM     17  H   UNL     1       4.333  -0.573  19.093  0.00  0.00    +0.000 HD
ATOM     18  H   UNL     1       5.169   0.227  20.341  0.00  0.00    +0.000 HD
ATOM     19  H   UNL     1       5.783   2.427  19.682  0.00  0.00    +0.000 HD
ENDBRANCH   1  16
BRANCH  10  20
ATOM     20  C   UNL     1       0.285   9.849  20.583  0.00  0.00    +0.000 C 
ATOM     21  C   UNL     1      -0.951  10.217  19.753  0.00  0.00    +0.000 C 
ATOM     22  C   UNL     1      -0.613  11.219  18.652  0.00  0.00    +0.000 C 
ATOM     23  C   UNL     1       0.143  12.437  19.192  0.00  0.00    +0.000 C 
ATOM     24  N   UNL     1       1.346  12.050  19.945  0.00  0.00    +0.000 NA
ATOM     25  C   UNL     1       1.016  11.121  21.046  0.00  0.00    +0.000 C 
BRANCH  24  26
ATOM     26  C   UNL     1       2.058  13.223  20.486  0.00  0.00    +0.000 C 
BRANCH  26  27
ATOM     27  C   UNL     1       2.263  14.331  19.484  0.00  0.00    +0.000 A 
ATOM     28  C   UNL     1       3.233  14.225  18.474  0.00  0.00    +0.000 A 
ATOM     29  C   UNL     1       3.457  15.289  17.594  0.00  0.00    +0.000 A 
ATOM     30  C   UNL     1       2.710  16.456  17.724  0.00  0.00    +0.000 A 
ATOM     31  C   UNL     1       1.732  16.571  18.701  0.00  0.00    +0.000 A 
ATOM     32  C   UNL     1       1.518  15.512  19.576  0.00  0.00    +0.000 A 
ATOM     33  F   UNL     1       0.580  15.638  20.525  0.00  0.00    +0.000 F 
BRANCH  30  34
ATOM     34  O   UNL     1       2.919  17.525  16.904  0.00  0.00    +0.000 OA
ATOM     35  H   UNL     1       3.773  17.930  17.132  0.00  0.00    +0.000 HD
ENDBRANCH  30  34
ENDBRANCH  26  27
ENDBRANCH  24  26
ENDBRANCH  10  20
BRANCH   5  36
ATOM     36  C   UNL     1       6.011   4.362  17.322  0.00  0.00    +0.000 C 
ATOM     37  N   UNL     1       5.745   3.577  16.231  0.00  0.00    +0.000 N 
ATOM     38  O   UNL     1       7.141   4.807  17.485  0.00  0.00    +0.000 OA
ATOM     39  H   UNL     1       4.807   3.570  15.852  0.00  0.00    +0.000 HD
ATOM     40  H   UNL     1       6.501   3.553  15.555  0.00  0.00    +0.000 HD
ENDBRANCH   5  36
TORSDOF 6
ENDMDL
MODEL 4
REMARK VINA RESULT:      -8.2      3.003      3.797
REMARK  Name = 
REMARK  6 active torsions:
REMARK  status: ('A' for Active; 'I' for Inactive)
REMARK    1  A    between atoms: N_4  and  C_5
REMARK    2  A    between atoms: C_9  and  C_10
REMARK    3  A    between atoms: N_17  and  C_18
REMARK    4  A    between atoms: N_22  and  C_23
REMARK    5  A    between atoms: C_23  and  C_24
REMARK    6  A    between atoms: C_27  and  O_28
REMARK                            x       y       z     vdW  Elec       q    Type
REMARK                         _______ _______ _______ _____ _____    ______ ____
ROOT
ATOM      1  C   UNL     1       4.710   5.574  17.031  0.00  0.00    +0.000 A 
ATOM      2  S   UNL     1       4.163   7.173  16.766  0.00  0.00    +0.000 S 
ATOM      3  C   UNL     1       3.131   7.094  18.094  0.00  0.00    +0.000 A 
ATOM      4  C   UNL     1       3.167   5.870  18.746  0.00  0.00    +0.000 A 
ATOM      5  C   UNL     1       4.066   4.941  18.087  0.00  0.00    +0.000 A 
ATOM      6  C   UNL     1       2.283   5.573  19.954  0.00  0.00    +0.000 C 
ATOM      7  C   UNL     1       1.910   6.829  20.775  0.00  0.00    +0.000 C 
ATOM      8  C   UNL     1       1.617   7.980  19.880  0.00  0.00    +0.000 A 
ATOM      9  N   UNL     1       0.813   8.999  20.188  0.00  0.00    +0.000 NA
ATOM     10  N   UNL     1       0.903   9.806  19.093  0.00  0.00    +0.000 N 
ATOM     11  C   UNL     1       1.777   9.332  18.144  0.00  0.00    +0.000 A 
ATOM     12  C   UNL     1       2.226   8.135  18.624  0.00  0.00    +0.000 A 
ENDROOT
BRANCH   1  16
ATOM     13  N   UNL     1       7.642   4.795  15.147  0.00  0.00    +0.000 N 
ATOM     14  C   UNL     1       6.894   5.507  16.040  0.00  0.00    +0.000 C 
ATOM     15  O   UNL     1       7.417   6.386  16.708  0.00  0.00    +0.000 OA
ATOM     16  N   UNL     1       5.601   5.039  16.109  0.00  0.00    +0.000 N 
ATOM     17  H   UNL     1       8.564   5.197  15.007  0.00  0.00    +0.000 HD
ATOM     18  H   UNL     1       7.190   4.482  14.300  0.00  0.00    +0.000 HD
ATOM     19  H   UNL     1       5.519   4.047  15.934  0.00  0.00    +0.000 HD
ENDBRANCH   1  16
BRANCH  10  20
ATOM     20  C   UNL     1       0.071  11.009  19.070  0.00  0.00    +0.000 C 
ATOM     21  C   UNL     1       0.901  12.283  18.868  0.00  0.00    +0.000 C 
ATOM     22  C   UNL     1       1.572  12.731  20.163  0.00  0.00    +0.000 C 
ATOM     23  C   UNL     1       0.578  12.828  21.325  0.00  0.00    +0.000 C 
ATOM     24  N   UNL     1      -0.168  11.576  21.519  0.00  0.00    +0.000 NA
ATOM     25  C   UNL     1      -0.864  11.167  20.281  0.00  0.00    +0.000 C 
BRANCH  24  26
ATOM     26  C   UNL     1      -1.143  11.680  22.621  0.00  0.00    +0.000 C 
BRANCH  26  27
ATOM     27  C   UNL     1      -1.765  13.047  22.760  0.00  0.00    +0.000 A 
ATOM     28  C   UNL     1      -1.141  14.056  23.512  0.00  0.00    +0.000 A 
ATOM     29  C   UNL     1      -1.763  15.295  23.687  0.00  0.00    +0.000 A 
ATOM     30  C   UNL     1      -3.008  15.526  23.109  0.00  0.00    +0.000 A 
ATOM     31  C   UNL     1      -3.631  14.550  22.345  0.00  0.00    +0.000 A 
ATOM     32  C   UNL     1      -3.010  13.318  22.179  0.00  0.00    +0.000 A 
ATOM     33  F   UNL     1      -3.625  12.377  21.450  0.00  0.00    +0.000 F 
BRANCH  30  34
ATOM     34  O   UNL     1      -3.660  16.711  23.281  0.00  0.00    +0.000 OA
ATOM     35  H   UNL     1      -3.567  17.238  22.470  0.00  0.00    +0.000 HD
ENDBRANCH  30  34
ENDBRANCH  26  27
ENDBRANCH  24  26
ENDBRANCH  10  20
BRANCH   5  36
ATOM     36  C   UNL     1       4.264   3.551  18.500  0.00  0.00    +0.000 C 
ATOM     37  N   UNL     1       5.338   3.295  19.309  0.00  0.00    +0.000 N 
ATOM     38  O   UNL     1       3.507   2.637  18.193  0.00  0.00    +0.000 OA
ATOM     39  H   UNL     1       5.691   4.036  19.902  0.00  0.00    +0.000 HD
ATOM     40  H   UNL     1       5.328   2.366  19.715  0.00  0.00    +0.000 HD
ENDBRANCH   5  36
TORSDOF 6
ENDMDL
MODEL 5
REMARK VINA RESULT:      -8.1      3.540      4.883
REMARK  Name = 
REMARK  6 active torsions:
REMARK  status: ('A' for Active; 'I' for Inactive)
REMARK    1  A    between atoms: N_4  and  C_5
REMARK    2  A    between atoms: C_9  and  C_10
REMARK    3  A    between atoms: N_17  and  C_18
REMARK    4  A    between atoms: N_22  and  C_23
REMARK    5  A    between atoms: C_23  and  C_24
REMARK    6  A    between atoms: C_27  and  O_28
REMARK                            x       y       z     vdW  Elec       q    Type
REMARK                         _______ _______ _______ _____ _____    ______ ____
ROOT
ATOM      1  C   UNL     1       2.848   5.939  18.730  0.00  0.00    +0.000 A 
ATOM      2  S   UNL     1       2.880   7.474  17.977  0.00  0.00    +0.000 S 
ATOM      3  C   UNL     1       1.951   8.152  19.207  0.00  0.00    +0.000 A 
ATOM      4  C   UNL     1       1.589   7.242  20.189  0.00  0.00    +0.000 A 
ATOM      5  C   UNL     1       2.075   5.909  19.885  0.00  0.00    +0.000 A 
ATOM      6  C   UNL     1       0.717   7.639  21.376  0.00  0.00    +0.000 C 
ATOM      7  C   UNL     1       0.845   9.129  21.771  0.00  0.00    +0.000 C 
ATOM      8  C   UNL     1       0.929   9.992  20.563  0.00  0.00    +0.000 A 
ATOM      9  N   UNL     1       0.547  11.269  20.511  0.00  0.00    +0.000 NA
ATOM     10  N   UNL     1       0.859  11.635  19.235  0.00  0.00    +0.000 N 
ATOM     11  C   UNL     1       1.467  10.630  18.520  0.00  0.00    +0.000 A 
ATOM     12  C   UNL     1       1.493   9.550  19.355  0.00  0.00    +0.000 A 
ENDROOT
BRANCH   1  16
ATOM     13  N   UNL     1       5.090   3.350  17.718  0.00  0.00    +0.000 N 
ATOM     14  C   UNL     1       4.709   4.456  18.421  0.00  0.00    +0.000 C 
ATOM     15  O   UNL     1       5.433   4.898  19.300  0.00  0.00    +0.000 OA
ATOM     16  N   UNL     1       3.450   4.882  18.060  0.00  0.00    +0.000 N 
ATOM     17  H   UNL     1       6.055   3.091  17.897  0.00  0.00    +0.000 HD
ATOM     18  H   UNL     1       4.815   3.293  16.748  0.00  0.00    +0.000 HD
ATOM     19  H   UNL     1       2.838   4.132  17.766  0.00  0.00    +0.000 HD
ENDBRANCH   1  16
BRANCH  10  20
ATOM     20  C   UNL     1       0.500  12.988  18.813  0.00  0.00    +0.000 C 
ATOM     21  C   UNL     1       1.719  13.793  18.347  0.00  0.00    +0.000 C 
ATOM     22  C   UNL     1       2.519  14.338  19.527  0.00  0.00    +0.000 C 
ATOM     23  C   UNL     1       1.634  15.093  20.525  0.00  0.00    +0.000 C 
ATOM     24  N   UNL     1       0.500  14.276  20.985  0.00  0.00    +0.000 NA
ATOM     25  C   UNL     1      -0.308  13.791  19.847  0.00  0.00    +0.000 C 
BRANCH  24  26
ATOM     26  C   UNL     1      -0.364  15.013  21.925  0.00  0.00    +0.000 C 
BRANCH  26  27
ATOM     27  C   UNL     1      -1.403  14.155  22.602  0.00  0.00    +0.000 A 
ATOM     28  C   UNL     1      -1.156  12.801  22.881  0.00  0.00    +0.000 A 
ATOM     29  C   UNL     1      -2.154  12.002  23.447  0.00  0.00    +0.000 A 
ATOM     30  C   UNL     1      -3.398  12.557  23.733  0.00  0.00    +0.000 A 
ATOM     31  C   UNL     1      -3.655  13.898  23.485  0.00  0.00    +0.000 A 
ATOM     32  C   UNL     1      -2.660  14.685  22.917  0.00  0.00    +0.000 A 
ATOM     33  F   UNL     1      -2.921  15.976  22.668  0.00  0.00    +0.000 F 
BRANCH  30  34
ATOM     34  O   UNL     1      -4.406  11.804  24.258  0.00  0.00    +0.000 OA
ATOM     35  H   UNL     1      -4.177  10.865  24.158  0.00  0.00    +0.000 HD
ENDBRANCH  30  34
ENDBRANCH  26  27
ENDBRANCH  24  26
ENDBRANCH  10  20
BRANCH   5  36
ATOM     36  C   UNL     1       1.795   4.724  20.696  0.00  0.00    +0.000 C 
ATOM     37  N   UNL     1       0.717   3.965  20.327  0.00  0.00    +0.000 N 
ATOM     38  O   UNL     1       2.489   4.368  21.643  0.00  0.00    +0.000 OA
ATOM     39  H   UNL     1       0.419   3.976  19.360  0.00  0.00    +0.000 HD
ATOM     40  H   UNL     1       0.674   3.067  20.797  0.00  0.00    +0.000 HD
ENDBRANCH   5  36
TORSDOF 6
ENDMDL
MODEL 6
REMARK VINA RESULT:      -8.1      3.524      4.941
REMARK  Name = 
REMARK  6 active torsions:
REMARK  status: ('A' for Active; 'I' for Inactive)
REMARK    1  A    between atoms: N_4  and  C_5
REMARK    2  A    between atoms: C_9  and  C_10
REMARK    3  A    between atoms: N_17  and  C_18
REMARK    4  A    between atoms: N_22  and  C_23
REMARK    5  A    between atoms: C_23  and  C_24
REMARK    6  A    between atoms: C_27  and  O_28
REMARK                            x       y       z     vdW  Elec       q    Type
REMARK                         _______ _______ _______ _____ _____    ______ ____
ROOT
ATOM      1  C   UNL     1       3.162   5.051  19.130  0.00  0.00    +0.000 A 
ATOM      2  S   UNL     1       3.360   6.513  18.265  0.00  0.00    +0.000 S 
ATOM      3  C   UNL     1       2.277   7.315  19.273  0.00  0.00    +0.000 A 
ATOM      4  C   UNL     1       1.738   6.502  20.261  0.00  0.00    +0.000 A 
ATOM      5  C   UNL     1       2.221   5.138  20.149  0.00  0.00    +0.000 A 
ATOM      6  C   UNL     1       0.708   7.019  21.259  0.00  0.00    +0.000 C 
ATOM      7  C   UNL     1       0.823   8.535  21.542  0.00  0.00    +0.000 C 
ATOM      8  C   UNL     1       1.119   9.287  20.294  0.00  0.00    +0.000 A 
ATOM      9  N   UNL     1       0.792  10.561  20.076  0.00  0.00    +0.000 NA
ATOM     10  N   UNL     1       1.308  10.807  18.838  0.00  0.00    +0.000 N 
ATOM     11  C   UNL     1       1.985   9.731  18.313  0.00  0.00    +0.000 A 
ATOM     12  C   UNL     1       1.847   8.729  19.230  0.00  0.00    +0.000 A 
ENDROOT
BRANCH   1  16
ATOM     13  N   UNL     1       3.992   2.017  17.438  0.00  0.00    +0.000 N 
ATOM     14  C   UNL     1       3.155   2.993  17.896  0.00  0.00    +0.000 C 
ATOM     15  O   UNL     1       1.981   2.996  17.559  0.00  0.00    +0.000 OA
ATOM     16  N   UNL     1       3.826   3.928  18.653  0.00  0.00    +0.000 N 
ATOM     17  H   UNL     1       3.493   1.267  16.972  0.00  0.00    +0.000 HD
ATOM     18  H   UNL     1       4.732   1.708  18.052  0.00  0.00    +0.000 HD
ATOM     19  H   UNL     1       4.787   4.064  18.370  0.00  0.00    +0.000 HD
ENDBRANCH   1  16
BRANCH  10  20
ATOM     20  C   UNL     1       1.062  12.124  18.252  0.00  0.00    +0.000 C 
ATOM     21  C   UNL     1       2.160  13.132  18.610  0.00  0.00    +0.000 C 
ATOM     22  C   UNL     1       1.978  13.688  20.019  0.00  0.00    +0.000 C 
ATOM     23  C   UNL     1       0.560  14.223  20.251  0.00  0.00    +0.000 C 
ATOM     24  N   UNL     1      -0.466  13.216  19.941  0.00  0.00    +0.000 NA
ATOM     25  C   UNL     1      -0.326  12.714  18.557  0.00  0.00    +0.000 C 
BRANCH  24  26
ATOM     26  C   UNL     1      -1.830  13.740  20.139  0.00  0.00    +0.000 C 
BRANCH  26  27
ATOM     27  C   UNL     1      -2.345  13.590  21.548  0.00  0.00    +0.000 A 
ATOM     28  C   UNL     1      -2.507  12.322  22.130  0.00  0.00    +0.000 A 
ATOM     29  C   UNL     1      -3.049  12.196  23.412  0.00  0.00    +0.000 A 
ATOM     30  C   UNL     1      -3.427  13.338  24.113  0.00  0.00    +0.000 A 
ATOM     31  C   UNL     1      -3.254  14.601  23.565  0.00  0.00    +0.000 A 
ATOM     32  C   UNL     1      -2.720  14.718  22.287  0.00  0.00    +0.000 A 
ATOM     33  F   UNL     1      -2.569  15.941  21.760  0.00  0.00    +0.000 F 
BRANCH  30  34
ATOM     34  O   UNL     1      -3.985  13.255  25.354  0.00  0.00    +0.000 OA
ATOM     35  H   UNL     1      -4.662  13.947  25.438  0.00  0.00    +0.000 HD
ENDBRANCH  30  34
ENDBRANCH  26  27
ENDBRANCH  24  26
ENDBRANCH  10  20
BRANCH   5  36
ATOM     36  C   UNL     1       1.782   4.035  21.004  0.00  0.00    +0.000 C 
ATOM     37  N   UNL     1       0.716   3.298  20.561  0.00  0.00    +0.000 N 
ATOM     38  O   UNL     1       2.337   3.724  22.052  0.00  0.00    +0.000 OA
ATOM     39  H   UNL     1       0.538   3.247  19.566  0.00  0.00    +0.000 HD
ATOM     40  H   UNL     1       0.568   2.443  21.085  0.00  0.00    +0.000 HD
ENDBRANCH   5  36
TORSDOF 6
ENDMDL
MODEL 7
REMARK VINA RESULT:      -8.1      3.288      4.691
REMARK  Name = 
REMARK  6 active torsions:
REMARK  status: ('A' for Active; 'I' for Inactive)
REMARK    1  A    between atoms: N_4  and  C_5
REMARK    2  A    between atoms: C_9  and  C_10
REMARK    3  A    between atoms: N_17  and  C_18
REMARK    4  A    between atoms: N_22  and  C_23
REMARK    5  A    between atoms: C_23  and  C_24
REMARK    6  A    between atoms: C_27  and  O_28
REMARK                            x       y       z     vdW  Elec       q    Type
REMARK                         _______ _______ _______ _____ _____    ______ ____
ROOT
ATOM      1  C   UNL     1       3.096   5.451  19.033  0.00  0.00    +0.000 A 
ATOM      2  S   UNL     1       3.259   6.958  18.241  0.00  0.00    +0.000 S 
ATOM      3  C   UNL     1       2.154   7.682  19.285  0.00  0.00    +0.000 A 
ATOM      4  C   UNL     1       1.635   6.809  20.229  0.00  0.00    +0.000 A 
ATOM      5  C   UNL     1       2.152   5.465  20.052  0.00  0.00    +0.000 A 
ATOM      6  C   UNL     1       0.590   7.250  21.250  0.00  0.00    +0.000 C 
ATOM      7  C   UNL     1       0.667   8.753  21.608  0.00  0.00    +0.000 C 
ATOM      8  C   UNL     1       0.947   9.572  20.399  0.00  0.00    +0.000 A 
ATOM      9  N   UNL     1       0.589  10.848  20.243  0.00  0.00    +0.000 NA
ATOM     10  N   UNL     1       1.100  11.167  19.020  0.00  0.00    +0.000 N 
ATOM     11  C   UNL     1       1.804  10.135  18.445  0.00  0.00    +0.000 A 
ATOM     12  C   UNL     1       1.690   9.086  19.310  0.00  0.00    +0.000 A 
ENDROOT
BRANCH   1  16
ATOM     13  N   UNL     1       3.999   2.519  17.205  0.00  0.00    +0.000 N 
ATOM     14  C   UNL     1       3.138   3.449  17.710  0.00  0.00    +0.000 C 
ATOM     15  O   UNL     1       1.961   3.432  17.382  0.00  0.00    +0.000 OA
ATOM     16  N   UNL     1       3.788   4.369  18.503  0.00  0.00    +0.000 N 
ATOM     17  H   UNL     1       3.519   1.775  16.709  0.00  0.00    +0.000 HD
ATOM     18  H   UNL     1       4.753   2.205  17.799  0.00  0.00    +0.000 HD
ATOM     19  H   UNL     1       4.742   4.545  18.219  0.00  0.00    +0.000 HD
ENDBRANCH   1  16
BRANCH  10  20
ATOM     20  C   UNL     1       0.822  12.505  18.499  0.00  0.00    +0.000 C 
ATOM     21  C   UNL     1       2.090  13.204  17.993  0.00  0.00    +0.000 C 
ATOM     22  C   UNL     1       2.910  13.785  19.141  0.00  0.00    +0.000 C 
ATOM     23  C   UNL     1       2.063  14.658  20.073  0.00  0.00    +0.000 C 
ATOM     24  N   UNL     1       0.881  13.941  20.575  0.00  0.00    +0.000 NA
ATOM     25  C   UNL     1       0.054  13.424  19.465  0.00  0.00    +0.000 C 
BRANCH  24  26
ATOM     26  C   UNL     1       0.053  14.791  21.451  0.00  0.00    +0.000 C 
BRANCH  26  27
ATOM     27  C   UNL     1      -1.183  14.106  21.978  0.00  0.00    +0.000 A 
ATOM     28  C   UNL     1      -1.090  12.941  22.757  0.00  0.00    +0.000 A 
ATOM     29  C   UNL     1      -2.247  12.280  23.181  0.00  0.00    +0.000 A 
ATOM     30  C   UNL     1      -3.495  12.783  22.827  0.00  0.00    +0.000 A 
ATOM     31  C   UNL     1      -3.608  13.945  22.076  0.00  0.00    +0.000 A 
ATOM     32  C   UNL     1      -2.454  14.595  21.653  0.00  0.00    +0.000 A 
ATOM     33  F   UNL     1      -2.572  15.708  20.918  0.00  0.00    +0.000 F 
BRANCH  30  34
ATOM     34  O   UNL     1      -4.645  12.151  23.196  0.00  0.00    +0.000 OA
ATOM     35  H   UNL     1      -4.502  11.724  24.057  0.00  0.00    +0.000 HD
ENDBRANCH  30  34
ENDBRANCH  26  27
ENDBRANCH  24  26
ENDBRANCH  10  20
BRANCH   5  36
ATOM     36  C   UNL     1       1.738   4.310  20.850  0.00  0.00    +0.000 C 
ATOM     37  N   UNL     1       0.659   3.600  20.394  0.00  0.00    +0.000 N 
ATOM     38  O   UNL     1       2.324   3.936  21.860  0.00  0.00    +0.000 OA
ATOM     39  H   UNL     1       0.452   3.609  19.404  0.00  0.00    +0.000 HD
ATOM     40  H   UNL     1       0.528   2.713  20.870  0.00  0.00    +0.000 HD
ENDBRANCH   5  36
TORSDOF 6
ENDMDL
MODEL 8
REMARK VINA RESULT:      -8.0      3.264      4.648
REMARK  Name = 
REMARK  6 active torsions:
REMARK  status: ('A' for Active; 'I' for Inactive)
REMARK    1  A    between atoms: N_4  and  C_5
REMARK    2  A    between atoms: C_9  and  C_10
REMARK    3  A    between atoms: N_17  and  C_18
REMARK    4  A    between atoms: N_22  and  C_23
REMARK    5  A    between atoms: C_23  and  C_24
REMARK    6  A    between atoms: C_27  and  O_28
REMARK                            x       y       z     vdW  Elec       q    Type
REMARK                         _______ _______ _______ _____ _____    ______ ____
ROOT
ATOM      1  C   UNL     1       3.118   5.376  19.081  0.00  0.00    +0.000 A 
ATOM      2  S   UNL     1       3.273   6.872  18.267  0.00  0.00    +0.000 S 
ATOM      3  C   UNL     1       2.167   7.607  19.302  0.00  0.00    +0.000 A 
ATOM      4  C   UNL     1       1.652   6.745  20.260  0.00  0.00    +0.000 A 
ATOM      5  C   UNL     1       2.174   5.401  20.101  0.00  0.00    +0.000 A 
ATOM      6  C   UNL     1       0.607   7.198  21.275  0.00  0.00    +0.000 C 
ATOM      7  C   UNL     1       0.679   8.706  21.610  0.00  0.00    +0.000 C 
ATOM      8  C   UNL     1       0.954   9.508  20.389  0.00  0.00    +0.000 A 
ATOM      9  N   UNL     1       0.590  10.780  20.215  0.00  0.00    +0.000 NA
ATOM     10  N   UNL     1       1.099  11.083  18.987  0.00  0.00    +0.000 N 
ATOM     11  C   UNL     1       1.807  10.046  18.426  0.00  0.00    +0.000 A 
ATOM     12  C   UNL     1       1.697   9.009  19.307  0.00  0.00    +0.000 A 
ENDROOT
BRANCH   1  16
ATOM     13  N   UNL     1       4.075   2.494  17.202  0.00  0.00    +0.000 N 
ATOM     14  C   UNL     1       3.207   3.439  17.668  0.00  0.00    +0.000 C 
ATOM     15  O   UNL     1       2.070   3.492  17.226  0.00  0.00    +0.000 OA
ATOM     16  N   UNL     1       3.813   4.289  18.566  0.00  0.00    +0.000 N 
ATOM     17  H   UNL     1       3.616   1.797  16.624  0.00  0.00    +0.000 HD
ATOM     18  H   UNL     1       4.752   2.118  17.850  0.00  0.00    +0.000 HD
ATOM     19  H   UNL     1       4.797   4.434  18.386  0.00  0.00    +0.000 HD
ENDBRANCH   1  16
BRANCH  10  20
ATOM     20  C   UNL     1       0.815  12.412  18.447  0.00  0.00    +0.000 C 
ATOM     21  C   UNL     1       2.094  13.166  18.062  0.00  0.00    +0.000 C 
ATOM     22  C   UNL     1       2.781  13.772  19.282  0.00  0.00    +0.000 C 
ATOM     23  C   UNL     1       1.817  14.603  20.135  0.00  0.00    +0.000 C 
ATOM     24  N   UNL     1       0.623  13.836  20.524  0.00  0.00    +0.000 NA
ATOM     25  C   UNL     1      -0.075  13.293  19.340  0.00  0.00    +0.000 C 
BRANCH  24  26
ATOM     26  C   UNL     1      -0.316  14.645  21.322  0.00  0.00    +0.000 C 
BRANCH  26  27
ATOM     27  C   UNL     1      -1.648  13.980  21.560  0.00  0.00    +0.000 A 
ATOM     28  C   UNL     1      -2.815  14.449  20.935  0.00  0.00    +0.000 A 
ATOM     29  C   UNL     1      -4.053  13.864  21.218  0.00  0.00    +0.000 A 
ATOM     30  C   UNL     1      -4.123  12.810  22.124  0.00  0.00    +0.000 A 
ATOM     31  C   UNL     1      -2.979  12.317  22.734  0.00  0.00    +0.000 A 
ATOM     32  C   UNL     1      -1.752  12.907  22.453  0.00  0.00    +0.000 A 
ATOM     33  F   UNL     1      -0.654  12.433  23.058  0.00  0.00    +0.000 F 
BRANCH  30  34
ATOM     34  O   UNL     1      -5.315  12.232  22.448  0.00  0.00    +0.000 OA
ATOM     35  H   UNL     1      -5.177  11.637  23.203  0.00  0.00    +0.000 HD
ENDBRANCH  30  34
ENDBRANCH  26  27
ENDBRANCH  24  26
ENDBRANCH  10  20
BRANCH   5  36
ATOM     36  C   UNL     1       1.767   4.256  20.917  0.00  0.00    +0.000 C 
ATOM     37  N   UNL     1       0.675   3.550  20.487  0.00  0.00    +0.000 N 
ATOM     38  O   UNL     1       2.368   3.888  21.920  0.00  0.00    +0.000 OA
ATOM     39  H   UNL     1       0.450   3.553  19.500  0.00  0.00    +0.000 HD
ATOM     40  H   UNL     1       0.545   2.669  20.972  0.00  0.00    +0.000 HD
ENDBRANCH   5  36
TORSDOF 6
ENDMDL
MODEL 9
REMARK VINA RESULT:      -8.0      3.479      4.752
REMARK  Name = 
REMARK  6 active torsions:
REMARK  status: ('A' for Active; 'I' for Inactive)
REMARK    1  A    between atoms: N_4  and  C_5
REMARK    2  A    between atoms: C_9  and  C_10
REMARK    3  A    between atoms: N_17  and  C_18
REMARK    4  A    between atoms: N_22  and  C_23
REMARK    5  A    between atoms: C_23  and  C_24
REMARK    6  A    between atoms: C_27  and  O_28
REMARK                            x       y       z     vdW  Elec       q    Type
REMARK                         _______ _______ _______ _____ _____    ______ ____
ROOT
ATOM      1  C   UNL     1       2.932   5.984  18.837  0.00  0.00    +0.000 A 
ATOM      2  S   UNL     1       2.960   7.519  18.084  0.00  0.00    +0.000 S 
ATOM      3  C   UNL     1       1.947   8.171  19.259  0.00  0.00    +0.000 A 
ATOM      4  C   UNL     1       1.558   7.251  20.222  0.00  0.00    +0.000 A 
ATOM      5  C   UNL     1       2.099   5.933  19.948  0.00  0.00    +0.000 A 
ATOM      6  C   UNL     1       0.611   7.623  21.359  0.00  0.00    +0.000 C 
ATOM      7  C   UNL     1       0.675   9.116  21.757  0.00  0.00    +0.000 C 
ATOM      8  C   UNL     1       0.799   9.981  20.554  0.00  0.00    +0.000 A 
ATOM      9  N   UNL     1       0.384  11.246  20.479  0.00  0.00    +0.000 NA
ATOM     10  N   UNL     1       0.754  11.620  19.221  0.00  0.00    +0.000 N 
ATOM     11  C   UNL     1       1.429  10.633  18.542  0.00  0.00    +0.000 A 
ATOM     12  C   UNL     1       1.440   9.555  19.379  0.00  0.00    +0.000 A 
ENDROOT
BRANCH   1  16
ATOM     13  N   UNL     1       5.349   3.533  17.889  0.00  0.00    +0.000 N 
ATOM     14  C   UNL     1       4.898   4.640  18.547  0.00  0.00    +0.000 C 
ATOM     15  O   UNL     1       5.606   5.184  19.381  0.00  0.00    +0.000 OA
ATOM     16  N   UNL     1       3.600   4.945  18.202  0.00  0.00    +0.000 N 
ATOM     17  H   UNL     1       6.337   3.361  18.051  0.00  0.00    +0.000 HD
ATOM     18  H   UNL     1       5.055   3.404  16.931  0.00  0.00    +0.000 HD
ATOM     19  H   UNL     1       3.043   4.135  17.965  0.00  0.00    +0.000 HD
ENDBRANCH   1  16
BRANCH  10  20
ATOM     20  C   UNL     1       0.379  12.962  18.777  0.00  0.00    +0.000 C 
ATOM     21  C   UNL     1       1.597  13.800  18.371  0.00  0.00    +0.000 C 
ATOM     22  C   UNL     1       2.321  14.369  19.587  0.00  0.00    +0.000 C 
ATOM     23  C   UNL     1       1.367  15.101  20.538  0.00  0.00    +0.000 C 
ATOM     24  N   UNL     1       0.235  14.254  20.942  0.00  0.00    +0.000 NA
ATOM     25  C   UNL     1      -0.502  13.744  19.767  0.00  0.00    +0.000 C 
BRANCH  24  26
ATOM     26  C   UNL     1      -0.696  14.968  21.836  0.00  0.00    +0.000 C 
BRANCH  26  27
ATOM     27  C   UNL     1      -1.986  14.230  22.091  0.00  0.00    +0.000 A 
ATOM     28  C   UNL     1      -3.215  14.740  21.641  0.00  0.00    +0.000 A 
ATOM     29  C   UNL     1      -4.409  14.079  21.945  0.00  0.00    +0.000 A 
ATOM     30  C   UNL     1      -4.374  12.908  22.697  0.00  0.00    +0.000 A 
ATOM     31  C   UNL     1      -3.168  12.377  23.132  0.00  0.00    +0.000 A 
ATOM     32  C   UNL     1      -1.985  13.042  22.832  0.00  0.00    +0.000 A 
ATOM     33  F   UNL     1      -0.827  12.528  23.267  0.00  0.00    +0.000 F 
BRANCH  30  34
ATOM     34  O   UNL     1      -5.518  12.250  23.038  0.00  0.00    +0.000 OA
ATOM     35  H   UNL     1      -5.380  11.297  22.906  0.00  0.00    +0.000 HD
ENDBRANCH  30  34
ENDBRANCH  26  27
ENDBRANCH  24  26
ENDBRANCH  10  20
BRANCH   5  36
ATOM     36  C   UNL     1       1.810   4.740  20.745  0.00  0.00    +0.000 C 
ATOM     37  N   UNL     1       0.704   4.014  20.390  0.00  0.00    +0.000 N 
ATOM     38  O   UNL     1       2.518   4.350  21.667  0.00  0.00    +0.000 OA
ATOM     39  H   UNL     1       0.383   4.051  19.431  0.00  0.00    +0.000 HD
ATOM     40  H   UNL     1       0.650   3.109  20.844  0.00  0.00    +0.000 HD
ENDBRANCH   5  36
TORSDOF 6
ENDMDL
