MODEL 1
REMARK VINA RESULT:      -8.7      0.000      0.000
REMARK  Name = 
REMARK  5 active torsions:
REMARK  status: ('A' for Active; 'I' for Inactive)
REMARK    1  A    between atoms: C_2  and  C_3
REMARK    2  A    between atoms: C_12  and  C_14
REMARK    3  A    between atoms: C_14  and  C_15
REMARK    4  A    between atoms: C_15  and  C_16
REMARK    5  A    between atoms: C_16  and  C_17
REMARK                            x       y       z     vdW  Elec       q    Type
REMARK                         _______ _______ _______ _____ _____    ______ ____
ROOT
ATOM      1  C   UNL     1       5.376   4.485  17.771  0.00  0.00    +0.000 C 
ATOM      2  C   UNL     1       4.906   3.735  16.509  0.00  0.00    +0.000 C 
ATOM      3  C   UNL     1       4.938   4.841  15.441  0.00  0.00    +0.000 C 
ATOM      4  C   UNL     1       4.836   4.372  13.995  0.00  0.00    +0.000 C 
ATOM      5  C   UNL     1       6.113   3.744  13.453  0.00  0.00    +0.000 C 
ATOM      6  C   UNL     1       7.327   4.624  13.718  0.00  0.00    +0.000 C 
ATOM      7  C   UNL     1       7.482   4.902  15.206  0.00  0.00    +0.000 C 
ATOM      8  C   UNL     1       6.232   5.587  15.790  0.00  0.00    +0.000 C 
ATOM      9  N   UNL     1       6.255   5.547  17.252  0.00  0.00    +0.000 N 
ATOM     10  C   UNL     1       7.034   6.292  18.108  0.00  0.00    +0.000 C 
ATOM     11  O   UNL     1       7.022   6.092  19.324  0.00  0.00    +0.000 OA
ENDROOT
BRANCH   1  13
ATOM     12  O   UNL     1       3.626   6.114  18.230  0.00  0.00    +0.000 OA
ATOM     13  C   UNL     1       4.106   5.007  18.491  0.00  0.00    +0.000 C 
ATOM     14  N   UNL     1       3.435   4.094  19.291  0.00  0.00    +0.000 N 
ATOM     15  C   UNL     1       2.114   4.380  19.819  0.00  0.00    +0.000 C 
ATOM     16  C   UNL     1       2.128   3.759  21.203  0.00  0.00    +0.000 C 
ATOM     17  C   UNL     1       3.009   2.530  21.018  0.00  0.00    +0.000 C 
ATOM     18  C   UNL     1       4.048   2.977  19.994  0.00  0.00    +0.000 C 
ENDBRANCH   1  13
BRANCH  10  19
ATOM     19  C   UNL     1       7.937   7.366  17.514  0.00  0.00    +0.000 C 
BRANCH  19  20
ATOM     20  C   UNL     1       8.341   8.400  18.560  0.00  0.00    +0.000 C 
BRANCH  20  21
ATOM     21  C   UNL     1       8.387   9.811  17.960  0.00  0.00    +0.000 C 
BRANCH  21  22
ATOM     22  C   UNL     1       9.415  10.669  18.652  0.00  0.00    +0.000 A 
ATOM     23  C   UNL     1      10.457  11.255  17.921  0.00  0.00    +0.000 A 
ATOM     24  C   UNL     1      11.449  11.992  18.568  0.00  0.00    +0.000 A 
ATOM     25  C   UNL     1      11.411  12.150  19.952  0.00  0.00    +0.000 A 
ATOM     26  C   UNL     1      10.374  11.581  20.689  0.00  0.00    +0.000 A 
ATOM     27  C   UNL     1       9.379  10.844  20.043  0.00  0.00    +0.000 A 
ENDBRANCH  21  22
ENDBRANCH  20  21
ENDBRANCH  19  20
ENDBRANCH  10  19
TORSDOF 5
ENDMDL
MODEL 2
REMARK VINA RESULT:      -8.5      0.634      1.115
REMARK  Name = 
REMARK  5 active torsions:
REMARK  status: ('A' for Active; 'I' for Inactive)
REMARK    1  A    between atoms: C_2  and  C_3
REMARK    2  A    between atoms: C_12  and  C_14
REMARK    3  A    between atoms: C_14  and  C_15
REMARK    4  A    between atoms: C_15  and  C_16
REMARK    5  A    between atoms: C_16  and  C_17
REMARK                            x       y       z     vdW  Elec       q    Type
REMARK                         _______ _______ _______ _____ _____    ______ ____
ROOT
ATOM      1  C   UNL     1       5.372   4.348  18.301  0.00  0.00    +0.000 C 
ATOM      2  C   UNL     1       4.837   3.777  16.973  0.00  0.00    +0.000 C 
ATOM      3  C   UNL     1       4.972   4.978  16.023  0.00  0.00    +0.000 C 
ATOM      4  C   UNL     1       4.830   4.669  14.537  0.00  0.00    +0.000 C 
ATOM      5  C   UNL     1       6.044   3.984  13.924  0.00  0.00    +0.000 C 
ATOM      6  C   UNL     1       7.334   4.717  14.267  0.00  0.00    +0.000 C 
ATOM      7  C   UNL     1       7.511   4.826  15.775  0.00  0.00    +0.000 C 
ATOM      8  C   UNL     1       6.329   5.561  16.435  0.00  0.00    +0.000 C 
ATOM      9  N   UNL     1       6.347   5.371  17.885  0.00  0.00    +0.000 N 
ATOM     10  C   UNL     1       7.190   5.951  18.805  0.00  0.00    +0.000 C 
ATOM     11  O   UNL     1       7.158   5.630  19.996  0.00  0.00    +0.000 OA
ENDROOT
BRANCH   1  13
ATOM     12  O   UNL     1       3.788   6.081  18.947  0.00  0.00    +0.000 OA
ATOM     13  C   UNL     1       4.155   4.909  19.079  0.00  0.00    +0.000 C 
ATOM     14  N   UNL     1       3.391   3.984  19.776  0.00  0.00    +0.000 N 
ATOM     15  C   UNL     1       2.101   4.339  20.337  0.00  0.00    +0.000 C 
ATOM     16  C   UNL     1       2.044   3.568  21.643  0.00  0.00    +0.000 C 
ATOM     17  C   UNL     1       2.800   2.286  21.318  0.00  0.00    +0.000 C 
ATOM     18  C   UNL     1       3.886   2.740  20.346  0.00  0.00    +0.000 C 
ENDBRANCH   1  13
BRANCH  10  19
ATOM     19  C   UNL     1       8.190   6.991  18.316  0.00  0.00    +0.000 C 
BRANCH  19  20
ATOM     20  C   UNL     1       7.578   8.388  18.292  0.00  0.00    +0.000 C 
BRANCH  20  21
ATOM     21  C   UNL     1       8.450   9.364  17.492  0.00  0.00    +0.000 C 
BRANCH  21  22
ATOM     22  C   UNL     1       9.251  10.258  18.405  0.00  0.00    +0.000 A 
ATOM     23  C   UNL     1       9.039  10.228  19.789  0.00  0.00    +0.000 A 
ATOM     24  C   UNL     1       9.729  11.103  20.630  0.00  0.00    +0.000 A 
ATOM     25  C   UNL     1      10.636  12.016  20.095  0.00  0.00    +0.000 A 
ATOM     26  C   UNL     1      10.863  12.048  18.721  0.00  0.00    +0.000 A 
ATOM     27  C   UNL     1      10.175  11.173  17.877  0.00  0.00    +0.000 A 
ENDBRANCH  21  22
ENDBRANCH  20  21
ENDBRANCH  19  20
ENDBRANCH  10  19
TORSDOF 5
ENDMDL
MODEL 3
REMARK VINA RESULT:      -8.4      4.280      7.973
REMARK  Name = 
REMARK  5 active torsions:
REMARK  status: ('A' for Active; 'I' for Inactive)
REMARK    1  A    between atoms: C_2  and  C_3
REMARK    2  A    between atoms: C_12  and  C_14
REMARK    3  A    between atoms: C_14  and  C_15
REMARK    4  A    between atoms: C_15  and  C_16
REMARK    5  A    between atoms: C_16  and  C_17
REMARK                            x       y       z     vdW  Elec       q    Type
REMARK                         _______ _______ _______ _____ _____    ______ ____
ROOT
ATOM      1  C   UNL     1       3.716   5.016  17.488  0.00  0.00    +0.000 C 
ATOM      2  C   UNL     1       3.667   3.592  18.078  0.00  0.00    +0.000 C 
ATOM      3  C   UNL     1       3.721   3.863  19.590  0.00  0.00    +0.000 C 
ATOM      4  C   UNL     1       3.368   2.684  20.490  0.00  0.00    +0.000 C 
ATOM      5  C   UNL     1       1.880   2.369  20.548  0.00  0.00    +0.000 C 
ATOM      6  C   UNL     1       1.054   3.616  20.836  0.00  0.00    +0.000 C 
ATOM      7  C   UNL     1       1.312   4.691  19.791  0.00  0.00    +0.000 C 
ATOM      8  C   UNL     1       2.801   5.082  19.731  0.00  0.00    +0.000 C 
ATOM      9  N   UNL     1       3.085   5.855  18.522  0.00  0.00    +0.000 N 
ATOM     10  C   UNL     1       2.755   7.165  18.257  0.00  0.00    +0.000 C 
ATOM     11  O   UNL     1       2.974   7.669  17.153  0.00  0.00    +0.000 OA
ENDROOT
BRANCH   1  13
ATOM     12  O   UNL     1       5.881   5.984  18.040  0.00  0.00    +0.000 OA
ATOM     13  C   UNL     1       5.207   5.349  17.223  0.00  0.00    +0.000 C 
ATOM     14  N   UNL     1       5.787   4.735  16.123  0.00  0.00    +0.000 N 
ATOM     15  C   UNL     1       7.222   4.769  15.908  0.00  0.00    +0.000 C 
ATOM     16  C   UNL     1       7.365   4.891  14.402  0.00  0.00    +0.000 C 
ATOM     17  C   UNL     1       6.181   4.087  13.879  0.00  0.00    +0.000 C 
ATOM     18  C   UNL     1       5.085   4.338  14.911  0.00  0.00    +0.000 C 
ENDBRANCH   1  13
BRANCH  10  19
ATOM     19  C   UNL     1       2.089   7.980  19.358  0.00  0.00    +0.000 C 
BRANCH  19  20
ATOM     20  C   UNL     1       1.499   9.278  18.815  0.00  0.00    +0.000 C 
BRANCH  20  21
ATOM     21  C   UNL     1       0.399   9.817  19.738  0.00  0.00    +0.000 C 
BRANCH  21  22
ATOM     22  C   UNL     1      -0.762  10.365  18.945  0.00  0.00    +0.000 A 
ATOM     23  C   UNL     1      -1.588  11.355  19.492  0.00  0.00    +0.000 A 
ATOM     24  C   UNL     1      -2.703  11.814  18.790  0.00  0.00    +0.000 A 
ATOM     25  C   UNL     1      -3.003  11.288  17.535  0.00  0.00    +0.000 A 
ATOM     26  C   UNL     1      -2.182  10.310  16.976  0.00  0.00    +0.000 A 
ATOM     27  C   UNL     1      -1.065   9.850  17.677  0.00  0.00    +0.000 A 
ENDBRANCH  21  22
ENDBRANCH  20  21
ENDBRANCH  19  20
ENDBRANCH  10  19
TORSDOF 5
ENDMDL
MODEL 4
REMARK VINA RESULT:      -8.3      4.291      7.574
REMARK  Name = 
REMARK  5 active torsions:
REMARK  status: ('A' for Active; 'I' for Inactive)
REMARK    1  A    between atoms: C_2  and  C_3
REMARK    2  A    between atoms: C_12  and  C_14
REMARK    3  A    between atoms: C_14  and  C_15
REMARK    4  A    between atoms: C_15  and  C_16
REMARK    5  A    between atoms: C_16  and  C_17
REMARK                            x       y       z     vdW  Elec       q    Type
REMARK                         _______ _______ _______ _____ _____    ______ ____
ROOT
ATOM      1  C   UNL     1       3.704   4.980  17.551  0.00  0.00    +0.000 C 
ATOM      2  C   UNL     1       3.654   3.553  18.132  0.00  0.00    +0.000 C 
ATOM      3  C   UNL     1       3.723   3.814  19.645  0.00  0.00    +0.000 C 
ATOM      4  C   UNL     1       3.374   2.631  20.540  0.00  0.00    +0.000 C 
ATOM      5  C   UNL     1       1.885   2.321  20.611  0.00  0.00    +0.000 C 
ATOM      6  C   UNL     1       1.067   3.570  20.914  0.00  0.00    +0.000 C 
ATOM      7  C   UNL     1       1.320   4.650  19.873  0.00  0.00    +0.000 C 
ATOM      8  C   UNL     1       2.809   5.036  19.802  0.00  0.00    +0.000 C 
ATOM      9  N   UNL     1       3.085   5.815  18.595  0.00  0.00    +0.000 N 
ATOM     10  C   UNL     1       2.759   7.128  18.342  0.00  0.00    +0.000 C 
ATOM     11  O   UNL     1       2.969   7.639  17.240  0.00  0.00    +0.000 OA
ENDROOT
BRANCH   1  13
ATOM     12  O   UNL     1       5.879   5.932  18.090  0.00  0.00    +0.000 OA
ATOM     13  C   UNL     1       5.193   5.308  17.274  0.00  0.00    +0.000 C 
ATOM     14  N   UNL     1       5.760   4.703  16.162  0.00  0.00    +0.000 N 
ATOM     15  C   UNL     1       7.192   4.732  15.933  0.00  0.00    +0.000 C 
ATOM     16  C   UNL     1       7.321   4.868  14.427  0.00  0.00    +0.000 C 
ATOM     17  C   UNL     1       6.128   4.075  13.908  0.00  0.00    +0.000 C 
ATOM     18  C   UNL     1       5.044   4.321  14.954  0.00  0.00    +0.000 C 
ENDBRANCH   1  13
BRANCH  10  19
ATOM     19  C   UNL     1       2.106   7.939  19.454  0.00  0.00    +0.000 C 
BRANCH  19  20
ATOM     20  C   UNL     1       1.701   9.328  18.971  0.00  0.00    +0.000 C 
BRANCH  20  21
ATOM     21  C   UNL     1       0.195   9.560  19.143  0.00  0.00    +0.000 C 
BRANCH  21  22
ATOM     22  C   UNL     1      -0.141   9.964  20.556  0.00  0.00    +0.000 A 
ATOM     23  C   UNL     1      -0.176   9.005  21.577  0.00  0.00    +0.000 A 
ATOM     24  C   UNL     1      -0.554   9.363  22.872  0.00  0.00    +0.000 A 
ATOM     25  C   UNL     1      -0.901  10.682  23.158  0.00  0.00    +0.000 A 
ATOM     26  C   UNL     1      -0.859  11.646  22.154  0.00  0.00    +0.000 A 
ATOM     27  C   UNL     1      -0.480  11.291  20.857  0.00  0.00    +0.000 A 
ENDBRANCH  21  22
ENDBRANCH  20  21
ENDBRANCH  19  20
ENDBRANCH  10  19
TORSDOF 5
ENDMDL
MODEL 5
REMARK VINA RESULT:      -8.3      6.474     10.453
REMARK  Name = 
REMARK  5 active torsions:
REMARK  status: ('A' for Active; 'I' for Inactive)
REMARK    1  A    between atoms: C_2  and  C_3
REMARK    2  A    between atoms: C_12  and  C_14
REMARK    3  A    between atoms: C_14  and  C_15
REMARK    4  A    between atoms: C_15  and  C_16
REMARK    5  A    between atoms: C_16  and  C_17
REMARK                            x       y       z     vdW  Elec       q    Type
REMARK                         _______ _______ _______ _____ _____    ______ ____
ROOT
ATOM      1  C   UNL     1       1.428  12.369  19.934  0.00  0.00    +0.000 C 
ATOM      2  C   UNL     1       0.687  12.556  21.273  0.00  0.00    +0.000 C 
ATOM      3  C   UNL     1      -0.589  11.726  21.059  0.00  0.00    +0.000 C 
ATOM      4  C   UNL     1      -1.407  11.429  22.310  0.00  0.00    +0.000 C 
ATOM      5  C   UNL     1      -0.803  10.359  23.209  0.00  0.00    +0.000 C 
ATOM      6  C   UNL     1      -0.429   9.110  22.421  0.00  0.00    +0.000 C 
ATOM      7  C   UNL     1       0.540   9.447  21.298  0.00  0.00    +0.000 C 
ATOM      8  C   UNL     1      -0.049  10.490  20.330  0.00  0.00    +0.000 C 
ATOM      9  N   UNL     1       0.994  11.042  19.466  0.00  0.00    +0.000 N 
ATOM     10  C   UNL     1       1.616  10.437  18.397  0.00  0.00    +0.000 C 
ATOM     11  O   UNL     1       2.552  10.983  17.808  0.00  0.00    +0.000 OA
ENDROOT
BRANCH   1  13
ATOM     12  O   UNL     1      -0.042  13.497  18.354  0.00  0.00    +0.000 OA
ATOM     13  C   UNL     1       1.003  13.539  19.011  0.00  0.00    +0.000 C 
ATOM     14  N   UNL     1       1.751  14.703  19.110  0.00  0.00    +0.000 N 
ATOM     15  C   UNL     1       1.313  15.938  18.487  0.00  0.00    +0.000 C 
ATOM     16  C   UNL     1       2.599  16.584  18.005  0.00  0.00    +0.000 C 
ATOM     17  C   UNL     1       3.609  16.173  19.070  0.00  0.00    +0.000 C 
ATOM     18  C   UNL     1       3.157  14.773  19.479  0.00  0.00    +0.000 C 
ENDBRANCH   1  13
BRANCH  10  19
ATOM     19  C   UNL     1       1.137   9.057  17.966  0.00  0.00    +0.000 C 
BRANCH  19  20
ATOM     20  C   UNL     1       2.289   8.060  17.896  0.00  0.00    +0.000 C 
BRANCH  20  21
ATOM     21  C   UNL     1       2.540   7.402  19.259  0.00  0.00    +0.000 C 
BRANCH  21  22
ATOM     22  C   UNL     1       2.116   5.955  19.257  0.00  0.00    +0.000 A 
ATOM     23  C   UNL     1       2.075   5.232  18.059  0.00  0.00    +0.000 A 
ATOM     24  C   UNL     1       1.618   3.913  18.043  0.00  0.00    +0.000 A 
ATOM     25  C   UNL     1       1.195   3.307  19.224  0.00  0.00    +0.000 A 
ATOM     26  C   UNL     1       1.241   4.013  20.424  0.00  0.00    +0.000 A 
ATOM     27  C   UNL     1       1.700   5.332  20.442  0.00  0.00    +0.000 A 
ENDBRANCH  21  22
ENDBRANCH  20  21
ENDBRANCH  19  20
ENDBRANCH  10  19
TORSDOF 5
ENDMDL
MODEL 6
REMARK VINA RESULT:      -8.1      4.072      6.629
REMARK  Name = 
REMARK  5 active torsions:
REMARK  status: ('A' for Active; 'I' for Inactive)
REMARK    1  A    between atoms: C_2  and  C_3
REMARK    2  A    between atoms: C_12  and  C_14
REMARK    3  A    between atoms: C_14  and  C_15
REMARK    4  A    between atoms: C_15  and  C_16
REMARK    5  A    between atoms: C_16  and  C_17
REMARK                            x       y       z     vdW  Elec       q    Type
REMARK                         _______ _______ _______ _____ _____    ______ ____
ROOT
ATOM      1  C   UNL     1       3.470   6.009  19.155  0.00  0.00    +0.000 C 
ATOM      2  C   UNL     1       2.170   5.192  19.301  0.00  0.00    +0.000 C 
ATOM      3  C   UNL     1       2.262   4.219  18.114  0.00  0.00    +0.000 C 
ATOM      4  C   UNL     1       1.289   3.046  18.140  0.00  0.00    +0.000 C 
ATOM      5  C   UNL     1       1.660   1.951  19.131  0.00  0.00    +0.000 C 
ATOM      6  C   UNL     1       3.114   1.525  18.977  0.00  0.00    +0.000 C 
ATOM      7  C   UNL     1       4.048   2.714  19.149  0.00  0.00    +0.000 C 
ATOM      8  C   UNL     1       3.745   3.829  18.131  0.00  0.00    +0.000 C 
ATOM      9  N   UNL     1       4.411   5.074  18.513  0.00  0.00    +0.000 N 
ATOM     10  C   UNL     1       5.749   5.383  18.416  0.00  0.00    +0.000 C 
ATOM     11  O   UNL     1       6.196   6.441  18.864  0.00  0.00    +0.000 OA
ENDROOT
BRANCH   1  13
ATOM     12  O   UNL     1       3.633   7.430  17.185  0.00  0.00    +0.000 OA
ATOM     13  C   UNL     1       3.131   7.256  18.300  0.00  0.00    +0.000 C 
ATOM     14  N   UNL     1       2.099   8.058  18.765  0.00  0.00    +0.000 N 
ATOM     15  C   UNL     1       1.527   9.106  17.941  0.00  0.00    +0.000 C 
ATOM     16  C   UNL     1       1.222  10.221  18.925  0.00  0.00    +0.000 C 
ATOM     17  C   UNL     1       0.835   9.465  20.190  0.00  0.00    +0.000 C 
ATOM     18  C   UNL     1       1.726   8.226  20.161  0.00  0.00    +0.000 C 
ENDBRANCH   1  13
BRANCH  10  19
ATOM     19  C   UNL     1       6.679   4.372  17.758  0.00  0.00    +0.000 C 
BRANCH  19  20
ATOM     20  C   UNL     1       7.196   4.878  16.415  0.00  0.00    +0.000 C 
BRANCH  20  21
ATOM     21  C   UNL     1       6.041   5.250  15.478  0.00  0.00    +0.000 C 
BRANCH  21  22
ATOM     22  C   UNL     1       6.251   4.685  14.095  0.00  0.00    +0.000 A 
ATOM     23  C   UNL     1       5.348   3.755  13.565  0.00  0.00    +0.000 A 
ATOM     24  C   UNL     1       5.577   3.179  12.315  0.00  0.00    +0.000 A 
ATOM     25  C   UNL     1       6.711   3.525  11.584  0.00  0.00    +0.000 A 
ATOM     26  C   UNL     1       7.612   4.456  12.096  0.00  0.00    +0.000 A 
ATOM     27  C   UNL     1       7.384   5.035  13.346  0.00  0.00    +0.000 A 
ENDBRANCH  21  22
ENDBRANCH  20  21
ENDBRANCH  19  20
ENDBRANCH  10  19
TORSDOF 5
ENDMDL
MODEL 7
REMARK VINA RESULT:      -8.1      4.241      7.579
REMARK  Name = 
REMARK  5 active torsions:
REMARK  status: ('A' for Active; 'I' for Inactive)
REMARK    1  A    between atoms: C_2  and  C_3
REMARK    2  A    between atoms: C_12  and  C_14
REMARK    3  A    between atoms: C_14  and  C_15
REMARK    4  A    between atoms: C_15  and  C_16
REMARK    5  A    between atoms: C_16  and  C_17
REMARK                            x       y       z     vdW  Elec       q    Type
REMARK                         _______ _______ _______ _____ _____    ______ ____
ROOT
ATOM      1  C   UNL     1       3.618   5.162  17.539  0.00  0.00    +0.000 C 
ATOM      2  C   UNL     1       3.605   3.702  18.033  0.00  0.00    +0.000 C 
ATOM      3  C   UNL     1       3.727   3.871  19.556  0.00  0.00    +0.000 C 
ATOM      4  C   UNL     1       3.424   2.631  20.389  0.00  0.00    +0.000 C 
ATOM      5  C   UNL     1       1.942   2.299  20.495  0.00  0.00    +0.000 C 
ATOM      6  C   UNL     1       1.123   3.516  20.904  0.00  0.00    +0.000 C 
ATOM      7  C   UNL     1       1.325   4.661  19.923  0.00  0.00    +0.000 C 
ATOM      8  C   UNL     1       2.807   5.069  19.821  0.00  0.00    +0.000 C 
ATOM      9  N   UNL     1       3.030   5.924  18.655  0.00  0.00    +0.000 N 
ATOM     10  C   UNL     1       2.680   7.245  18.495  0.00  0.00    +0.000 C 
ATOM     11  O   UNL     1       2.844   7.825  17.419  0.00  0.00    +0.000 OA
ENDROOT
BRANCH   1  13
ATOM     12  O   UNL     1       5.753   6.243  17.987  0.00  0.00    +0.000 OA
ATOM     13  C   UNL     1       5.092   5.526  17.229  0.00  0.00    +0.000 C 
ATOM     14  N   UNL     1       5.681   4.852  16.169  0.00  0.00    +0.000 N 
ATOM     15  C   UNL     1       7.111   4.920  15.932  0.00  0.00    +0.000 C 
ATOM     16  C   UNL     1       7.232   4.934  14.419  0.00  0.00    +0.000 C 
ATOM     17  C   UNL     1       6.072   4.053  13.974  0.00  0.00    +0.000 C 
ATOM     18  C   UNL     1       4.980   4.342  15.000  0.00  0.00    +0.000 C 
ENDBRANCH   1  13
BRANCH  10  19
ATOM     19  C   UNL     1       2.061   7.979  19.677  0.00  0.00    +0.000 C 
BRANCH  19  20
ATOM     20  C   UNL     1       0.969   8.945  19.229  0.00  0.00    +0.000 C 
BRANCH  20  21
ATOM     21  C   UNL     1       1.179  10.340  19.830  0.00  0.00    +0.000 C 
BRANCH  21  22
ATOM     22  C   UNL     1       0.222  10.598  20.967  0.00  0.00    +0.000 A 
ATOM     23  C   UNL     1      -0.624  11.713  20.940  0.00  0.00    +0.000 A 
ATOM     24  C   UNL     1      -1.462  11.993  22.021  0.00  0.00    +0.000 A 
ATOM     25  C   UNL     1      -1.460  11.161  23.139  0.00  0.00    +0.000 A 
ATOM     26  C   UNL     1      -0.630  10.042  23.172  0.00  0.00    +0.000 A 
ATOM     27  C   UNL     1       0.207   9.760  22.091  0.00  0.00    +0.000 A 
ENDBRANCH  21  22
ENDBRANCH  20  21
ENDBRANCH  19  20
ENDBRANCH  10  19
TORSDOF 5
ENDMDL
MODEL 8
REMARK VINA RESULT:      -8.1      4.287      7.855
REMARK  Name = 
REMARK  5 active torsions:
REMARK  status: ('A' for Active; 'I' for Inactive)
REMARK    1  A    between atoms: C_2  and  C_3
REMARK    2  A    between atoms: C_12  and  C_14
REMARK    3  A    between atoms: C_14  and  C_15
REMARK    4  A    between atoms: C_15  and  C_16
REMARK    5  A    between atoms: C_16  and  C_17
REMARK                            x       y       z     vdW  Elec       q    Type
REMARK                         _______ _______ _______ _____ _____    ______ ____
ROOT
ATOM      1  C   UNL     1       3.675   5.101  17.575  0.00  0.00    +0.000 C 
ATOM      2  C   UNL     1       3.638   3.648  18.092  0.00  0.00    +0.000 C 
ATOM      3  C   UNL     1       3.721   3.842  19.615  0.00  0.00    +0.000 C 
ATOM      4  C   UNL     1       3.387   2.618  20.460  0.00  0.00    +0.000 C 
ATOM      5  C   UNL     1       1.901   2.298  20.531  0.00  0.00    +0.000 C 
ATOM      6  C   UNL     1       1.080   3.527  20.899  0.00  0.00    +0.000 C 
ATOM      7  C   UNL     1       1.316   4.654  19.905  0.00  0.00    +0.000 C 
ATOM      8  C   UNL     1       2.803   5.051  19.835  0.00  0.00    +0.000 C 
ATOM      9  N   UNL     1       3.063   5.884  18.662  0.00  0.00    +0.000 N 
ATOM     10  C   UNL     1       2.728   7.205  18.471  0.00  0.00    +0.000 C 
ATOM     11  O   UNL     1       2.924   7.766  17.391  0.00  0.00    +0.000 OA
ENDROOT
BRANCH   1  13
ATOM     12  O   UNL     1       5.824   6.122  18.092  0.00  0.00    +0.000 OA
ATOM     13  C   UNL     1       5.160   5.449  17.298  0.00  0.00    +0.000 C 
ATOM     14  N   UNL     1       5.751   4.808  16.219  0.00  0.00    +0.000 N 
ATOM     15  C   UNL     1       7.184   4.858  16.003  0.00  0.00    +0.000 C 
ATOM     16  C   UNL     1       7.326   4.931  14.494  0.00  0.00    +0.000 C 
ATOM     17  C   UNL     1       6.156   4.090  13.999  0.00  0.00    +0.000 C 
ATOM     18  C   UNL     1       5.056   4.358  15.022  0.00  0.00    +0.000 C 
ENDBRANCH   1  13
BRANCH  10  19
ATOM     19  C   UNL     1       2.083   7.963  19.625  0.00  0.00    +0.000 C 
BRANCH  19  20
ATOM     20  C   UNL     1       1.269   9.154  19.129  0.00  0.00    +0.000 C 
BRANCH  20  21
ATOM     21  C   UNL     1       0.702   9.967  20.299  0.00  0.00    +0.000 C 
BRANCH  21  22
ATOM     22  C   UNL     1      -0.574  10.671  19.911  0.00  0.00    +0.000 A 
ATOM     23  C   UNL     1      -1.174  10.415  18.672  0.00  0.00    +0.000 A 
ATOM     24  C   UNL     1      -2.316  11.115  18.281  0.00  0.00    +0.000 A 
ATOM     25  C   UNL     1      -2.868  12.077  19.124  0.00  0.00    +0.000 A 
ATOM     26  C   UNL     1      -2.286  12.332  20.364  0.00  0.00    +0.000 A 
ATOM     27  C   UNL     1      -1.144  11.632  20.758  0.00  0.00    +0.000 A 
ENDBRANCH  21  22
ENDBRANCH  20  21
ENDBRANCH  19  20
ENDBRANCH  10  19
TORSDOF 5
ENDMDL
MODEL 9
REMARK VINA RESULT:      -8.1      4.220      7.293
REMARK  Name = 
REMARK  5 active torsions:
REMARK  status: ('A' for Active; 'I' for Inactive)
REMARK    1  A    between atoms: C_2  and  C_3
REMARK    2  A    between atoms: C_12  and  C_14
REMARK    3  A    between atoms: C_14  and  C_15
REMARK    4  A    between atoms: C_15  and  C_16
REMARK    5  A    between atoms: C_16  and  C_17
REMARK                            x       y       z     vdW  Elec       q    Type
REMARK                         _______ _______ _______ _____ _____    ______ ____
ROOT
ATOM      1  C   UNL     1       3.473   6.312  18.644  0.00  0.00    +0.000 C 
ATOM      2  C   UNL     1       2.279   5.450  19.101  0.00  0.00    +0.000 C 
ATOM      3  C   UNL     1       2.033   4.557  17.874  0.00  0.00    +0.000 C 
ATOM      4  C   UNL     1       1.120   3.356  18.097  0.00  0.00    +0.000 C 
ATOM      5  C   UNL     1       1.773   2.212  18.861  0.00  0.00    +0.000 C 
ATOM      6  C   UNL     1       3.125   1.841  18.267  0.00  0.00    +0.000 C 
ATOM      7  C   UNL     1       4.057   3.043  18.245  0.00  0.00    +0.000 C 
ATOM      8  C   UNL     1       3.462   4.211  17.437  0.00  0.00    +0.000 C 
ATOM      9  N   UNL     1       4.198   5.448  17.696  0.00  0.00    +0.000 N 
ATOM     10  C   UNL     1       5.447   5.801  17.240  0.00  0.00    +0.000 C 
ATOM     11  O   UNL     1       5.994   6.842  17.613  0.00  0.00    +0.000 OA
ENDROOT
BRANCH   1  13
ATOM     12  O   UNL     1       3.156   7.928  16.851  0.00  0.00    +0.000 OA
ATOM     13  C   UNL     1       2.889   7.601  18.011  0.00  0.00    +0.000 C 
ATOM     14  N   UNL     1       1.909   8.255  18.742  0.00  0.00    +0.000 N 
ATOM     15  C   UNL     1       1.117   9.322  18.159  0.00  0.00    +0.000 C 
ATOM     16  C   UNL     1       0.925  10.303  19.301  0.00  0.00    +0.000 C 
ATOM     17  C   UNL     1       0.840   9.396  20.522  0.00  0.00    +0.000 C 
ATOM     18  C   UNL     1       1.796   8.252  20.193  0.00  0.00    +0.000 C 
ENDBRANCH   1  13
BRANCH  10  19
ATOM     19  C   UNL     1       6.158   4.862  16.274  0.00  0.00    +0.000 C 
BRANCH  19  20
ATOM     20  C   UNL     1       5.889   5.243  14.822  0.00  0.00    +0.000 C 
BRANCH  20  21
ATOM     21  C   UNL     1       6.874   4.550  13.873  0.00  0.00    +0.000 C 
BRANCH  21  22
ATOM     22  C   UNL     1       6.153   3.690  12.865  0.00  0.00    +0.000 A 
ATOM     23  C   UNL     1       6.833   2.668  12.191  0.00  0.00    +0.000 A 
ATOM     24  C   UNL     1       6.187   1.916  11.209  0.00  0.00    +0.000 A 
ATOM     25  C   UNL     1       4.857   2.180  10.890  0.00  0.00    +0.000 A 
ATOM     26  C   UNL     1       4.167   3.186  11.562  0.00  0.00    +0.000 A 
ATOM     27  C   UNL     1       4.810   3.939  12.546  0.00  0.00    +0.000 A 
ENDBRANCH  21  22
ENDBRANCH  20  21
ENDBRANCH  19  20
ENDBRANCH  10  19
TORSDOF 5
ENDMDL
