MODEL 1
REMARK VINA RESULT:      -9.0      0.000      0.000
REMARK  Name = 
REMARK  3 active torsions:
REMARK  status: ('A' for Active; 'I' for Inactive)
REMARK    1  A    between atoms: C_2  and  C_13
REMARK    2  A    between atoms: N_3  and  C_4
REMARK    3  A    between atoms: C_18  and  C_19
REMARK                            x       y       z     vdW  Elec       q    Type
REMARK                         _______ _______ _______ _____ _____    ______ ____
ROOT
ATOM      1  C   UNL     1       0.519  10.673  20.043  0.00  0.00    +0.000 A 
ATOM      2  C   UNL     1       0.520  11.326  18.820  0.00  0.00    +0.000 A 
ATOM      3  N   UNL     1       1.131  10.513  17.897  0.00  0.00    +0.000 N 
ATOM      4  C   UNL     1       1.506   9.328  18.481  0.00  0.00    +0.000 A 
ATOM      5  C   UNL     1       2.132   8.202  17.926  0.00  0.00    +0.000 A 
ATOM      6  C   UNL     1       2.373   7.070  18.737  0.00  0.00    +0.000 A 
ATOM      7  C   UNL     1       2.025   7.146  20.092  0.00  0.00    +0.000 A 
ATOM      8  C   UNL     1       1.432   8.289  20.644  0.00  0.00    +0.000 A 
ATOM      9  C   UNL     1       1.145   9.398  19.820  0.00  0.00    +0.000 A 
ATOM     10  H   UNL     1       1.274  10.740  16.921  0.00  0.00    +0.000 HD
ENDROOT
BRANCH   6  11
ATOM     11  C   UNL     1       2.949   5.832  18.158  0.00  0.00    +0.000 A 
ATOM     12  C   UNL     1       2.165   4.692  17.901  0.00  0.00    +0.000 A 
ATOM     13  C   UNL     1       2.722   3.535  17.346  0.00  0.00    +0.000 A 
ATOM     14  C   UNL     1       4.079   3.486  17.043  0.00  0.00    +0.000 A 
ATOM     15  C   UNL     1       4.877   4.599  17.282  0.00  0.00    +0.000 A 
ATOM     16  C   UNL     1       4.314   5.758  17.821  0.00  0.00    +0.000 A 
ENDBRANCH   6  11
BRANCH   1  18
ATOM     17  O   UNL     1       0.424  10.639  22.374  0.00  0.00    +0.000 OA
ATOM     18  C   UNL     1       0.003  11.134  21.335  0.00  0.00    +0.000 C 
ATOM     19  N   UNL     1      -0.990  12.100  21.271  0.00  0.00    +0.000 N 
ATOM     20  H   UNL     1      -1.389  12.288  20.365  0.00  0.00    +0.000 HD
BRANCH  19  21
ATOM     21  C   UNL     1      -1.635  12.672  22.390  0.00  0.00    +0.000 A 
ATOM     22  C   UNL     1      -2.872  12.219  22.861  0.00  0.00    +0.000 A 
ATOM     23  C   UNL     1      -3.553  12.855  23.902  0.00  0.00    +0.000 A 
ATOM     24  C   UNL     1      -2.935  13.965  24.465  0.00  0.00    +0.000 A 
ATOM     25  N   UNL     1      -3.342  14.824  25.451  0.00  0.00    +0.000 N 
ATOM     26  N   UNL     1      -2.451  15.792  25.736  0.00  0.00    +0.000 NA
ATOM     27  C   UNL     1      -1.445  15.541  24.893  0.00  0.00    +0.000 A 
ATOM     28  C   UNL     1      -1.684  14.420  24.067  0.00  0.00    +0.000 A 
ATOM     29  C   UNL     1      -1.005  13.754  23.028  0.00  0.00    +0.000 A 
ATOM     30  H   UNL     1      -4.218  14.807  25.957  0.00  0.00    +0.000 HD
ENDBRANCH  19  21
ENDBRANCH   1  18
TORSDOF 3
ENDMDL
MODEL 2
REMARK VINA RESULT:      -8.8      2.813     10.134
REMARK  Name = 
REMARK  3 active torsions:
REMARK  status: ('A' for Active; 'I' for Inactive)
REMARK    1  A    between atoms: C_2  and  C_13
REMARK    2  A    between atoms: N_3  and  C_4
REMARK    3  A    between atoms: C_18  and  C_19
REMARK                            x       y       z     vdW  Elec       q    Type
REMARK                         _______ _______ _______ _____ _____    ______ ____
ROOT
ATOM      1  C   UNL     1       1.052   9.208  19.066  0.00  0.00    +0.000 A 
ATOM      2  C   UNL     1       0.598   9.875  17.939  0.00  0.00    +0.000 A 
ATOM      3  N   UNL     1      -0.285  10.848  18.339  0.00  0.00    +0.000 N 
ATOM      4  C   UNL     1      -0.398  10.854  19.708  0.00  0.00    +0.000 A 
ATOM      5  C   UNL     1      -1.155  11.680  20.551  0.00  0.00    +0.000 A 
ATOM      6  C   UNL     1      -1.062  11.515  21.952  0.00  0.00    +0.000 A 
ATOM      7  C   UNL     1      -0.253  10.480  22.440  0.00  0.00    +0.000 A 
ATOM      8  C   UNL     1       0.472   9.639  21.586  0.00  0.00    +0.000 A 
ATOM      9  C   UNL     1       0.419   9.839  20.191  0.00  0.00    +0.000 A 
ATOM     10  H   UNL     1      -0.774  11.485  17.722  0.00  0.00    +0.000 HD
ENDROOT
BRANCH   6  11
ATOM     11  C   UNL     1      -1.778  12.432  22.871  0.00  0.00    +0.000 A 
ATOM     12  C   UNL     1      -1.222  13.655  23.291  0.00  0.00    +0.000 A 
ATOM     13  C   UNL     1      -1.914  14.513  24.152  0.00  0.00    +0.000 A 
ATOM     14  C   UNL     1      -3.177  14.165  24.623  0.00  0.00    +0.000 A 
ATOM     15  C   UNL     1      -3.752  12.965  24.221  0.00  0.00    +0.000 A 
ATOM     16  C   UNL     1      -3.065  12.119  23.349  0.00  0.00    +0.000 A 
ENDBRANCH   6  11
BRANCH   1  18
ATOM     17  O   UNL     1       2.215   7.565  20.245  0.00  0.00    +0.000 OA
ATOM     18  C   UNL     1       1.986   8.083  19.158  0.00  0.00    +0.000 C 
ATOM     19  N   UNL     1       2.593   7.710  17.967  0.00  0.00    +0.000 N 
ATOM     20  H   UNL     1       2.475   8.329  17.180  0.00  0.00    +0.000 HD
BRANCH  19  21
ATOM     21  C   UNL     1       3.532   6.665  17.831  0.00  0.00    +0.000 A 
ATOM     22  C   UNL     1       3.197   5.320  18.022  0.00  0.00    +0.000 A 
ATOM     23  C   UNL     1       4.151   4.300  17.988  0.00  0.00    +0.000 A 
ATOM     24  C   UNL     1       5.464   4.683  17.741  0.00  0.00    +0.000 A 
ATOM     25  N   UNL     1       6.623   3.956  17.686  0.00  0.00    +0.000 N 
ATOM     26  N   UNL     1       7.717   4.690  17.408  0.00  0.00    +0.000 NA
ATOM     27  C   UNL     1       7.234   5.930  17.291  0.00  0.00    +0.000 A 
ATOM     28  C   UNL     1       5.837   5.999  17.493  0.00  0.00    +0.000 A 
ATOM     29  C   UNL     1       4.857   7.010  17.513  0.00  0.00    +0.000 A 
ATOM     30  H   UNL     1       6.733   2.961  17.840  0.00  0.00    +0.000 HD
ENDBRANCH  19  21
ENDBRANCH   1  18
TORSDOF 3
ENDMDL
MODEL 3
REMARK VINA RESULT:      -8.7      2.750     10.200
REMARK  Name = 
REMARK  3 active torsions:
REMARK  status: ('A' for Active; 'I' for Inactive)
REMARK    1  A    between atoms: C_2  and  C_13
REMARK    2  A    between atoms: N_3  and  C_4
REMARK    3  A    between atoms: C_18  and  C_19
REMARK                            x       y       z     vdW  Elec       q    Type
REMARK                         _______ _______ _______ _____ _____    ______ ____
ROOT
ATOM      1  C   UNL     1       1.121   9.368  19.421  0.00  0.00    +0.000 A 
ATOM      2  C   UNL     1       1.043  10.238  18.345  0.00  0.00    +0.000 A 
ATOM      3  N   UNL     1       0.280  11.317  18.716  0.00  0.00    +0.000 N 
ATOM      4  C   UNL     1      -0.122  11.188  20.023  0.00  0.00    +0.000 A 
ATOM      5  C   UNL     1      -0.887  12.048  20.826  0.00  0.00    +0.000 A 
ATOM      6  C   UNL     1      -1.128  11.707  22.176  0.00  0.00    +0.000 A 
ATOM      7  C   UNL     1      -0.636  10.480  22.643  0.00  0.00    +0.000 A 
ATOM      8  C   UNL     1       0.096   9.614  21.822  0.00  0.00    +0.000 A 
ATOM      9  C   UNL     1       0.380   9.980  20.490  0.00  0.00    +0.000 A 
ATOM     10  H   UNL     1       0.054  12.106  18.124  0.00  0.00    +0.000 HD
ENDROOT
BRANCH   6  11
ATOM     11  C   UNL     1      -1.853  12.638  23.074  0.00  0.00    +0.000 A 
ATOM     12  C   UNL     1      -1.304  13.871  23.474  0.00  0.00    +0.000 A 
ATOM     13  C   UNL     1      -2.006  14.742  24.315  0.00  0.00    +0.000 A 
ATOM     14  C   UNL     1      -3.270  14.397  24.784  0.00  0.00    +0.000 A 
ATOM     15  C   UNL     1      -3.838  13.188  24.402  0.00  0.00    +0.000 A 
ATOM     16  C   UNL     1      -3.142  12.328  23.550  0.00  0.00    +0.000 A 
ENDBRANCH   6  11
BRANCH   1  18
ATOM     17  O   UNL     1       2.003   7.564  20.610  0.00  0.00    +0.000 OA
ATOM     18  C   UNL     1       1.802   8.073  19.513  0.00  0.00    +0.000 C 
ATOM     19  N   UNL     1       2.218   7.529  18.307  0.00  0.00    +0.000 N 
ATOM     20  H   UNL     1       2.170   8.125  17.495  0.00  0.00    +0.000 HD
BRANCH  19  21
ATOM     21  C   UNL     1       2.903   6.302  18.167  0.00  0.00    +0.000 A 
ATOM     22  C   UNL     1       4.237   6.226  17.751  0.00  0.00    +0.000 A 
ATOM     23  C   UNL     1       4.877   5.007  17.514  0.00  0.00    +0.000 A 
ATOM     24  C   UNL     1       4.125   3.857  17.722  0.00  0.00    +0.000 A 
ATOM     25  N   UNL     1       4.428   2.534  17.545  0.00  0.00    +0.000 N 
ATOM     26  N   UNL     1       3.426   1.694  17.869  0.00  0.00    +0.000 NA
ATOM     27  C   UNL     1       2.449   2.518  18.257  0.00  0.00    +0.000 A 
ATOM     28  C   UNL     1       2.815   3.881  18.185  0.00  0.00    +0.000 A 
ATOM     29  C   UNL     1       2.193   5.120  18.436  0.00  0.00    +0.000 A 
ATOM     30  H   UNL     1       5.295   2.143  17.197  0.00  0.00    +0.000 HD
ENDBRANCH  19  21
ENDBRANCH   1  18
TORSDOF 3
ENDMDL
MODEL 4
REMARK VINA RESULT:      -8.7      3.969      9.974
REMARK  Name = 
REMARK  3 active torsions:
REMARK  status: ('A' for Active; 'I' for Inactive)
REMARK    1  A    between atoms: C_2  and  C_13
REMARK    2  A    between atoms: N_3  and  C_4
REMARK    3  A    between atoms: C_18  and  C_19
REMARK                            x       y       z     vdW  Elec       q    Type
REMARK                         _______ _______ _______ _____ _____    ______ ____
ROOT
ATOM      1  C   UNL     1       0.760  10.095  19.013  0.00  0.00    +0.000 A 
ATOM      2  C   UNL     1       1.052  10.904  20.100  0.00  0.00    +0.000 A 
ATOM      3  N   UNL     1      -0.045  11.687  20.364  0.00  0.00    +0.000 N 
ATOM      4  C   UNL     1      -1.063  11.389  19.490  0.00  0.00    +0.000 A 
ATOM      5  C   UNL     1      -2.361  11.911  19.399  0.00  0.00    +0.000 A 
ATOM      6  C   UNL     1      -3.250  11.397  18.428  0.00  0.00    +0.000 A 
ATOM      7  C   UNL     1      -2.770  10.417  17.549  0.00  0.00    +0.000 A 
ATOM      8  C   UNL     1      -1.460   9.928  17.628  0.00  0.00    +0.000 A 
ATOM      9  C   UNL     1      -0.591  10.405  18.631  0.00  0.00    +0.000 A 
ATOM     10  H   UNL     1      -0.109  12.375  21.103  0.00  0.00    +0.000 HD
ENDROOT
BRANCH   6  11
ATOM     11  C   UNL     1      -4.657  11.864  18.367  0.00  0.00    +0.000 A 
ATOM     12  C   UNL     1      -5.310  12.111  17.145  0.00  0.00    +0.000 A 
ATOM     13  C   UNL     1      -6.641  12.543  17.105  0.00  0.00    +0.000 A 
ATOM     14  C   UNL     1      -7.347  12.748  18.287  0.00  0.00    +0.000 A 
ATOM     15  C   UNL     1      -6.728  12.507  19.508  0.00  0.00    +0.000 A 
ATOM     16  C   UNL     1      -5.406  12.061  19.543  0.00  0.00    +0.000 A 
ENDBRANCH   6  11
BRANCH   1  18
ATOM     17  O   UNL     1       1.977   9.298  17.189  0.00  0.00    +0.000 OA
ATOM     18  C   UNL     1       1.611   9.108  18.343  0.00  0.00    +0.000 C 
ATOM     19  N   UNL     1       1.908   7.974  19.084  0.00  0.00    +0.000 N 
ATOM     20  H   UNL     1       1.396   7.840  19.942  0.00  0.00    +0.000 HD
BRANCH  19  21
ATOM     21  C   UNL     1       2.697   6.894  18.629  0.00  0.00    +0.000 A 
ATOM     22  C   UNL     1       3.840   7.075  17.843  0.00  0.00    +0.000 A 
ATOM     23  C   UNL     1       4.557   6.000  17.311  0.00  0.00    +0.000 A 
ATOM     24  C   UNL     1       4.086   4.727  17.608  0.00  0.00    +0.000 A 
ATOM     25  N   UNL     1       4.518   3.488  17.217  0.00  0.00    +0.000 N 
ATOM     26  N   UNL     1       3.799   2.471  17.728  0.00  0.00    +0.000 NA
ATOM     27  C   UNL     1       2.870   3.090  18.462  0.00  0.00    +0.000 A 
ATOM     28  C   UNL     1       2.986   4.497  18.427  0.00  0.00    +0.000 A 
ATOM     29  C   UNL     1       2.288   5.594  18.970  0.00  0.00    +0.000 A 
ATOM     30  H   UNL     1       5.290   3.274  16.598  0.00  0.00    +0.000 HD
ENDBRANCH  19  21
ENDBRANCH   1  18
TORSDOF 3
ENDMDL
MODEL 5
REMARK VINA RESULT:      -8.6      3.894     10.043
REMARK  Name = 
REMARK  3 active torsions:
REMARK  status: ('A' for Active; 'I' for Inactive)
REMARK    1  A    between atoms: C_2  and  C_13
REMARK    2  A    between atoms: N_3  and  C_4
REMARK    3  A    between atoms: C_18  and  C_19
REMARK                            x       y       z     vdW  Elec       q    Type
REMARK                         _______ _______ _______ _____ _____    ______ ____
ROOT
ATOM      1  C   UNL     1       0.902   9.781  19.020  0.00  0.00    +0.000 A 
ATOM      2  C   UNL     1       1.164  10.392  20.236  0.00  0.00    +0.000 A 
ATOM      3  N   UNL     1       0.087  11.177  20.566  0.00  0.00    +0.000 N 
ATOM      4  C   UNL     1      -0.890  11.072  19.606  0.00  0.00    +0.000 A 
ATOM      5  C   UNL     1      -2.158  11.667  19.534  0.00  0.00    +0.000 A 
ATOM      6  C   UNL     1      -3.011  11.357  18.450  0.00  0.00    +0.000 A 
ATOM      7  C   UNL     1      -2.521  10.505  17.451  0.00  0.00    +0.000 A 
ATOM      8  C   UNL     1      -1.239   9.944  17.516  0.00  0.00    +0.000 A 
ATOM      9  C   UNL     1      -0.410  10.213  18.625  0.00  0.00    +0.000 A 
ATOM     10  H   UNL     1       0.008  11.743  21.402  0.00  0.00    +0.000 HD
ENDROOT
BRANCH   6  11
ATOM     11  C   UNL     1      -4.391  11.897  18.394  0.00  0.00    +0.000 A 
ATOM     12  C   UNL     1      -5.137  11.919  17.200  0.00  0.00    +0.000 A 
ATOM     13  C   UNL     1      -6.442  12.425  17.167  0.00  0.00    +0.000 A 
ATOM     14  C   UNL     1      -7.028  12.929  18.323  0.00  0.00    +0.000 A 
ATOM     15  C   UNL     1      -6.315  12.916  19.517  0.00  0.00    +0.000 A 
ATOM     16  C   UNL     1      -5.021  12.396  19.550  0.00  0.00    +0.000 A 
ENDBRANCH   6  11
BRANCH   1  18
ATOM     17  O   UNL     1       2.154   9.205  17.137  0.00  0.00    +0.000 OA
ATOM     18  C   UNL     1       1.748   8.870  18.244  0.00  0.00    +0.000 C 
ATOM     19  N   UNL     1       1.995   7.637  18.831  0.00  0.00    +0.000 N 
ATOM     20  H   UNL     1       1.455   7.403  19.649  0.00  0.00    +0.000 HD
BRANCH  19  21
ATOM     21  C   UNL     1       2.771   6.608  18.254  0.00  0.00    +0.000 A 
ATOM     22  C   UNL     1       2.288   5.305  18.083  0.00  0.00    +0.000 A 
ATOM     23  C   UNL     1       3.093   4.267  17.608  0.00  0.00    +0.000 A 
ATOM     24  C   UNL     1       4.409   4.590  17.298  0.00  0.00    +0.000 A 
ATOM     25  N   UNL     1       5.451   3.817  16.861  0.00  0.00    +0.000 N 
ATOM     26  N   UNL     1       6.593   4.501  16.657  0.00  0.00    +0.000 NA
ATOM     27  C   UNL     1       6.263   5.753  16.986  0.00  0.00    +0.000 A 
ATOM     28  C   UNL     1       4.919   5.879  17.401  0.00  0.00    +0.000 A 
ATOM     29  C   UNL     1       4.085   6.916  17.864  0.00  0.00    +0.000 A 
ATOM     30  H   UNL     1       5.448   2.818  16.694  0.00  0.00    +0.000 HD
ENDBRANCH  19  21
ENDBRANCH   1  18
TORSDOF 3
ENDMDL
MODEL 6
REMARK VINA RESULT:      -8.5      1.455      1.754
REMARK  Name = 
REMARK  3 active torsions:
REMARK  status: ('A' for Active; 'I' for Inactive)
REMARK    1  A    between atoms: C_2  and  C_13
REMARK    2  A    between atoms: N_3  and  C_4
REMARK    3  A    between atoms: C_18  and  C_19
REMARK                            x       y       z     vdW  Elec       q    Type
REMARK                         _______ _______ _______ _____ _____    ______ ____
ROOT
ATOM      1  C   UNL     1       0.384  11.047  19.871  0.00  0.00    +0.000 A 
ATOM      2  C   UNL     1       0.561  11.542  18.589  0.00  0.00    +0.000 A 
ATOM      3  N   UNL     1       1.239  10.602  17.852  0.00  0.00    +0.000 N 
ATOM      4  C   UNL     1       1.486   9.487  18.616  0.00  0.00    +0.000 A 
ATOM      5  C   UNL     1       2.121   8.282  18.283  0.00  0.00    +0.000 A 
ATOM      6  C   UNL     1       2.209   7.253  19.248  0.00  0.00    +0.000 A 
ATOM      7  C   UNL     1       1.706   7.509  20.530  0.00  0.00    +0.000 A 
ATOM      8  C   UNL     1       1.105   8.730  20.862  0.00  0.00    +0.000 A 
ATOM      9  C   UNL     1       0.971   9.736  19.883  0.00  0.00    +0.000 A 
ATOM     10  H   UNL     1       1.508  10.701  16.882  0.00  0.00    +0.000 HD
ENDROOT
BRANCH   6  11
ATOM     11  C   UNL     1       2.792   5.935  18.897  0.00  0.00    +0.000 A 
ATOM     12  C   UNL     1       3.978   5.461  19.487  0.00  0.00    +0.000 A 
ATOM     13  C   UNL     1       4.510   4.211  19.151  0.00  0.00    +0.000 A 
ATOM     14  C   UNL     1       3.873   3.408  18.210  0.00  0.00    +0.000 A 
ATOM     15  C   UNL     1       2.697   3.849  17.615  0.00  0.00    +0.000 A 
ATOM     16  C   UNL     1       2.161   5.090  17.964  0.00  0.00    +0.000 A 
ENDBRANCH   6  11
BRANCH   1  18
ATOM     17  O   UNL     1       0.389  11.917  22.036  0.00  0.00    +0.000 OA
ATOM     18  C   UNL     1      -0.261  11.682  21.024  0.00  0.00    +0.000 C 
ATOM     19  N   UNL     1      -1.618  11.937  20.885  0.00  0.00    +0.000 N 
ATOM     20  H   UNL     1      -2.081  11.528  20.089  0.00  0.00    +0.000 HD
BRANCH  19  21
ATOM     21  C   UNL     1      -2.435  12.528  21.873  0.00  0.00    +0.000 A 
ATOM     22  C   UNL     1      -2.675  11.924  23.113  0.00  0.00    +0.000 A 
ATOM     23  C   UNL     1      -3.566  12.462  24.045  0.00  0.00    +0.000 A 
ATOM     24  C   UNL     1      -4.203  13.645  23.689  0.00  0.00    +0.000 A 
ATOM     25  N   UNL     1      -5.146  14.395  24.339  0.00  0.00    +0.000 N 
ATOM     26  N   UNL     1      -5.522  15.501  23.669  0.00  0.00    +0.000 NA
ATOM     27  C   UNL     1      -4.796  15.444  22.549  0.00  0.00    +0.000 A 
ATOM     28  C   UNL     1      -3.957  14.308  22.493  0.00  0.00    +0.000 A 
ATOM     29  C   UNL     1      -3.041  13.760  21.574  0.00  0.00    +0.000 A 
ATOM     30  H   UNL     1      -5.577  14.200  25.233  0.00  0.00    +0.000 HD
ENDBRANCH  19  21
ENDBRANCH   1  18
TORSDOF 3
ENDMDL
MODEL 7
REMARK VINA RESULT:      -8.5      3.420      6.211
REMARK  Name = 
REMARK  3 active torsions:
REMARK  status: ('A' for Active; 'I' for Inactive)
REMARK    1  A    between atoms: C_2  and  C_13
REMARK    2  A    between atoms: N_3  and  C_4
REMARK    3  A    between atoms: C_18  and  C_19
REMARK                            x       y       z     vdW  Elec       q    Type
REMARK                         _______ _______ _______ _____ _____    ______ ____
ROOT
ATOM      1  C   UNL     1       3.303   4.681  19.389  0.00  0.00    +0.000 A 
ATOM      2  C   UNL     1       3.633   3.392  19.776  0.00  0.00    +0.000 A 
ATOM      3  N   UNL     1       4.358   2.810  18.765  0.00  0.00    +0.000 N 
ATOM      4  C   UNL     1       4.537   3.701  17.735  0.00  0.00    +0.000 A 
ATOM      5  C   UNL     1       5.227   3.557  16.522  0.00  0.00    +0.000 A 
ATOM      6  C   UNL     1       5.308   4.655  15.634  0.00  0.00    +0.000 A 
ATOM      7  C   UNL     1       4.636   5.834  15.984  0.00  0.00    +0.000 A 
ATOM      8  C   UNL     1       3.922   5.954  17.182  0.00  0.00    +0.000 A 
ATOM      9  C   UNL     1       3.886   4.875  18.090  0.00  0.00    +0.000 A 
ATOM     10  H   UNL     1       4.726   1.867  18.776  0.00  0.00    +0.000 HD
ENDROOT
BRANCH   6  11
ATOM     11  C   UNL     1       6.106   4.563  14.388  0.00  0.00    +0.000 A 
ATOM     12  C   UNL     1       7.265   5.335  14.184  0.00  0.00    +0.000 A 
ATOM     13  C   UNL     1       8.012   5.230  13.006  0.00  0.00    +0.000 A 
ATOM     14  C   UNL     1       7.614   4.357  11.998  0.00  0.00    +0.000 A 
ATOM     15  C   UNL     1       6.475   3.579  12.175  0.00  0.00    +0.000 A 
ATOM     16  C   UNL     1       5.741   3.675  13.358  0.00  0.00    +0.000 A 
ENDBRANCH   6  11
BRANCH   1  18
ATOM     17  O   UNL     1       2.004   5.408  21.186  0.00  0.00    +0.000 OA
ATOM     18  C   UNL     1       2.523   5.690  20.112  0.00  0.00    +0.000 C 
ATOM     19  N   UNL     1       2.394   6.915  19.476  0.00  0.00    +0.000 N 
ATOM     20  H   UNL     1       2.698   6.967  18.516  0.00  0.00    +0.000 HD
BRANCH  19  21
ATOM     21  C   UNL     1       1.676   8.019  19.985  0.00  0.00    +0.000 A 
ATOM     22  C   UNL     1       1.419   9.167  19.226  0.00  0.00    +0.000 A 
ATOM     23  C   UNL     1       0.800  10.297  19.767  0.00  0.00    +0.000 A 
ATOM     24  C   UNL     1       0.434  10.227  21.106  0.00  0.00    +0.000 A 
ATOM     25  N   UNL     1      -0.139  11.152  21.937  0.00  0.00    +0.000 N 
ATOM     26  N   UNL     1      -0.355  10.705  23.189  0.00  0.00    +0.000 NA
ATOM     27  C   UNL     1       0.108   9.452  23.151  0.00  0.00    +0.000 A 
ATOM     28  C   UNL     1       0.620   9.091  21.885  0.00  0.00    +0.000 A 
ATOM     29  C   UNL     1       1.229   7.955  21.316  0.00  0.00    +0.000 A 
ATOM     30  H   UNL     1      -0.396  12.105  21.711  0.00  0.00    +0.000 HD
ENDBRANCH  19  21
ENDBRANCH   1  18
TORSDOF 3
ENDMDL
MODEL 8
REMARK VINA RESULT:      -8.4      1.252      2.006
REMARK  Name = 
REMARK  3 active torsions:
REMARK  status: ('A' for Active; 'I' for Inactive)
REMARK    1  A    between atoms: C_2  and  C_13
REMARK    2  A    between atoms: N_3  and  C_4
REMARK    3  A    between atoms: C_18  and  C_19
REMARK                            x       y       z     vdW  Elec       q    Type
REMARK                         _______ _______ _______ _____ _____    ______ ____
ROOT
ATOM      1  C   UNL     1       1.159   9.908  19.825  0.00  0.00    +0.000 A 
ATOM      2  C   UNL     1       1.388  10.355  18.533  0.00  0.00    +0.000 A 
ATOM      3  N   UNL     1       1.900   9.313  17.800  0.00  0.00    +0.000 N 
ATOM      4  C   UNL     1       1.985   8.182  18.576  0.00  0.00    +0.000 A 
ATOM      5  C   UNL     1       2.420   6.889  18.249  0.00  0.00    +0.000 A 
ATOM      6  C   UNL     1       2.365   5.870  19.227  0.00  0.00    +0.000 A 
ATOM      7  C   UNL     1       1.929   6.215  20.513  0.00  0.00    +0.000 A 
ATOM      8  C   UNL     1       1.530   7.518  20.837  0.00  0.00    +0.000 A 
ATOM      9  C   UNL     1       1.536   8.522  19.846  0.00  0.00    +0.000 A 
ATOM     10  H   UNL     1       2.165   9.357  16.824  0.00  0.00    +0.000 HD
ENDROOT
BRANCH   6  11
ATOM     11  C   UNL     1       2.731   4.474  18.886  0.00  0.00    +0.000 A 
ATOM     12  C   UNL     1       3.707   3.760  19.605  0.00  0.00    +0.000 A 
ATOM     13  C   UNL     1       4.035   2.440  19.276  0.00  0.00    +0.000 A 
ATOM     14  C   UNL     1       3.399   1.804  18.213  0.00  0.00    +0.000 A 
ATOM     15  C   UNL     1       2.428   2.485  17.488  0.00  0.00    +0.000 A 
ATOM     16  C   UNL     1       2.093   3.796  17.830  0.00  0.00    +0.000 A 
ENDBRANCH   6  11
BRANCH   1  18
ATOM     17  O   UNL     1       1.007  10.354  22.110  0.00  0.00    +0.000 OA
ATOM     18  C   UNL     1       0.640  10.649  20.978  0.00  0.00    +0.000 C 
ATOM     19  N   UNL     1      -0.294  11.632  20.687  0.00  0.00    +0.000 N 
ATOM     20  H   UNL     1      -0.659  11.653  19.747  0.00  0.00    +0.000 HD
BRANCH  19  21
ATOM     21  C   UNL     1      -0.930  12.453  21.644  0.00  0.00    +0.000 A 
ATOM     22  C   UNL     1      -0.394  13.675  22.065  0.00  0.00    +0.000 A 
ATOM     23  C   UNL     1      -0.973  14.432  23.086  0.00  0.00    +0.000 A 
ATOM     24  C   UNL     1      -2.127  13.918  23.666  0.00  0.00    +0.000 A 
ATOM     25  N   UNL     1      -2.902  14.376  24.697  0.00  0.00    +0.000 N 
ATOM     26  N   UNL     1      -3.965  13.596  24.972  0.00  0.00    +0.000 NA
ATOM     27  C   UNL     1      -3.853  12.601  24.087  0.00  0.00    +0.000 A 
ATOM     28  C   UNL     1      -2.725  12.736  23.246  0.00  0.00    +0.000 A 
ATOM     29  C   UNL     1      -2.136  11.997  22.202  0.00  0.00    +0.000 A 
ATOM     30  H   UNL     1      -2.753  15.206  25.257  0.00  0.00    +0.000 HD
ENDBRANCH  19  21
ENDBRANCH   1  18
TORSDOF 3
ENDMDL
MODEL 9
REMARK VINA RESULT:      -8.3      2.716      3.584
REMARK  Name = 
REMARK  3 active torsions:
REMARK  status: ('A' for Active; 'I' for Inactive)
REMARK    1  A    between atoms: C_2  and  C_13
REMARK    2  A    between atoms: N_3  and  C_4
REMARK    3  A    between atoms: C_18  and  C_19
REMARK                            x       y       z     vdW  Elec       q    Type
REMARK                         _______ _______ _______ _____ _____    ______ ____
ROOT
ATOM      1  C   UNL     1       0.492   9.828  20.591  0.00  0.00    +0.000 A 
ATOM      2  C   UNL     1       0.689   9.193  21.807  0.00  0.00    +0.000 A 
ATOM      3  N   UNL     1       1.459   8.077  21.592  0.00  0.00    +0.000 N 
ATOM      4  C   UNL     1       1.797   7.981  20.264  0.00  0.00    +0.000 A 
ATOM      5  C   UNL     1       2.582   7.030  19.595  0.00  0.00    +0.000 A 
ATOM      6  C   UNL     1       2.825   7.180  18.210  0.00  0.00    +0.000 A 
ATOM      7  C   UNL     1       2.213   8.253  17.548  0.00  0.00    +0.000 A 
ATOM      8  C   UNL     1       1.403   9.176  18.220  0.00  0.00    +0.000 A 
ATOM      9  C   UNL     1       1.204   9.054  19.611  0.00  0.00    +0.000 A 
ATOM     10  H   UNL     1       1.754   7.422  22.306  0.00  0.00    +0.000 HD
ENDROOT
BRANCH   6  11
ATOM     11  C   UNL     1       3.725   6.244  17.494  0.00  0.00    +0.000 A 
ATOM     12  C   UNL     1       4.801   6.697  16.708  0.00  0.00    +0.000 A 
ATOM     13  C   UNL     1       5.647   5.800  16.045  0.00  0.00    +0.000 A 
ATOM     14  C   UNL     1       5.431   4.428  16.145  0.00  0.00    +0.000 A 
ATOM     15  C   UNL     1       4.378   3.954  16.918  0.00  0.00    +0.000 A 
ATOM     16  C   UNL     1       3.546   4.851  17.591  0.00  0.00    +0.000 A 
ENDBRANCH   6  11
BRANCH   1  18
ATOM     17  O   UNL     1      -1.301  10.972  19.633  0.00  0.00    +0.000 OA
ATOM     18  C   UNL     1      -0.274  11.042  20.298  0.00  0.00    +0.000 C 
ATOM     19  N   UNL     1       0.270  12.224  20.779  0.00  0.00    +0.000 N 
ATOM     20  H   UNL     1       1.210  12.181  21.142  0.00  0.00    +0.000 HD
BRANCH  19  21
ATOM     21  C   UNL     1      -0.294  13.506  20.600  0.00  0.00    +0.000 A 
ATOM     22  C   UNL     1      -1.317  14.001  21.417  0.00  0.00    +0.000 A 
ATOM     23  C   UNL     1      -1.942  15.226  21.172  0.00  0.00    +0.000 A 
ATOM     24  C   UNL     1      -1.491  15.947  20.073  0.00  0.00    +0.000 A 
ATOM     25  N   UNL     1      -1.907  17.137  19.539  0.00  0.00    +0.000 N 
ATOM     26  N   UNL     1      -1.206  17.528  18.458  0.00  0.00    +0.000 NA
ATOM     27  C   UNL     1      -0.317  16.543  18.296  0.00  0.00    +0.000 A 
ATOM     28  C   UNL     1      -0.443  15.522  19.265  0.00  0.00    +0.000 A 
ATOM     29  C   UNL     1       0.187  14.293  19.540  0.00  0.00    +0.000 A 
ATOM     30  H   UNL     1      -2.669  17.722  19.860  0.00  0.00    +0.000 HD
ENDBRANCH  19  21
ENDBRANCH   1  18
TORSDOF 3
ENDMDL
