MODEL 1
REMARK VINA RESULT:      -8.7      0.000      0.000
REMARK  Name = 
REMARK  2 active torsions:
REMARK  status: ('A' for Active; 'I' for Inactive)
REMARK    1  A    between atoms: C_1  and  C_2
REMARK    2  A    between atoms: C_5  and  C_6
REMARK                            x       y       z     vdW  Elec       q    Type
REMARK                         _______ _______ _______ _____ _____    ______ ____
ROOT
ATOM      1  C   UNL     1       1.922   6.977  20.142  0.00  0.00    +0.000 A 
ATOM      2  C   UNL     1       1.475   5.928  20.846  0.00  0.00    +0.000 A 
ATOM      3  C   UNL     1       1.852   4.568  20.438  0.00  0.00    +0.000 A 
ATOM      4  O   UNL     1       1.465   3.593  21.068  0.00  0.00    +0.000 OA
ATOM      5  C   UNL     1       2.701   4.452  19.245  0.00  0.00    +0.000 A 
ATOM      6  C   UNL     1       3.068   3.193  18.770  0.00  0.00    +0.000 A 
ATOM      7  C   UNL     1       3.881   3.091  17.643  0.00  0.00    +0.000 A 
ATOM      8  C   UNL     1       4.342   4.242  16.985  0.00  0.00    +0.000 A 
ATOM      9  C   UNL     1       5.172   4.129  15.858  0.00  0.00    +0.000 A 
ATOM     10  C   UNL     1       5.643   5.264  15.199  0.00  0.00    +0.000 A 
ATOM     11  C   UNL     1       5.287   6.528  15.657  0.00  0.00    +0.000 A 
ATOM     12  C   UNL     1       4.458   6.657  16.773  0.00  0.00    +0.000 A 
ATOM     13  C   UNL     1       3.969   5.525  17.461  0.00  0.00    +0.000 A 
ATOM     14  C   UNL     1       3.132   5.611  18.598  0.00  0.00    +0.000 A 
ATOM     15  O   UNL     1       2.758   6.864  19.038  0.00  0.00    +0.000 OA
ENDROOT
BRANCH   1  20
ATOM     16  C   UNL     1      -0.912  12.032  20.818  0.00  0.00    +0.000 C 
ATOM     17  C   UNL     1      -0.446  10.615  20.490  0.00  0.00    +0.000 C 
ATOM     18  C   UNL     1       0.778  10.644  19.568  0.00  0.00    +0.000 C 
ATOM     19  C   UNL     1       1.260   9.233  19.233  0.00  0.00    +0.000 C 
ATOM     20  C   UNL     1       1.537   8.401  20.497  0.00  0.00    +0.000 C 
ATOM     21  C   UNL     1       0.337   8.415  21.459  0.00  0.00    +0.000 C 
ATOM     22  C   UNL     1      -0.132   9.835  21.772  0.00  0.00    +0.000 C 
ENDBRANCH   1  20
TORSDOF 1
ENDMDL
MODEL 2
REMARK VINA RESULT:      -8.0      1.689      6.677
REMARK  Name = 
REMARK  2 active torsions:
REMARK  status: ('A' for Active; 'I' for Inactive)
REMARK    1  A    between atoms: C_1  and  C_2
REMARK    2  A    between atoms: C_5  and  C_6
REMARK                            x       y       z     vdW  Elec       q    Type
REMARK                         _______ _______ _______ _____ _____    ______ ____
ROOT
ATOM      1  C   UNL     1       4.672   4.302  17.703  0.00  0.00    +0.000 A 
ATOM      2  C   UNL     1       4.477   3.344  18.619  0.00  0.00    +0.000 A 
ATOM      3  C   UNL     1       3.574   3.596  19.750  0.00  0.00    +0.000 A 
ATOM      4  O   UNL     1       3.371   2.735  20.595  0.00  0.00    +0.000 OA
ATOM      5  C   UNL     1       2.946   4.923  19.806  0.00  0.00    +0.000 A 
ATOM      6  C   UNL     1       2.107   5.253  20.870  0.00  0.00    +0.000 A 
ATOM      7  C   UNL     1       1.508   6.510  20.911  0.00  0.00    +0.000 A 
ATOM      8  C   UNL     1       1.732   7.446  19.889  0.00  0.00    +0.000 A 
ATOM      9  C   UNL     1       1.113   8.705  19.932  0.00  0.00    +0.000 A 
ATOM     10  C   UNL     1       1.321   9.641  18.920  0.00  0.00    +0.000 A 
ATOM     11  C   UNL     1       2.155   9.330  17.851  0.00  0.00    +0.000 A 
ATOM     12  C   UNL     1       2.782   8.084  17.795  0.00  0.00    +0.000 A 
ATOM     13  C   UNL     1       2.587   7.117  18.805  0.00  0.00    +0.000 A 
ATOM     14  C   UNL     1       3.199   5.841  18.785  0.00  0.00    +0.000 A 
ATOM     15  O   UNL     1       4.045   5.541  17.738  0.00  0.00    +0.000 OA
ENDROOT
BRANCH   1  20
ATOM     16  C   UNL     1       7.810   5.007  12.834  0.00  0.00    +0.000 C 
ATOM     17  C   UNL     1       6.873   5.120  14.034  0.00  0.00    +0.000 C 
ATOM     18  C   UNL     1       5.807   4.019  13.999  0.00  0.00    +0.000 C 
ATOM     19  C   UNL     1       4.862   4.115  15.196  0.00  0.00    +0.000 C 
ATOM     20  C   UNL     1       5.620   4.110  16.534  0.00  0.00    +0.000 C 
ATOM     21  C   UNL     1       6.734   5.171  16.558  0.00  0.00    +0.000 C 
ATOM     22  C   UNL     1       7.660   5.061  15.348  0.00  0.00    +0.000 C 
ENDBRANCH   1  20
TORSDOF 1
ENDMDL
MODEL 3
REMARK VINA RESULT:      -7.9      1.493      3.724
REMARK  Name = 
REMARK  2 active torsions:
REMARK  status: ('A' for Active; 'I' for Inactive)
REMARK    1  A    between atoms: C_1  and  C_2
REMARK    2  A    between atoms: C_5  and  C_6
REMARK                            x       y       z     vdW  Elec       q    Type
REMARK                         _______ _______ _______ _____ _____    ______ ____
ROOT
ATOM      1  C   UNL     1       2.508   7.970  18.516  0.00  0.00    +0.000 A 
ATOM      2  C   UNL     1       3.336   8.009  17.463  0.00  0.00    +0.000 A 
ATOM      3  C   UNL     1       4.123   6.818  17.116  0.00  0.00    +0.000 A 
ATOM      4  O   UNL     1       4.880   6.824  16.154  0.00  0.00    +0.000 OA
ATOM      5  C   UNL     1       3.953   5.644  17.982  0.00  0.00    +0.000 A 
ATOM      6  C   UNL     1       4.695   4.487  17.741  0.00  0.00    +0.000 A 
ATOM      7  C   UNL     1       4.522   3.375  18.561  0.00  0.00    +0.000 A 
ATOM      8  C   UNL     1       3.602   3.400  19.622  0.00  0.00    +0.000 A 
ATOM      9  C   UNL     1       3.425   2.269  20.434  0.00  0.00    +0.000 A 
ATOM     10  C   UNL     1       2.510   2.279  21.486  0.00  0.00    +0.000 A 
ATOM     11  C   UNL     1       1.761   3.423  21.741  0.00  0.00    +0.000 A 
ATOM     12  C   UNL     1       1.929   4.558  20.946  0.00  0.00    +0.000 A 
ATOM     13  C   UNL     1       2.847   4.575  19.873  0.00  0.00    +0.000 A 
ATOM     14  C   UNL     1       3.045   5.701  19.040  0.00  0.00    +0.000 A 
ATOM     15  O   UNL     1       2.321   6.844  19.308  0.00  0.00    +0.000 OA
ENDROOT
BRANCH   1  20
ATOM     16  C   UNL     1      -1.780  11.574  20.152  0.00  0.00    +0.000 C 
ATOM     17  C   UNL     1      -0.897  10.406  19.714  0.00  0.00    +0.000 C 
ATOM     18  C   UNL     1      -0.264  10.686  18.347  0.00  0.00    +0.000 C 
ATOM     19  C   UNL     1       0.626   9.529  17.895  0.00  0.00    +0.000 C 
ATOM     20  C   UNL     1       1.698   9.180  18.942  0.00  0.00    +0.000 C 
ATOM     21  C   UNL     1       1.080   8.958  20.333  0.00  0.00    +0.000 C 
ATOM     22  C   UNL     1       0.188  10.123  20.759  0.00  0.00    +0.000 C 
ENDBRANCH   1  20
TORSDOF 1
ENDMDL
MODEL 4
REMARK VINA RESULT:      -7.9      1.078      6.606
REMARK  Name = 
REMARK  2 active torsions:
REMARK  status: ('A' for Active; 'I' for Inactive)
REMARK    1  A    between atoms: C_1  and  C_2
REMARK    2  A    between atoms: C_5  and  C_6
REMARK                            x       y       z     vdW  Elec       q    Type
REMARK                         _______ _______ _______ _____ _____    ______ ____
ROOT
ATOM      1  C   UNL     1       3.839   5.531  18.460  0.00  0.00    +0.000 A 
ATOM      2  C   UNL     1       3.496   4.694  19.449  0.00  0.00    +0.000 A 
ATOM      3  C   UNL     1       2.528   5.130  20.464  0.00  0.00    +0.000 A 
ATOM      4  O   UNL     1       2.190   4.382  21.372  0.00  0.00    +0.000 OA
ATOM      5  C   UNL     1       2.005   6.496  20.329  0.00  0.00    +0.000 A 
ATOM      6  C   UNL     1       1.112   6.997  21.276  0.00  0.00    +0.000 A 
ATOM      7  C   UNL     1       0.613   8.290  21.136  0.00  0.00    +0.000 A 
ATOM      8  C   UNL     1       0.991   9.092  20.047  0.00  0.00    +0.000 A 
ATOM      9  C   UNL     1       0.472  10.388  19.908  0.00  0.00    +0.000 A 
ATOM     10  C   UNL     1       0.834  11.192  18.827  0.00  0.00    +0.000 A 
ATOM     11  C   UNL     1       1.724  10.709  17.873  0.00  0.00    +0.000 A 
ATOM     12  C   UNL     1       2.253   9.424  18.000  0.00  0.00    +0.000 A 
ATOM     13  C   UNL     1       1.902   8.588  19.082  0.00  0.00    +0.000 A 
ATOM     14  C   UNL     1       2.410   7.278  19.246  0.00  0.00    +0.000 A 
ATOM     15  O   UNL     1       3.311   6.808  18.314  0.00  0.00    +0.000 OA
ENDROOT
BRANCH   1  20
ATOM     16  C   UNL     1       6.487   4.029  13.483  0.00  0.00    +0.000 C 
ATOM     17  C   UNL     1       5.522   4.412  14.603  0.00  0.00    +0.000 C 
ATOM     18  C   UNL     1       5.546   3.367  15.724  0.00  0.00    +0.000 C 
ATOM     19  C   UNL     1       4.588   3.738  16.855  0.00  0.00    +0.000 C 
ATOM     20  C   UNL     1       4.860   5.148  17.405  0.00  0.00    +0.000 C 
ATOM     21  C   UNL     1       4.899   6.197  16.281  0.00  0.00    +0.000 C 
ATOM     22  C   UNL     1       5.856   5.801  15.158  0.00  0.00    +0.000 C 
ENDBRANCH   1  20
TORSDOF 1
ENDMDL
MODEL 5
REMARK VINA RESULT:      -7.9      1.541      3.903
REMARK  Name = 
REMARK  2 active torsions:
REMARK  status: ('A' for Active; 'I' for Inactive)
REMARK    1  A    between atoms: C_1  and  C_2
REMARK    2  A    between atoms: C_5  and  C_6
REMARK                            x       y       z     vdW  Elec       q    Type
REMARK                         _______ _______ _______ _____ _____    ______ ____
ROOT
ATOM      1  C   UNL     1       2.380   7.927  18.370  0.00  0.00    +0.000 A 
ATOM      2  C   UNL     1       3.286   8.018  17.386  0.00  0.00    +0.000 A 
ATOM      3  C   UNL     1       4.206   6.900  17.142  0.00  0.00    +0.000 A 
ATOM      4  O   UNL     1       5.036   6.953  16.245  0.00  0.00    +0.000 OA
ATOM      5  C   UNL     1       4.075   5.736  18.029  0.00  0.00    +0.000 A 
ATOM      6  C   UNL     1       4.938   4.650  17.887  0.00  0.00    +0.000 A 
ATOM      7  C   UNL     1       4.802   3.547  18.726  0.00  0.00    +0.000 A 
ATOM      8  C   UNL     1       3.799   3.511  19.708  0.00  0.00    +0.000 A 
ATOM      9  C   UNL     1       3.662   2.388  20.539  0.00  0.00    +0.000 A 
ATOM     10  C   UNL     1       2.665   2.337  21.514  0.00  0.00    +0.000 A 
ATOM     11  C   UNL     1       1.795   3.411  21.670  0.00  0.00    +0.000 A 
ATOM     12  C   UNL     1       1.922   4.537  20.855  0.00  0.00    +0.000 A 
ATOM     13  C   UNL     1       2.920   4.614  19.859  0.00  0.00    +0.000 A 
ATOM     14  C   UNL     1       3.080   5.733  19.008  0.00  0.00    +0.000 A 
ATOM     15  O   UNL     1       2.234   6.808  19.180  0.00  0.00    +0.000 OA
ENDROOT
BRANCH   1  20
ATOM     16  C   UNL     1      -0.075  12.772  20.499  0.00  0.00    +0.000 C 
ATOM     17  C   UNL     1       0.820  11.591  20.131  0.00  0.00    +0.000 C 
ATOM     18  C   UNL     1       0.171  10.266  20.545  0.00  0.00    +0.000 C 
ATOM     19  C   UNL     1       1.053   9.072  20.180  0.00  0.00    +0.000 C 
ATOM     20  C   UNL     1       1.429   9.065  18.689  0.00  0.00    +0.000 C 
ATOM     21  C   UNL     1       2.025  10.412  18.248  0.00  0.00    +0.000 C 
ATOM     22  C   UNL     1       1.131  11.590  18.630  0.00  0.00    +0.000 C 
ENDBRANCH   1  20
TORSDOF 1
ENDMDL
MODEL 6
REMARK VINA RESULT:      -7.8      1.708      3.731
REMARK  Name = 
REMARK  2 active torsions:
REMARK  status: ('A' for Active; 'I' for Inactive)
REMARK    1  A    between atoms: C_1  and  C_2
REMARK    2  A    between atoms: C_5  and  C_6
REMARK                            x       y       z     vdW  Elec       q    Type
REMARK                         _______ _______ _______ _____ _____    ______ ____
ROOT
ATOM      1  C   UNL     1       1.598   8.593  20.181  0.00  0.00    +0.000 A 
ATOM      2  C   UNL     1       1.944   9.049  18.969  0.00  0.00    +0.000 A 
ATOM      3  C   UNL     1       2.525   8.124  17.986  0.00  0.00    +0.000 A 
ATOM      4  O   UNL     1       2.840   8.512  16.869  0.00  0.00    +0.000 OA
ATOM      5  C   UNL     1       2.707   6.733  18.421  0.00  0.00    +0.000 A 
ATOM      6  C   UNL     1       3.289   5.804  17.559  0.00  0.00    +0.000 A 
ATOM      7  C   UNL     1       3.450   4.484  17.976  0.00  0.00    +0.000 A 
ATOM      8  C   UNL     1       3.024   4.076  19.249  0.00  0.00    +0.000 A 
ATOM      9  C   UNL     1       3.178   2.741  19.654  0.00  0.00    +0.000 A 
ATOM     10  C   UNL     1       2.753   2.321  20.914  0.00  0.00    +0.000 A 
ATOM     11  C   UNL     1       2.170   3.234  21.787  0.00  0.00    +0.000 A 
ATOM     12  C   UNL     1       2.014   4.566  21.402  0.00  0.00    +0.000 A 
ATOM     13  C   UNL     1       2.434   5.018  20.132  0.00  0.00    +0.000 A 
ATOM     14  C   UNL     1       2.290   6.357  19.699  0.00  0.00    +0.000 A 
ATOM     15  O   UNL     1       1.735   7.268  20.574  0.00  0.00    +0.000 OA
ENDROOT
BRANCH   1  20
ATOM     16  C   UNL     1      -1.898  11.977  23.402  0.00  0.00    +0.000 C 
ATOM     17  C   UNL     1      -1.247  11.062  22.366  0.00  0.00    +0.000 C 
ATOM     18  C   UNL     1      -0.066  11.763  21.686  0.00  0.00    +0.000 C 
ATOM     19  C   UNL     1       0.600  10.860  20.649  0.00  0.00    +0.000 C 
ATOM     20  C   UNL     1       1.027   9.510  21.247  0.00  0.00    +0.000 C 
ATOM     21  C   UNL     1      -0.135   8.824  21.986  0.00  0.00    +0.000 C 
ATOM     22  C   UNL     1      -0.790   9.749  23.011  0.00  0.00    +0.000 C 
ENDBRANCH   1  20
TORSDOF 1
ENDMDL
MODEL 7
REMARK VINA RESULT:      -7.8      3.058      7.693
REMARK  Name = 
REMARK  2 active torsions:
REMARK  status: ('A' for Active; 'I' for Inactive)
REMARK    1  A    between atoms: C_1  and  C_2
REMARK    2  A    between atoms: C_5  and  C_6
REMARK                            x       y       z     vdW  Elec       q    Type
REMARK                         _______ _______ _______ _____ _____    ______ ____
ROOT
ATOM      1  C   UNL     1       0.937   9.499  19.775  0.00  0.00    +0.000 A 
ATOM      2  C   UNL     1       0.941  10.172  20.934  0.00  0.00    +0.000 A 
ATOM      3  C   UNL     1      -0.146  11.114  21.229  0.00  0.00    +0.000 A 
ATOM      4  O   UNL     1      -0.172  11.734  22.284  0.00  0.00    +0.000 OA
ATOM      5  C   UNL     1      -1.179  11.268  20.196  0.00  0.00    +0.000 A 
ATOM      6  C   UNL     1      -2.224  12.173  20.384  0.00  0.00    +0.000 A 
ATOM      7  C   UNL     1      -3.204  12.308  19.403  0.00  0.00    +0.000 A 
ATOM      8  C   UNL     1      -3.159  11.536  18.232  0.00  0.00    +0.000 A 
ATOM      9  C   UNL     1      -4.159  11.668  17.256  0.00  0.00    +0.000 A 
ATOM     10  C   UNL     1      -4.130  10.902  16.091  0.00  0.00    +0.000 A 
ATOM     11  C   UNL     1      -3.096   9.995  15.886  0.00  0.00    +0.000 A 
ATOM     12  C   UNL     1      -2.090   9.854  16.844  0.00  0.00    +0.000 A 
ATOM     13  C   UNL     1      -2.097  10.615  18.034  0.00  0.00    +0.000 A 
ATOM     14  C   UNL     1      -1.101  10.501  19.033  0.00  0.00    +0.000 A 
ATOM     15  O   UNL     1      -0.063   9.619  18.818  0.00  0.00    +0.000 OA
ENDROOT
BRANCH   1  20
ATOM     16  C   UNL     1       4.042   5.037  17.655  0.00  0.00    +0.000 C 
ATOM     17  C   UNL     1       2.976   6.046  18.075  0.00  0.00    +0.000 C 
ATOM     18  C   UNL     1       2.895   6.149  19.603  0.00  0.00    +0.000 C 
ATOM     19  C   UNL     1       1.835   7.159  20.041  0.00  0.00    +0.000 C 
ATOM     20  C   UNL     1       2.053   8.541  19.402  0.00  0.00    +0.000 C 
ATOM     21  C   UNL     1       2.197   8.443  17.874  0.00  0.00    +0.000 C 
ATOM     22  C   UNL     1       3.255   7.422  17.460  0.00  0.00    +0.000 C 
ENDBRANCH   1  20
TORSDOF 1
ENDMDL
MODEL 8
REMARK VINA RESULT:      -7.8      1.554      3.720
REMARK  Name = 
REMARK  2 active torsions:
REMARK  status: ('A' for Active; 'I' for Inactive)
REMARK    1  A    between atoms: C_1  and  C_2
REMARK    2  A    between atoms: C_5  and  C_6
REMARK                            x       y       z     vdW  Elec       q    Type
REMARK                         _______ _______ _______ _____ _____    ______ ____
ROOT
ATOM      1  C   UNL     1       2.508   7.826  18.025  0.00  0.00    +0.000 A 
ATOM      2  C   UNL     1       3.641   8.116  17.369  0.00  0.00    +0.000 A 
ATOM      3  C   UNL     1       4.535   7.029  16.950  0.00  0.00    +0.000 A 
ATOM      4  O   UNL     1       5.570   7.265  16.342  0.00  0.00    +0.000 OA
ATOM      5  C   UNL     1       4.121   5.665  17.306  0.00  0.00    +0.000 A 
ATOM      6  C   UNL     1       4.936   4.581  16.979  0.00  0.00    +0.000 A 
ATOM      7  C   UNL     1       4.532   3.290  17.312  0.00  0.00    +0.000 A 
ATOM      8  C   UNL     1       3.310   3.066  17.965  0.00  0.00    +0.000 A 
ATOM      9  C   UNL     1       2.905   1.760  18.284  0.00  0.00    +0.000 A 
ATOM     10  C   UNL     1       1.690   1.523  18.925  0.00  0.00    +0.000 A 
ATOM     11  C   UNL     1       0.864   2.591  19.260  0.00  0.00    +0.000 A 
ATOM     12  C   UNL     1       1.254   3.896  18.954  0.00  0.00    +0.000 A 
ATOM     13  C   UNL     1       2.478   4.164  18.303  0.00  0.00    +0.000 A 
ATOM     14  C   UNL     1       2.908   5.471  17.970  0.00  0.00    +0.000 A 
ATOM     15  O   UNL     1       2.102   6.532  18.324  0.00  0.00    +0.000 OA
ENDROOT
BRANCH   1  20
ATOM     16  C   UNL     1       0.149  12.428  20.726  0.00  0.00    +0.000 C 
ATOM     17  C   UNL     1       1.033  11.303  20.193  0.00  0.00    +0.000 C 
ATOM     18  C   UNL     1       0.448   9.932  20.555  0.00  0.00    +0.000 C 
ATOM     19  C   UNL     1       1.319   8.794  20.025  0.00  0.00    +0.000 C 
ATOM     20  C   UNL     1       1.565   8.910  18.512  0.00  0.00    +0.000 C 
ATOM     21  C   UNL     1       2.095  10.303  18.129  0.00  0.00    +0.000 C 
ATOM     22  C   UNL     1       1.214  11.424  18.676  0.00  0.00    +0.000 C 
ENDBRANCH   1  20
TORSDOF 1
ENDMDL
MODEL 9
REMARK VINA RESULT:      -7.8      2.263      7.604
REMARK  Name = 
REMARK  2 active torsions:
REMARK  status: ('A' for Active; 'I' for Inactive)
REMARK    1  A    between atoms: C_1  and  C_2
REMARK    2  A    between atoms: C_5  and  C_6
REMARK                            x       y       z     vdW  Elec       q    Type
REMARK                         _______ _______ _______ _____ _____    ______ ____
ROOT
ATOM      1  C   UNL     1       2.108   7.686  19.184  0.00  0.00    +0.000 A 
ATOM      2  C   UNL     1       2.525   8.397  18.128  0.00  0.00    +0.000 A 
ATOM      3  C   UNL     1       2.153   9.814  18.017  0.00  0.00    +0.000 A 
ATOM      4  O   UNL     1       2.528  10.489  17.067  0.00  0.00    +0.000 OA
ATOM      5  C   UNL     1       1.313  10.359  19.092  0.00  0.00    +0.000 A 
ATOM      6  C   UNL     1       0.884  11.685  19.038  0.00  0.00    +0.000 A 
ATOM      7  C   UNL     1       0.095  12.196  20.065  0.00  0.00    +0.000 A 
ATOM      8  C   UNL     1      -0.266  11.396  21.160  0.00  0.00    +0.000 A 
ATOM      9  C   UNL     1      -1.050  11.924  22.197  0.00  0.00    +0.000 A 
ATOM     10  C   UNL     1      -1.409  11.142  23.294  0.00  0.00    +0.000 A 
ATOM     11  C   UNL     1      -0.991   9.817  23.365  0.00  0.00    +0.000 A 
ATOM     12  C   UNL     1      -0.216   9.274  22.339  0.00  0.00    +0.000 A 
ATOM     13  C   UNL     1       0.165  10.045  21.219  0.00  0.00    +0.000 A 
ATOM     14  C   UNL     1       0.954   9.536  20.160  0.00  0.00    +0.000 A 
ATOM     15  O   UNL     1       1.347   8.216  20.218  0.00  0.00    +0.000 OA
ENDROOT
BRANCH   1  20
ATOM     16  C   UNL     1       1.815   1.865  19.474  0.00  0.00    +0.000 C 
ATOM     17  C   UNL     1       1.569   3.367  19.344  0.00  0.00    +0.000 C 
ATOM     18  C   UNL     1       1.929   4.092  20.646  0.00  0.00    +0.000 C 
ATOM     19  C   UNL     1       1.692   5.597  20.533  0.00  0.00    +0.000 C 
ATOM     20  C   UNL     1       2.433   6.211  19.333  0.00  0.00    +0.000 C 
ATOM     21  C   UNL     1       2.127   5.453  18.030  0.00  0.00    +0.000 C 
ATOM     22  C   UNL     1       2.362   3.950  18.170  0.00  0.00    +0.000 C 
ENDBRANCH   1  20
TORSDOF 1
ENDMDL
