MODEL 1
REMARK VINA RESULT:      -8.1      0.000      0.000
REMARK  Name = 
REMARK  2 active torsions:
REMARK  status: ('A' for Active; 'I' for Inactive)
REMARK    1  A    between atoms: C_1  and  C_2
REMARK    2  A    between atoms: N_4  and  C_5
REMARK                            x       y       z     vdW  Elec       q    Type
REMARK                         _______ _______ _______ _____ _____    ______ ____
ROOT
ATOM      1  C   UNL     1       2.445   6.261  19.728  0.00  0.00    +0.000 A 
ATOM      2  C   UNL     1       1.587   7.374  19.660  0.00  0.00    +0.000 A 
ATOM      3  C   UNL     1       1.766   8.402  18.719  0.00  0.00    +0.000 A 
ATOM      4  C   UNL     1       2.827   8.370  17.822  0.00  0.00    +0.000 A 
ATOM      5  C   UNL     1       3.705   7.303  17.887  0.00  0.00    +0.000 A 
ATOM      6  C   UNL     1       3.517   6.226  18.824  0.00  0.00    +0.000 A 
ATOM      7  C   UNL     1       4.517   5.075  18.573  0.00  0.00    +0.000 C 
ATOM      8  C   UNL     1       5.924   5.684  18.615  0.00  0.00    +0.000 A 
ATOM      9  C   UNL     1       6.957   5.315  19.464  0.00  0.00    +0.000 A 
ATOM     10  C   UNL     1       8.166   6.024  19.417  0.00  0.00    +0.000 A 
ATOM     11  C   UNL     1       8.337   7.085  18.520  0.00  0.00    +0.000 A 
ATOM     12  C   UNL     1       7.303   7.470  17.670  0.00  0.00    +0.000 A 
ATOM     13  C   UNL     1       6.102   6.770  17.723  0.00  0.00    +0.000 A 
ATOM     14  C   UNL     1       4.867   7.097  16.899  0.00  0.00    +0.000 C 
ATOM     15  C   UNL     1       4.462   5.831  16.125  0.00  0.00    +0.000 C 
ATOM     16  C   UNL     1       5.511   5.270  15.206  0.00  0.00    +0.000 C 
ATOM     17  O   UNL     1       6.222   5.898  14.444  0.00  0.00    +0.000 OA
ATOM     18  N   UNL     1       5.509   3.915  15.357  0.00  0.00    +0.000 N 
ATOM     19  C   UNL     1       4.931   3.511  16.520  0.00  0.00    +0.000 C 
ATOM     20  O   UNL     1       4.993   2.386  16.989  0.00  0.00    +0.000 OA
ATOM     21  C   UNL     1       4.172   4.662  17.110  0.00  0.00    +0.000 C 
ATOM     22  H   UNL     1       6.111   3.313  14.818  0.00  0.00    +0.000 HD
ENDROOT
BRANCH   1  26
ATOM     23  C   UNL     1       1.435   3.185  21.683  0.00  0.00    +0.000 C 
ATOM     24  C   UNL     1       1.610   4.012  20.436  0.00  0.00    +0.000 C 
ATOM     25  O   UNL     1       1.207   3.587  19.359  0.00  0.00    +0.000 OA
ATOM     26  N   UNL     1       2.245   5.225  20.671  0.00  0.00    +0.000 N 
ATOM     27  H   UNL     1       2.624   5.367  21.598  0.00  0.00    +0.000 HD
ENDBRANCH   1  26
TORSDOF 1
ENDMDL
MODEL 2
REMARK VINA RESULT:      -7.5      1.750      5.762
REMARK  Name = 
REMARK  2 active torsions:
REMARK  status: ('A' for Active; 'I' for Inactive)
REMARK    1  A    between atoms: C_1  and  C_2
REMARK    2  A    between atoms: N_4  and  C_5
REMARK                            x       y       z     vdW  Elec       q    Type
REMARK                         _______ _______ _______ _____ _____    ______ ____
ROOT
ATOM      1  C   UNL     1       6.111   4.373  16.612  0.00  0.00    +0.000 A 
ATOM      2  C   UNL     1       7.451   4.553  17.000  0.00  0.00    +0.000 A 
ATOM      3  C   UNL     1       7.810   4.916  18.309  0.00  0.00    +0.000 A 
ATOM      4  C   UNL     1       6.840   5.138  19.279  0.00  0.00    +0.000 A 
ATOM      5  C   UNL     1       5.511   4.999  18.917  0.00  0.00    +0.000 A 
ATOM      6  C   UNL     1       5.129   4.596  17.589  0.00  0.00    +0.000 A 
ATOM      7  C   UNL     1       3.609   4.335  17.492  0.00  0.00    +0.000 C 
ATOM      8  C   UNL     1       2.902   5.608  17.974  0.00  0.00    +0.000 A 
ATOM      9  C   UNL     1       1.998   6.372  17.250  0.00  0.00    +0.000 A 
ATOM     10  C   UNL     1       1.492   7.550  17.819  0.00  0.00    +0.000 A 
ATOM     11  C   UNL     1       1.884   7.950  19.101  0.00  0.00    +0.000 A 
ATOM     12  C   UNL     1       2.799   7.195  19.832  0.00  0.00    +0.000 A 
ATOM     13  C   UNL     1       3.304   6.030  19.264  0.00  0.00    +0.000 A 
ATOM     14  C   UNL     1       4.343   5.127  19.910  0.00  0.00    +0.000 C 
ATOM     15  C   UNL     1       3.763   3.704  19.971  0.00  0.00    +0.000 C 
ATOM     16  C   UNL     1       2.473   3.561  20.728  0.00  0.00    +0.000 C 
ATOM     17  O   UNL     1       2.200   4.064  21.802  0.00  0.00    +0.000 OA
ATOM     18  N   UNL     1       1.661   2.737  20.008  0.00  0.00    +0.000 N 
ATOM     19  C   UNL     1       2.027   2.641  18.701  0.00  0.00    +0.000 C 
ATOM     20  O   UNL     1       1.353   2.149  17.810  0.00  0.00    +0.000 OA
ATOM     21  C   UNL     1       3.409   3.200  18.542  0.00  0.00    +0.000 C 
ATOM     22  H   UNL     1       0.745   2.466  20.331  0.00  0.00    +0.000 HD
ENDROOT
BRANCH   1  26
ATOM     23  C   UNL     1       5.648   3.971  12.880  0.00  0.00    +0.000 C 
ATOM     24  C   UNL     1       6.339   4.468  14.124  0.00  0.00    +0.000 C 
ATOM     25  O   UNL     1       7.307   5.215  14.028  0.00  0.00    +0.000 OA
ATOM     26  N   UNL     1       5.762   3.993  15.294  0.00  0.00    +0.000 N 
ATOM     27  H   UNL     1       5.046   3.287  15.193  0.00  0.00    +0.000 HD
ENDBRANCH   1  26
TORSDOF 1
ENDMDL
MODEL 3
REMARK VINA RESULT:      -7.5      6.409      8.927
REMARK  Name = 
REMARK  2 active torsions:
REMARK  status: ('A' for Active; 'I' for Inactive)
REMARK    1  A    between atoms: C_1  and  C_2
REMARK    2  A    between atoms: N_4  and  C_5
REMARK                            x       y       z     vdW  Elec       q    Type
REMARK                         _______ _______ _______ _____ _____    ______ ____
ROOT
ATOM      1  C   UNL     1      -1.249  11.570  22.394  0.00  0.00    +0.000 A 
ATOM      2  C   UNL     1      -1.136  10.554  23.359  0.00  0.00    +0.000 A 
ATOM      3  C   UNL     1      -0.540   9.313  23.076  0.00  0.00    +0.000 A 
ATOM      4  C   UNL     1      -0.055   9.030  21.805  0.00  0.00    +0.000 A 
ATOM      5  C   UNL     1      -0.181   9.999  20.826  0.00  0.00    +0.000 A 
ATOM      6  C   UNL     1      -0.760  11.287  21.110  0.00  0.00    +0.000 A 
ATOM      7  C   UNL     1      -0.618  12.249  19.908  0.00  0.00    +0.000 C 
ATOM      8  C   UNL     1      -1.243  11.550  18.696  0.00  0.00    +0.000 A 
ATOM      9  C   UNL     1      -2.288  12.027  17.918  0.00  0.00    +0.000 A 
ATOM     10  C   UNL     1      -2.788  11.227  16.880  0.00  0.00    +0.000 A 
ATOM     11  C   UNL     1      -2.238   9.966  16.622  0.00  0.00    +0.000 A 
ATOM     12  C   UNL     1      -1.195   9.473  17.404  0.00  0.00    +0.000 A 
ATOM     13  C   UNL     1      -0.705  10.265  18.437  0.00  0.00    +0.000 A 
ATOM     14  C   UNL     1       0.391   9.852  19.406  0.00  0.00    +0.000 C 
ATOM     15  C   UNL     1       1.500  10.917  19.351  0.00  0.00    +0.000 C 
ATOM     16  C   UNL     1       2.120  11.140  18.000  0.00  0.00    +0.000 C 
ATOM     17  O   UNL     1       2.458  10.283  17.205  0.00  0.00    +0.000 OA
ATOM     18  N   UNL     1       2.263  12.484  17.828  0.00  0.00    +0.000 N 
ATOM     19  C   UNL     1       1.464  13.213  18.654  0.00  0.00    +0.000 C 
ATOM     20  O   UNL     1       1.244  14.409  18.555  0.00  0.00    +0.000 OA
ATOM     21  C   UNL     1       0.930  12.315  19.730  0.00  0.00    +0.000 C 
ATOM     22  H   UNL     1       2.687  12.880  17.004  0.00  0.00    +0.000 HD
ENDROOT
BRANCH   1  26
ATOM     23  C   UNL     1      -3.497  14.558  22.959  0.00  0.00    +0.000 C 
ATOM     24  C   UNL     1      -3.198  13.097  22.749  0.00  0.00    +0.000 C 
ATOM     25  O   UNL     1      -4.119  12.293  22.647  0.00  0.00    +0.000 OA
ATOM     26  N   UNL     1      -1.838  12.821  22.696  0.00  0.00    +0.000 N 
ATOM     27  H   UNL     1      -1.211  13.582  22.922  0.00  0.00    +0.000 HD
ENDBRANCH   1  26
TORSDOF 1
ENDMDL
MODEL 4
REMARK VINA RESULT:      -7.4      7.910     10.527
REMARK  Name = 
REMARK  2 active torsions:
REMARK  status: ('A' for Active; 'I' for Inactive)
REMARK    1  A    between atoms: C_1  and  C_2
REMARK    2  A    between atoms: N_4  and  C_5
REMARK                            x       y       z     vdW  Elec       q    Type
REMARK                         _______ _______ _______ _____ _____    ______ ____
ROOT
ATOM      1  C   UNL     1      -4.121  12.161  18.825  0.00  0.00    +0.000 A 
ATOM      2  C   UNL     1      -5.485  12.263  19.153  0.00  0.00    +0.000 A 
ATOM      3  C   UNL     1      -5.923  12.559  20.455  0.00  0.00    +0.000 A 
ATOM      4  C   UNL     1      -5.013  12.739  21.489  0.00  0.00    +0.000 A 
ATOM      5  C   UNL     1      -3.665  12.613  21.202  0.00  0.00    +0.000 A 
ATOM      6  C   UNL     1      -3.200  12.343  19.867  0.00  0.00    +0.000 A 
ATOM      7  C   UNL     1      -1.659  12.434  19.774  0.00  0.00    +0.000 C 
ATOM      8  C   UNL     1      -1.088  11.477  20.827  0.00  0.00    +0.000 A 
ATOM      9  C   UNL     1      -0.231  10.411  20.593  0.00  0.00    +0.000 A 
ATOM     10  C   UNL     1       0.145   9.589  21.665  0.00  0.00    +0.000 A 
ATOM     11  C   UNL     1      -0.327   9.841  22.958  0.00  0.00    +0.000 A 
ATOM     12  C   UNL     1      -1.197  10.903  23.202  0.00  0.00    +0.000 A 
ATOM     13  C   UNL     1      -1.574  11.713  22.136  0.00  0.00    +0.000 A 
ATOM     14  C   UNL     1      -2.549  12.875  22.229  0.00  0.00    +0.000 C 
ATOM     15  C   UNL     1      -1.846  14.131  21.685  0.00  0.00    +0.000 C 
ATOM     16  C   UNL     1      -0.576  14.519  22.390  0.00  0.00    +0.000 C 
ATOM     17  O   UNL     1      -0.389  14.541  23.592  0.00  0.00    +0.000 OA
ATOM     18  N   UNL     1       0.333  14.872  21.437  0.00  0.00    +0.000 N 
ATOM     19  C   UNL     1       0.024  14.387  20.204  0.00  0.00    +0.000 C 
ATOM     20  O   UNL     1       0.771  14.376  19.239  0.00  0.00    +0.000 OA
ATOM     21  C   UNL     1      -1.396  13.907  20.213  0.00  0.00    +0.000 C 
ATOM     22  H   UNL     1       1.256  15.201  21.670  0.00  0.00    +0.000 HD
ENDROOT
BRANCH   1  26
ATOM     23  C   UNL     1      -2.761  10.700  15.612  0.00  0.00    +0.000 C 
ATOM     24  C   UNL     1      -3.293  10.640  17.021  0.00  0.00    +0.000 C 
ATOM     25  O   UNL     1      -3.337   9.566  17.612  0.00  0.00    +0.000 OA
ATOM     26  N   UNL     1      -3.693  11.878  17.506  0.00  0.00    +0.000 N 
ATOM     27  H   UNL     1      -3.704  12.642  16.845  0.00  0.00    +0.000 HD
ENDBRANCH   1  26
TORSDOF 1
ENDMDL
MODEL 5
REMARK VINA RESULT:      -7.4      6.316      8.880
REMARK  Name = 
REMARK  2 active torsions:
REMARK  status: ('A' for Active; 'I' for Inactive)
REMARK    1  A    between atoms: C_1  and  C_2
REMARK    2  A    between atoms: N_4  and  C_5
REMARK                            x       y       z     vdW  Elec       q    Type
REMARK                         _______ _______ _______ _____ _____    ______ ____
ROOT
ATOM      1  C   UNL     1      -3.395  12.048  18.853  0.00  0.00    +0.000 A 
ATOM      2  C   UNL     1      -4.099  11.449  17.793  0.00  0.00    +0.000 A 
ATOM      3  C   UNL     1      -3.551  10.410  17.022  0.00  0.00    +0.000 A 
ATOM      4  C   UNL     1      -2.265   9.945  17.264  0.00  0.00    +0.000 A 
ATOM      5  C   UNL     1      -1.536  10.538  18.280  0.00  0.00    +0.000 A 
ATOM      6  C   UNL     1      -2.096  11.581  19.100  0.00  0.00    +0.000 A 
ATOM      7  C   UNL     1      -1.158  11.944  20.274  0.00  0.00    +0.000 C 
ATOM      8  C   UNL     1       0.203  12.306  19.666  0.00  0.00    +0.000 A 
ATOM      9  C   UNL     1       0.878  13.509  19.815  0.00  0.00    +0.000 A 
ATOM     10  C   UNL     1       2.089  13.701  19.133  0.00  0.00    +0.000 A 
ATOM     11  C   UNL     1       2.618  12.694  18.319  0.00  0.00    +0.000 A 
ATOM     12  C   UNL     1       1.943  11.486  18.155  0.00  0.00    +0.000 A 
ATOM     13  C   UNL     1       0.739  11.299  18.826  0.00  0.00    +0.000 A 
ATOM     14  C   UNL     1      -0.138  10.063  18.713  0.00  0.00    +0.000 C 
ATOM     15  C   UNL     1      -0.368   9.510  20.130  0.00  0.00    +0.000 C 
ATOM     16  C   UNL     1       0.875   9.142  20.891  0.00  0.00    +0.000 C 
ATOM     17  O   UNL     1       1.838   8.535  20.462  0.00  0.00    +0.000 OA
ATOM     18  N   UNL     1       0.723   9.590  22.170  0.00  0.00    +0.000 N 
ATOM     19  C   UNL     1      -0.226  10.558  22.285  0.00  0.00    +0.000 C 
ATOM     20  O   UNL     1      -0.403  11.265  23.263  0.00  0.00    +0.000 OA
ATOM     21  C   UNL     1      -1.045  10.585  21.029  0.00  0.00    +0.000 C 
ATOM     22  H   UNL     1       1.419   9.432  22.882  0.00  0.00    +0.000 HD
ENDROOT
BRANCH   1  26
ATOM     23  C   UNL     1      -5.456  14.258  21.128  0.00  0.00    +0.000 C 
ATOM     24  C   UNL     1      -4.976  12.942  20.573  0.00  0.00    +0.000 C 
ATOM     25  O   UNL     1      -5.479  11.893  20.964  0.00  0.00    +0.000 OA
ATOM     26  N   UNL     1      -3.964  13.084  19.632  0.00  0.00    +0.000 N 
ATOM     27  H   UNL     1      -3.580  14.011  19.516  0.00  0.00    +0.000 HD
ENDBRANCH   1  26
TORSDOF 1
ENDMDL
MODEL 6
REMARK VINA RESULT:      -7.4      7.317      9.460
REMARK  Name = 
REMARK  2 active torsions:
REMARK  status: ('A' for Active; 'I' for Inactive)
REMARK    1  A    between atoms: C_1  and  C_2
REMARK    2  A    between atoms: N_4  and  C_5
REMARK                            x       y       z     vdW  Elec       q    Type
REMARK                         _______ _______ _______ _____ _____    ______ ____
ROOT
ATOM      1  C   UNL     1      -3.230  11.247  18.177  0.00  0.00    +0.000 A 
ATOM      2  C   UNL     1      -4.523  11.780  18.318  0.00  0.00    +0.000 A 
ATOM      3  C   UNL     1      -4.883  12.597  19.404  0.00  0.00    +0.000 A 
ATOM      4  C   UNL     1      -3.968  12.895  20.405  0.00  0.00    +0.000 A 
ATOM      5  C   UNL     1      -2.696  12.358  20.309  0.00  0.00    +0.000 A 
ATOM      6  C   UNL     1      -2.303  11.546  19.187  0.00  0.00    +0.000 A 
ATOM      7  C   UNL     1      -0.791  11.226  19.220  0.00  0.00    +0.000 C 
ATOM      8  C   UNL     1      -0.499  10.577  20.579  0.00  0.00    +0.000 A 
ATOM      9  C   UNL     1       0.054   9.323  20.791  0.00  0.00    +0.000 A 
ATOM     10  C   UNL     1       0.194   8.851  22.104  0.00  0.00    +0.000 A 
ATOM     11  C   UNL     1      -0.210   9.634  23.191  0.00  0.00    +0.000 A 
ATOM     12  C   UNL     1      -0.777  10.891  22.989  0.00  0.00    +0.000 A 
ATOM     13  C   UNL     1      -0.920  11.355  21.685  0.00  0.00    +0.000 A 
ATOM     14  C   UNL     1      -1.561  12.678  21.297  0.00  0.00    +0.000 C 
ATOM     15  C   UNL     1      -0.551  13.465  20.445  0.00  0.00    +0.000 C 
ATOM     16  C   UNL     1       0.769  13.752  21.105  0.00  0.00    +0.000 C 
ATOM     17  O   UNL     1       0.943  14.137  22.245  0.00  0.00    +0.000 OA
ATOM     18  N   UNL     1       1.748  13.529  20.182  0.00  0.00    +0.000 N 
ATOM     19  C   UNL     1       1.337  12.743  19.151  0.00  0.00    +0.000 C 
ATOM     20  O   UNL     1       2.065  12.224  18.321  0.00  0.00    +0.000 OA
ATOM     21  C   UNL     1      -0.159  12.651  19.178  0.00  0.00    +0.000 C 
ATOM     22  H   UNL     1       2.723  13.685  20.384  0.00  0.00    +0.000 HD
ENDROOT
BRANCH   1  26
ATOM     23  C   UNL     1      -2.741   9.594  14.810  0.00  0.00    +0.000 C 
ATOM     24  C   UNL     1      -3.113  10.725  15.733  0.00  0.00    +0.000 C 
ATOM     25  O   UNL     1      -3.573  11.765  15.272  0.00  0.00    +0.000 OA
ATOM     26  N   UNL     1      -2.876  10.437  17.071  0.00  0.00    +0.000 N 
ATOM     27  H   UNL     1      -2.378   9.580  17.269  0.00  0.00    +0.000 HD
ENDBRANCH   1  26
TORSDOF 1
ENDMDL
MODEL 7
REMARK VINA RESULT:      -7.3      2.223      4.360
REMARK  Name = 
REMARK  2 active torsions:
REMARK  status: ('A' for Active; 'I' for Inactive)
REMARK    1  A    between atoms: C_1  and  C_2
REMARK    2  A    between atoms: N_4  and  C_5
REMARK                            x       y       z     vdW  Elec       q    Type
REMARK                         _______ _______ _______ _____ _____    ______ ____
ROOT
ATOM      1  C   UNL     1       2.441   6.176  18.259  0.00  0.00    +0.000 A 
ATOM      2  C   UNL     1       1.644   5.326  19.048  0.00  0.00    +0.000 A 
ATOM      3  C   UNL     1       2.077   4.050  19.447  0.00  0.00    +0.000 A 
ATOM      4  C   UNL     1       3.316   3.562  19.051  0.00  0.00    +0.000 A 
ATOM      5  C   UNL     1       4.108   4.364  18.248  0.00  0.00    +0.000 A 
ATOM      6  C   UNL     1       3.692   5.686  17.858  0.00  0.00    +0.000 A 
ATOM      7  C   UNL     1       4.823   6.442  17.124  0.00  0.00    +0.000 C 
ATOM      8  C   UNL     1       5.259   5.563  15.945  0.00  0.00    +0.000 A 
ATOM      9  C   UNL     1       5.251   5.920  14.604  0.00  0.00    +0.000 A 
ATOM     10  C   UNL     1       5.621   4.969  13.642  0.00  0.00    +0.000 A 
ATOM     11  C   UNL     1       6.002   3.678  14.024  0.00  0.00    +0.000 A 
ATOM     12  C   UNL     1       6.004   3.306  15.367  0.00  0.00    +0.000 A 
ATOM     13  C   UNL     1       5.631   4.249  16.319  0.00  0.00    +0.000 A 
ATOM     14  C   UNL     1       5.535   3.986  17.813  0.00  0.00    +0.000 C 
ATOM     15  C   UNL     1       6.418   5.017  18.536  0.00  0.00    +0.000 C 
ATOM     16  C   UNL     1       7.870   5.015  18.146  0.00  0.00    +0.000 C 
ATOM     17  O   UNL     1       8.579   4.038  17.990  0.00  0.00    +0.000 OA
ATOM     18  N   UNL     1       8.266   6.313  18.023  0.00  0.00    +0.000 N 
ATOM     19  C   UNL     1       7.225   7.172  17.854  0.00  0.00    +0.000 C 
ATOM     20  O   UNL     1       7.316   8.339  17.510  0.00  0.00    +0.000 OA
ATOM     21  C   UNL     1       5.949   6.463  18.201  0.00  0.00    +0.000 C 
ATOM     22  H   UNL     1       9.214   6.567  17.796  0.00  0.00    +0.000 HD
ENDROOT
BRANCH   1  26
ATOM     23  C   UNL     1       1.118   9.711  18.017  0.00  0.00    +0.000 C 
ATOM     24  C   UNL     1       1.696   8.516  18.731  0.00  0.00    +0.000 C 
ATOM     25  O   UNL     1       1.852   8.547  19.947  0.00  0.00    +0.000 OA
ATOM     26  N   UNL     1       1.999   7.465  17.876  0.00  0.00    +0.000 N 
ATOM     27  H   UNL     1       1.924   7.650  16.885  0.00  0.00    +0.000 HD
ENDBRANCH   1  26
TORSDOF 1
ENDMDL
MODEL 8
REMARK VINA RESULT:      -7.3      6.182      8.974
REMARK  Name = 
REMARK  2 active torsions:
REMARK  status: ('A' for Active; 'I' for Inactive)
REMARK    1  A    between atoms: C_1  and  C_2
REMARK    2  A    between atoms: N_4  and  C_5
REMARK                            x       y       z     vdW  Elec       q    Type
REMARK                         _______ _______ _______ _____ _____    ______ ____
ROOT
ATOM      1  C   UNL     1      -1.159  11.971  22.294  0.00  0.00    +0.000 A 
ATOM      2  C   UNL     1      -1.162  11.039  23.348  0.00  0.00    +0.000 A 
ATOM      3  C   UNL     1      -0.710   9.719  23.183  0.00  0.00    +0.000 A 
ATOM      4  C   UNL     1      -0.260   9.269  21.948  0.00  0.00    +0.000 A 
ATOM      5  C   UNL     1      -0.276  10.155  20.885  0.00  0.00    +0.000 A 
ATOM      6  C   UNL     1      -0.705  11.520  21.046  0.00  0.00    +0.000 A 
ATOM      7  C   UNL     1      -0.455  12.348  19.765  0.00  0.00    +0.000 C 
ATOM      8  C   UNL     1      -1.156  11.617  18.613  0.00  0.00    +0.000 A 
ATOM      9  C   UNL     1      -2.140  12.137  17.785  0.00  0.00    +0.000 A 
ATOM     10  C   UNL     1      -2.726  11.307  16.818  0.00  0.00    +0.000 A 
ATOM     11  C   UNL     1      -2.323   9.975  16.680  0.00  0.00    +0.000 A 
ATOM     12  C   UNL     1      -1.342   9.440  17.513  0.00  0.00    +0.000 A 
ATOM     13  C   UNL     1      -0.766  10.262  18.476  0.00  0.00    +0.000 A 
ATOM     14  C   UNL     1       0.277   9.817  19.489  0.00  0.00    +0.000 C 
ATOM     15  C   UNL     1       1.499  10.741  19.351  0.00  0.00    +0.000 C 
ATOM     16  C   UNL     1       2.140  10.770  17.992  0.00  0.00    +0.000 C 
ATOM     17  O   UNL     1       2.379   9.813  17.281  0.00  0.00    +0.000 OA
ATOM     18  N   UNL     1       2.434  12.069  17.702  0.00  0.00    +0.000 N 
ATOM     19  C   UNL     1       1.722  12.954  18.451  0.00  0.00    +0.000 C 
ATOM     20  O   UNL     1       1.639  14.154  18.243  0.00  0.00    +0.000 OA
ATOM     21  C   UNL     1       1.090  12.222  19.597  0.00  0.00    +0.000 C 
ATOM     22  H   UNL     1       2.900  12.338  16.850  0.00  0.00    +0.000 HD
ENDROOT
BRANCH   1  26
ATOM     23  C   UNL     1      -1.595  15.654  23.035  0.00  0.00    +0.000 C 
ATOM     24  C   UNL     1      -0.803  14.402  22.758  0.00  0.00    +0.000 C 
ATOM     25  O   UNL     1       0.423  14.434  22.796  0.00  0.00    +0.000 OA
ATOM     26  N   UNL     1      -1.603  13.302  22.477  0.00  0.00    +0.000 N 
ATOM     27  H   UNL     1      -2.592  13.477  22.366  0.00  0.00    +0.000 HD
ENDBRANCH   1  26
TORSDOF 1
ENDMDL
MODEL 9
REMARK VINA RESULT:      -7.0      1.597      5.488
REMARK  Name = 
REMARK  2 active torsions:
REMARK  status: ('A' for Active; 'I' for Inactive)
REMARK    1  A    between atoms: C_1  and  C_2
REMARK    2  A    between atoms: N_4  and  C_5
REMARK                            x       y       z     vdW  Elec       q    Type
REMARK                         _______ _______ _______ _____ _____    ______ ____
ROOT
ATOM      1  C   UNL     1       6.609   5.565  16.975  0.00  0.00    +0.000 A 
ATOM      2  C   UNL     1       7.826   5.622  17.677  0.00  0.00    +0.000 A 
ATOM      3  C   UNL     1       7.884   5.579  19.081  0.00  0.00    +0.000 A 
ATOM      4  C   UNL     1       6.723   5.501  19.840  0.00  0.00    +0.000 A 
ATOM      5  C   UNL     1       5.509   5.475  19.176  0.00  0.00    +0.000 A 
ATOM      6  C   UNL     1       5.435   5.486  17.738  0.00  0.00    +0.000 A 
ATOM      7  C   UNL     1       3.988   5.264  17.244  0.00  0.00    +0.000 C 
ATOM      8  C   UNL     1       3.115   6.334  17.911  0.00  0.00    +0.000 A 
ATOM      9  C   UNL     1       2.332   7.279  17.264  0.00  0.00    +0.000 A 
ATOM     10  C   UNL     1       1.644   8.233  18.027  0.00  0.00    +0.000 A 
ATOM     11  C   UNL     1       1.737   8.233  19.423  0.00  0.00    +0.000 A 
ATOM     12  C   UNL     1       2.530   7.296  20.082  0.00  0.00    +0.000 A 
ATOM     13  C   UNL     1       3.216   6.353  19.323  0.00  0.00    +0.000 A 
ATOM     14  C   UNL     1       4.156   5.300  19.887  0.00  0.00    +0.000 C 
ATOM     15  C   UNL     1       3.670   3.922  19.404  0.00  0.00    +0.000 C 
ATOM     16  C   UNL     1       2.264   3.559  19.790  0.00  0.00    +0.000 C 
ATOM     17  O   UNL     1       1.744   3.719  20.878  0.00  0.00    +0.000 OA
ATOM     18  N   UNL     1       1.673   2.986  18.703  0.00  0.00    +0.000 N 
ATOM     19  C   UNL     1       2.305   3.284  17.536  0.00  0.00    +0.000 C 
ATOM     20  O   UNL     1       1.863   3.080  16.418  0.00  0.00    +0.000 OA
ATOM     21  C   UNL     1       3.651   3.867  17.849  0.00  0.00    +0.000 C 
ATOM     22  H   UNL     1       0.730   2.630  18.729  0.00  0.00    +0.000 HD
ENDROOT
BRANCH   1  26
ATOM     23  C   UNL     1       6.544   4.848  13.262  0.00  0.00    +0.000 C 
ATOM     24  C   UNL     1       6.407   4.499  14.721  0.00  0.00    +0.000 C 
ATOM     25  O   UNL     1       6.178   3.341  15.054  0.00  0.00    +0.000 OA
ATOM     26  N   UNL     1       6.565   5.594  15.560  0.00  0.00    +0.000 N 
ATOM     27  H   UNL     1       6.627   6.500  15.117  0.00  0.00    +0.000 HD
ENDBRANCH   1  26
TORSDOF 1
ENDMDL
