MODEL 1
REMARK VINA RESULT:      -8.6      0.000      0.000
REMARK  Name = 
REMARK  5 active torsions:
REMARK  status: ('A' for Active; 'I' for Inactive)
REMARK    1  A    between atoms: C_2  and  C_3
REMARK    2  A    between atoms: C_3  and  N_4
REMARK    3  A    between atoms: N_12  and  C_13
REMARK    4  A    between atoms: C_19  and  C_20
REMARK    5  A    between atoms: C_20  and  C_22
REMARK                            x       y       z     vdW  Elec       q    Type
REMARK                         _______ _______ _______ _____ _____    ______ ____
ROOT
ATOM      1  C   UNL     1       4.394   4.530  19.127  0.00  0.00    +0.000 A 
ATOM      2  C   UNL     1       4.317   3.179  19.511  0.00  0.00    +0.000 A 
ATOM      3  C   UNL     1       3.117   2.472  19.421  0.00  0.00    +0.000 A 
ATOM      4  C   UNL     1       2.002   3.086  18.873  0.00  0.00    +0.000 A 
ATOM      5 CL   UNL     1       0.528   2.213  18.723  0.00  0.00    +0.000 Cl
ATOM      6  C   UNL     1       2.070   4.406  18.433  0.00  0.00    +0.000 A 
ATOM      7  C   UNL     1       3.246   5.167  18.602  0.00  0.00    +0.000 A 
ENDROOT
BRANCH   1  10
ATOM      8  O   UNL     1       6.579   4.432  17.270  0.00  0.00    +0.000 OA
ATOM      9  C   UNL     1       6.694   4.988  18.363  0.00  0.00    +0.000 C 
ATOM     10  N   UNL     1       5.668   5.122  19.285  0.00  0.00    +0.000 N 
ATOM     11  H   UNL     1       5.712   5.938  19.887  0.00  0.00    +0.000 HD
BRANCH   9  12
ATOM     12  C   UNL     1       7.981   5.672  18.777  0.00  0.00    +0.000 C 
BRANCH  12  13
ATOM     13  N   UNL     1       7.983   7.070  18.399  0.00  0.00    +0.000 N 
ATOM     14  C   UNL     1       7.386   7.643  17.313  0.00  0.00    +0.000 A 
ATOM     15  N   UNL     1       7.688   8.921  17.254  0.00  0.00    +0.000 NA
ATOM     16  C   UNL     1       8.497   9.088  18.352  0.00  0.00    +0.000 A 
ATOM     17  N   UNL     1       9.104  10.370  18.693  0.00  0.00    +0.000 N 
ATOM     18  O   UNL     1       8.831  11.339  17.968  0.00  0.00    +0.000 OA
ATOM     19  O   UNL     1       9.854  10.413  19.683  0.00  0.00    +0.000 OA
ATOM     20  N   UNL     1       8.706   7.981  19.092  0.00  0.00    +0.000 NA
ENDBRANCH  12  13
ENDBRANCH   9  12
ENDBRANCH   1  10
BRANCH   7  21
ATOM     21  C   UNL     1       3.252   6.562  18.053  0.00  0.00    +0.000 C 
ATOM     22  O   UNL     1       3.950   6.830  17.076  0.00  0.00    +0.000 OA
BRANCH  21  23
ATOM     23  C   UNL     1       2.324   7.607  18.597  0.00  0.00    +0.000 A 
ATOM     24  C   UNL     1       2.000   7.570  19.960  0.00  0.00    +0.000 A 
ATOM     25  C   UNL     1       1.251   8.601  20.535  0.00  0.00    +0.000 A 
ATOM     26  C   UNL     1       0.820   9.674  19.756  0.00  0.00    +0.000 A 
ATOM     27  C   UNL     1       1.100   9.698  18.391  0.00  0.00    +0.000 A 
ATOM     28  C   UNL     1       1.827   8.656  17.806  0.00  0.00    +0.000 A 
ENDBRANCH  21  23
ENDBRANCH   7  21
TORSDOF 5
ENDMDL
MODEL 2
REMARK VINA RESULT:      -8.2      4.147      6.339
REMARK  Name = 
REMARK  5 active torsions:
REMARK  status: ('A' for Active; 'I' for Inactive)
REMARK    1  A    between atoms: C_2  and  C_3
REMARK    2  A    between atoms: C_3  and  N_4
REMARK    3  A    between atoms: N_12  and  C_13
REMARK    4  A    between atoms: C_19  and  C_20
REMARK    5  A    between atoms: C_20  and  C_22
REMARK                            x       y       z     vdW  Elec       q    Type
REMARK                         _______ _______ _______ _____ _____    ______ ____
ROOT
ATOM      1  C   UNL     1       4.514   5.854  17.570  0.00  0.00    +0.000 A 
ATOM      2  C   UNL     1       4.729   6.567  16.378  0.00  0.00    +0.000 A 
ATOM      3  C   UNL     1       5.333   5.960  15.275  0.00  0.00    +0.000 A 
ATOM      4  C   UNL     1       5.657   4.614  15.328  0.00  0.00    +0.000 A 
ATOM      5 CL   UNL     1       6.369   3.848  13.964  0.00  0.00    +0.000 Cl
ATOM      6  C   UNL     1       5.401   3.874  16.481  0.00  0.00    +0.000 A 
ATOM      7  C   UNL     1       4.878   4.489  17.637  0.00  0.00    +0.000 A 
ENDROOT
BRANCH   1  10
ATOM      8  O   UNL     1       1.701   6.140  18.060  0.00  0.00    +0.000 OA
ATOM      9  C   UNL     1       2.533   6.732  18.750  0.00  0.00    +0.000 C 
ATOM     10  N   UNL     1       3.905   6.598  18.608  0.00  0.00    +0.000 N 
ATOM     11  H   UNL     1       4.456   6.727  19.449  0.00  0.00    +0.000 HD
BRANCH   9  12
ATOM     12  C   UNL     1       2.122   7.618  19.907  0.00  0.00    +0.000 C 
BRANCH  12  13
ATOM     13  N   UNL     1       1.458   8.819  19.445  0.00  0.00    +0.000 N 
ATOM     14  C   UNL     1       1.695   9.515  18.294  0.00  0.00    +0.000 A 
ATOM     15  N   UNL     1       0.961  10.604  18.266  0.00  0.00    +0.000 NA
ATOM     16  C   UNL     1       0.276  10.534  19.456  0.00  0.00    +0.000 A 
ATOM     17  N   UNL     1      -0.668  11.563  19.881  0.00  0.00    +0.000 N 
ATOM     18  O   UNL     1      -0.869  12.506  19.102  0.00  0.00    +0.000 OA
ATOM     19  O   UNL     1      -1.209  11.431  20.992  0.00  0.00    +0.000 OA
ATOM     20  N   UNL     1       0.543   9.453  20.215  0.00  0.00    +0.000 NA
ENDBRANCH  12  13
ENDBRANCH   9  12
ENDBRANCH   1  10
BRANCH   7  21
ATOM     21  C   UNL     1       4.583   3.610  18.815  0.00  0.00    +0.000 C 
ATOM     22  O   UNL     1       5.496   3.268  19.564  0.00  0.00    +0.000 OA
BRANCH  21  23
ATOM     23  C   UNL     1       3.172   3.247  19.170  0.00  0.00    +0.000 A 
ATOM     24  C   UNL     1       2.701   3.566  20.452  0.00  0.00    +0.000 A 
ATOM     25  C   UNL     1       1.356   3.371  20.778  0.00  0.00    +0.000 A 
ATOM     26  C   UNL     1       0.473   2.856  19.829  0.00  0.00    +0.000 A 
ATOM     27  C   UNL     1       0.941   2.495  18.567  0.00  0.00    +0.000 A 
ATOM     28  C   UNL     1       2.291   2.665  18.246  0.00  0.00    +0.000 A 
ENDBRANCH  21  23
ENDBRANCH   7  21
TORSDOF 5
ENDMDL
MODEL 3
REMARK VINA RESULT:      -8.0      3.421      5.322
REMARK  Name = 
REMARK  5 active torsions:
REMARK  status: ('A' for Active; 'I' for Inactive)
REMARK    1  A    between atoms: C_2  and  C_3
REMARK    2  A    between atoms: C_3  and  N_4
REMARK    3  A    between atoms: N_12  and  C_13
REMARK    4  A    between atoms: C_19  and  C_20
REMARK    5  A    between atoms: C_20  and  C_22
REMARK                            x       y       z     vdW  Elec       q    Type
REMARK                         _______ _______ _______ _____ _____    ______ ____
ROOT
ATOM      1  C   UNL     1       3.668   6.549  17.528  0.00  0.00    +0.000 A 
ATOM      2  C   UNL     1       3.964   7.924  17.497  0.00  0.00    +0.000 A 
ATOM      3  C   UNL     1       2.980   8.877  17.762  0.00  0.00    +0.000 A 
ATOM      4  C   UNL     1       1.711   8.465  18.137  0.00  0.00    +0.000 A 
ATOM      5 CL   UNL     1       0.501   9.631  18.501  0.00  0.00    +0.000 Cl
ATOM      6  C   UNL     1       1.412   7.107  18.229  0.00  0.00    +0.000 A 
ATOM      7  C   UNL     1       2.364   6.129  17.874  0.00  0.00    +0.000 A 
ENDROOT
BRANCH   1  10
ATOM      8  O   UNL     1       5.714   5.666  19.336  0.00  0.00    +0.000 OA
ATOM      9  C   UNL     1       5.738   5.357  18.143  0.00  0.00    +0.000 C 
ATOM     10  N   UNL     1       4.757   5.699  17.226  0.00  0.00    +0.000 N 
ATOM     11  H   UNL     1       4.623   5.055  16.454  0.00  0.00    +0.000 HD
BRANCH   9  12
ATOM     12  C   UNL     1       6.828   4.475  17.572  0.00  0.00    +0.000 C 
BRANCH  12  13
ATOM     13  N   UNL     1       6.759   4.416  16.126  0.00  0.00    +0.000 N 
ATOM     14  C   UNL     1       5.994   3.585  15.360  0.00  0.00    +0.000 A 
ATOM     15  N   UNL     1       6.272   3.762  14.087  0.00  0.00    +0.000 NA
ATOM     16  C   UNL     1       7.244   4.734  14.125  0.00  0.00    +0.000 A 
ATOM     17  N   UNL     1       7.886   5.250  12.921  0.00  0.00    +0.000 N 
ATOM     18  O   UNL     1       7.494   4.805  11.833  0.00  0.00    +0.000 OA
ATOM     19  O   UNL     1       8.782   6.099  13.060  0.00  0.00    +0.000 OA
ATOM     20  N   UNL     1       7.576   5.172  15.355  0.00  0.00    +0.000 NA
ENDBRANCH  12  13
ENDBRANCH   9  12
ENDBRANCH   1  10
BRANCH   7  21
ATOM     21  C   UNL     1       1.978   4.691  18.053  0.00  0.00    +0.000 C 
ATOM     22  O   UNL     1       1.546   4.052  17.095  0.00  0.00    +0.000 OA
BRANCH  21  23
ATOM     23  C   UNL     1       2.230   3.981  19.350  0.00  0.00    +0.000 A 
ATOM     24  C   UNL     1       1.257   4.061  20.356  0.00  0.00    +0.000 A 
ATOM     25  C   UNL     1       1.387   3.306  21.525  0.00  0.00    +0.000 A 
ATOM     26  C   UNL     1       2.488   2.467  21.698  0.00  0.00    +0.000 A 
ATOM     27  C   UNL     1       3.482   2.414  20.723  0.00  0.00    +0.000 A 
ATOM     28  C   UNL     1       3.368   3.188  19.564  0.00  0.00    +0.000 A 
ENDBRANCH  21  23
ENDBRANCH   7  21
TORSDOF 5
ENDMDL
MODEL 4
REMARK VINA RESULT:      -8.0      2.786      3.914
REMARK  Name = 
REMARK  5 active torsions:
REMARK  status: ('A' for Active; 'I' for Inactive)
REMARK    1  A    between atoms: C_2  and  C_3
REMARK    2  A    between atoms: C_3  and  N_4
REMARK    3  A    between atoms: N_12  and  C_13
REMARK    4  A    between atoms: C_19  and  C_20
REMARK    5  A    between atoms: C_20  and  C_22
REMARK                            x       y       z     vdW  Elec       q    Type
REMARK                         _______ _______ _______ _____ _____    ______ ____
ROOT
ATOM      1  C   UNL     1       4.132   4.709  19.078  0.00  0.00    +0.000 A 
ATOM      2  C   UNL     1       4.259   3.393  19.557  0.00  0.00    +0.000 A 
ATOM      3  C   UNL     1       3.306   2.845  20.417  0.00  0.00    +0.000 A 
ATOM      4  C   UNL     1       2.177   3.580  20.744  0.00  0.00    +0.000 A 
ATOM      5 CL   UNL     1       0.979   2.901  21.773  0.00  0.00    +0.000 Cl
ATOM      6  C   UNL     1       2.003   4.865  20.235  0.00  0.00    +0.000 A 
ATOM      7  C   UNL     1       2.999   5.472  19.441  0.00  0.00    +0.000 A 
ENDROOT
BRANCH   1  10
ATOM      8  O   UNL     1       6.860   5.206  19.819  0.00  0.00    +0.000 OA
ATOM      9  C   UNL     1       6.463   5.406  18.670  0.00  0.00    +0.000 C 
ATOM     10  N   UNL     1       5.178   5.136  18.227  0.00  0.00    +0.000 N 
ATOM     11  H   UNL     1       5.085   4.895  17.246  0.00  0.00    +0.000 HD
BRANCH   9  12
ATOM     12  C   UNL     1       7.394   5.897  17.581  0.00  0.00    +0.000 C 
BRANCH  12  13
ATOM     13  N   UNL     1       7.101   5.267  16.310  0.00  0.00    +0.000 N 
ATOM     14  C   UNL     1       6.423   4.104  16.091  0.00  0.00    +0.000 A 
ATOM     15  N   UNL     1       6.440   3.805  14.811  0.00  0.00    +0.000 NA
ATOM     16  C   UNL     1       7.166   4.841  14.272  0.00  0.00    +0.000 A 
ATOM     17  N   UNL     1       7.470   4.929  12.848  0.00  0.00    +0.000 N 
ATOM     18  O   UNL     1       7.011   4.043  12.112  0.00  0.00    +0.000 OA
ATOM     19  O   UNL     1       8.167   5.883  12.461  0.00  0.00    +0.000 OA
ATOM     20  N   UNL     1       7.592   5.769  15.151  0.00  0.00    +0.000 NA
ENDBRANCH  12  13
ENDBRANCH   9  12
ENDBRANCH   1  10
BRANCH   7  21
ATOM     21  C   UNL     1       2.709   6.836  18.891  0.00  0.00    +0.000 C 
ATOM     22  O   UNL     1       3.035   7.109  17.737  0.00  0.00    +0.000 OA
BRANCH  21  23
ATOM     23  C   UNL     1       1.912   7.831  19.680  0.00  0.00    +0.000 A 
ATOM     24  C   UNL     1       1.432   8.975  19.026  0.00  0.00    +0.000 A 
ATOM     25  C   UNL     1       0.572   9.857  19.686  0.00  0.00    +0.000 A 
ATOM     26  C   UNL     1       0.185   9.606  21.001  0.00  0.00    +0.000 A 
ATOM     27  C   UNL     1       0.691   8.495  21.675  0.00  0.00    +0.000 A 
ATOM     28  C   UNL     1       1.572   7.624  21.026  0.00  0.00    +0.000 A 
ENDBRANCH  21  23
ENDBRANCH   7  21
TORSDOF 5
ENDMDL
MODEL 5
REMARK VINA RESULT:      -8.0      4.572      7.132
REMARK  Name = 
REMARK  5 active torsions:
REMARK  status: ('A' for Active; 'I' for Inactive)
REMARK    1  A    between atoms: C_2  and  C_3
REMARK    2  A    between atoms: C_3  and  N_4
REMARK    3  A    between atoms: N_12  and  C_13
REMARK    4  A    between atoms: C_19  and  C_20
REMARK    5  A    between atoms: C_20  and  C_22
REMARK                            x       y       z     vdW  Elec       q    Type
REMARK                         _______ _______ _______ _____ _____    ______ ____
ROOT
ATOM      1  C   UNL     1       3.639   6.312  17.796  0.00  0.00    +0.000 A 
ATOM      2  C   UNL     1       4.744   6.957  17.212  0.00  0.00    +0.000 A 
ATOM      3  C   UNL     1       5.586   6.281  16.327  0.00  0.00    +0.000 A 
ATOM      4  C   UNL     1       5.286   4.979  15.958  0.00  0.00    +0.000 A 
ATOM      5 CL   UNL     1       6.297   4.150  14.841  0.00  0.00    +0.000 Cl
ATOM      6  C   UNL     1       4.164   4.340  16.481  0.00  0.00    +0.000 A 
ATOM      7  C   UNL     1       3.354   4.972  17.448  0.00  0.00    +0.000 A 
ENDROOT
BRANCH   1  10
ATOM      8  O   UNL     1       2.246   8.739  17.159  0.00  0.00    +0.000 OA
ATOM      9  C   UNL     1       2.279   8.305  18.311  0.00  0.00    +0.000 C 
ATOM     10  N   UNL     1       2.882   7.114  18.682  0.00  0.00    +0.000 N 
ATOM     11  H   UNL     1       2.479   6.639  19.483  0.00  0.00    +0.000 HD
BRANCH   9  12
ATOM     12  C   UNL     1       1.566   9.009  19.447  0.00  0.00    +0.000 C 
BRANCH  12  13
ATOM     13  N   UNL     1       0.548   9.915  18.954  0.00  0.00    +0.000 N 
ATOM     14  C   UNL     1       0.578  11.279  18.947  0.00  0.00    +0.000 A 
ATOM     15  N   UNL     1      -0.567  11.753  18.507  0.00  0.00    +0.000 NA
ATOM     16  C   UNL     1      -1.287  10.609  18.255  0.00  0.00    +0.000 A 
ATOM     17  N   UNL     1      -2.659  10.638  17.760  0.00  0.00    +0.000 N 
ATOM     18  O   UNL     1      -3.157  11.750  17.529  0.00  0.00    +0.000 OA
ATOM     19  O   UNL     1      -3.241   9.551  17.601  0.00  0.00    +0.000 OA
ATOM     20  N   UNL     1      -0.644   9.452  18.510  0.00  0.00    +0.000 NA
ENDBRANCH  12  13
ENDBRANCH   9  12
ENDBRANCH   1  10
BRANCH   7  21
ATOM     21  C   UNL     1       2.136   4.235  17.919  0.00  0.00    +0.000 C 
ATOM     22  O   UNL     1       1.172   4.109  17.167  0.00  0.00    +0.000 OA
BRANCH  21  23
ATOM     23  C   UNL     1       2.125   3.537  19.246  0.00  0.00    +0.000 A 
ATOM     24  C   UNL     1       3.328   3.008  19.734  0.00  0.00    +0.000 A 
ATOM     25  C   UNL     1       3.391   2.472  21.024  0.00  0.00    +0.000 A 
ATOM     26  C   UNL     1       2.256   2.460  21.834  0.00  0.00    +0.000 A 
ATOM     27  C   UNL     1       1.045   2.943  21.341  0.00  0.00    +0.000 A 
ATOM     28  C   UNL     1       0.972   3.456  20.043  0.00  0.00    +0.000 A 
ENDBRANCH  21  23
ENDBRANCH   7  21
TORSDOF 5
ENDMDL
MODEL 6
REMARK VINA RESULT:      -7.8      4.382      6.475
REMARK  Name = 
REMARK  5 active torsions:
REMARK  status: ('A' for Active; 'I' for Inactive)
REMARK    1  A    between atoms: C_2  and  C_3
REMARK    2  A    between atoms: C_3  and  N_4
REMARK    3  A    between atoms: N_12  and  C_13
REMARK    4  A    between atoms: C_19  and  C_20
REMARK    5  A    between atoms: C_20  and  C_22
REMARK                            x       y       z     vdW  Elec       q    Type
REMARK                         _______ _______ _______ _____ _____    ______ ____
ROOT
ATOM      1  C   UNL     1       3.612   6.313  17.885  0.00  0.00    +0.000 A 
ATOM      2  C   UNL     1       4.686   7.028  17.325  0.00  0.00    +0.000 A 
ATOM      3  C   UNL     1       5.526   6.440  16.378  0.00  0.00    +0.000 A 
ATOM      4  C   UNL     1       5.253   5.159  15.924  0.00  0.00    +0.000 A 
ATOM      5 CL   UNL     1       6.259   4.438  14.731  0.00  0.00    +0.000 Cl
ATOM      6  C   UNL     1       4.160   4.454  16.423  0.00  0.00    +0.000 A 
ATOM      7  C   UNL     1       3.356   4.993  17.449  0.00  0.00    +0.000 A 
ENDROOT
BRANCH   1  10
ATOM      8  O   UNL     1       1.978   8.623  17.407  0.00  0.00    +0.000 OA
ATOM      9  C   UNL     1       2.128   8.171  18.543  0.00  0.00    +0.000 C 
ATOM     10  N   UNL     1       2.855   7.029  18.841  0.00  0.00    +0.000 N 
ATOM     11  H   UNL     1       2.550   6.506  19.655  0.00  0.00    +0.000 HD
BRANCH   9  12
ATOM     12  C   UNL     1       1.440   8.788  19.742  0.00  0.00    +0.000 C 
BRANCH  12  13
ATOM     13  N   UNL     1       0.743  10.007  19.385  0.00  0.00    +0.000 N 
ATOM     14  C   UNL     1      -0.565  10.145  19.019  0.00  0.00    +0.000 A 
ATOM     15  N   UNL     1      -0.808  11.390  18.676  0.00  0.00    +0.000 NA
ATOM     16  C   UNL     1       0.416  11.993  18.847  0.00  0.00    +0.000 A 
ATOM     17  N   UNL     1       0.642  13.405  18.562  0.00  0.00    +0.000 N 
ATOM     18  O   UNL     1      -0.333  14.074  18.190  0.00  0.00    +0.000 OA
ATOM     19  O   UNL     1       1.793  13.850  18.710  0.00  0.00    +0.000 OA
ATOM     20  N   UNL     1       1.402  11.186  19.285  0.00  0.00    +0.000 NA
ENDBRANCH  12  13
ENDBRANCH   9  12
ENDBRANCH   1  10
BRANCH   7  21
ATOM     21  C   UNL     1       2.168   4.191  17.892  0.00  0.00    +0.000 C 
ATOM     22  O   UNL     1       1.233   4.007  17.115  0.00  0.00    +0.000 OA
BRANCH  21  23
ATOM     23  C   UNL     1       2.159   3.500  19.223  0.00  0.00    +0.000 A 
ATOM     24  C   UNL     1       3.362   2.969  19.709  0.00  0.00    +0.000 A 
ATOM     25  C   UNL     1       3.429   2.441  21.001  0.00  0.00    +0.000 A 
ATOM     26  C   UNL     1       2.297   2.438  21.816  0.00  0.00    +0.000 A 
ATOM     27  C   UNL     1       1.086   2.924  21.326  0.00  0.00    +0.000 A 
ATOM     28  C   UNL     1       1.010   3.430  20.025  0.00  0.00    +0.000 A 
ENDBRANCH  21  23
ENDBRANCH   7  21
TORSDOF 5
ENDMDL
MODEL 7
REMARK VINA RESULT:      -7.8      3.315      5.542
REMARK  Name = 
REMARK  5 active torsions:
REMARK  status: ('A' for Active; 'I' for Inactive)
REMARK    1  A    between atoms: C_2  and  C_3
REMARK    2  A    between atoms: C_3  and  N_4
REMARK    3  A    between atoms: N_12  and  C_13
REMARK    4  A    between atoms: C_19  and  C_20
REMARK    5  A    between atoms: C_20  and  C_22
REMARK                            x       y       z     vdW  Elec       q    Type
REMARK                         _______ _______ _______ _____ _____    ______ ____
ROOT
ATOM      1  C   UNL     1       3.682   6.461  18.154  0.00  0.00    +0.000 A 
ATOM      2  C   UNL     1       3.702   7.681  17.454  0.00  0.00    +0.000 A 
ATOM      3  C   UNL     1       2.767   8.681  17.727  0.00  0.00    +0.000 A 
ATOM      4  C   UNL     1       1.854   8.502  18.754  0.00  0.00    +0.000 A 
ATOM      5 CL   UNL     1       0.721   9.743  19.122  0.00  0.00    +0.000 Cl
ATOM      6  C   UNL     1       1.854   7.324  19.497  0.00  0.00    +0.000 A 
ATOM      7  C   UNL     1       2.727   6.264  19.177  0.00  0.00    +0.000 A 
ENDROOT
BRANCH   1  10
ATOM      8  O   UNL     1       6.149   5.915  19.513  0.00  0.00    +0.000 OA
ATOM      9  C   UNL     1       5.872   5.364  18.447  0.00  0.00    +0.000 C 
ATOM     10  N   UNL     1       4.678   5.536  17.764  0.00  0.00    +0.000 N 
ATOM     11  H   UNL     1       4.365   4.749  17.206  0.00  0.00    +0.000 HD
BRANCH   9  12
ATOM     12  C   UNL     1       6.800   4.351  17.810  0.00  0.00    +0.000 C 
BRANCH  12  13
ATOM     13  N   UNL     1       6.699   4.375  16.365  0.00  0.00    +0.000 N 
ATOM     14  C   UNL     1       5.836   3.671  15.576  0.00  0.00    +0.000 A 
ATOM     15  N   UNL     1       6.109   3.884  14.307  0.00  0.00    +0.000 NA
ATOM     16  C   UNL     1       7.179   4.744  14.371  0.00  0.00    +0.000 A 
ATOM     17  N   UNL     1       7.851   5.252  13.180  0.00  0.00    +0.000 N 
ATOM     18  O   UNL     1       7.395   4.908  12.080  0.00  0.00    +0.000 OA
ATOM     19  O   UNL     1       8.835   5.994  13.340  0.00  0.00    +0.000 OA
ATOM     20  N   UNL     1       7.578   5.081  15.614  0.00  0.00    +0.000 NA
ENDBRANCH  12  13
ENDBRANCH   9  12
ENDBRANCH   1  10
BRANCH   7  21
ATOM     21  C   UNL     1       2.698   5.053  20.060  0.00  0.00    +0.000 C 
ATOM     22  O   UNL     1       2.366   5.166  21.239  0.00  0.00    +0.000 OA
BRANCH  21  23
ATOM     23  C   UNL     1       2.943   3.684  19.498  0.00  0.00    +0.000 A 
ATOM     24  C   UNL     1       2.189   3.271  18.391  0.00  0.00    +0.000 A 
ATOM     25  C   UNL     1       2.478   2.062  17.752  0.00  0.00    +0.000 A 
ATOM     26  C   UNL     1       3.520   1.258  18.212  0.00  0.00    +0.000 A 
ATOM     27  C   UNL     1       4.248   1.639  19.338  0.00  0.00    +0.000 A 
ATOM     28  C   UNL     1       3.944   2.835  19.995  0.00  0.00    +0.000 A 
ENDBRANCH  21  23
ENDBRANCH   7  21
TORSDOF 5
ENDMDL
MODEL 8
REMARK VINA RESULT:      -7.6      4.402      6.894
REMARK  Name = 
REMARK  5 active torsions:
REMARK  status: ('A' for Active; 'I' for Inactive)
REMARK    1  A    between atoms: C_2  and  C_3
REMARK    2  A    between atoms: C_3  and  N_4
REMARK    3  A    between atoms: N_12  and  C_13
REMARK    4  A    between atoms: C_19  and  C_20
REMARK    5  A    between atoms: C_20  and  C_22
REMARK                            x       y       z     vdW  Elec       q    Type
REMARK                         _______ _______ _______ _____ _____    ______ ____
ROOT
ATOM      1  C   UNL     1       4.050   6.064  17.668  0.00  0.00    +0.000 A 
ATOM      2  C   UNL     1       5.097   6.844  17.145  0.00  0.00    +0.000 A 
ATOM      3  C   UNL     1       6.002   6.311  16.225  0.00  0.00    +0.000 A 
ATOM      4  C   UNL     1       5.822   5.017  15.761  0.00  0.00    +0.000 A 
ATOM      5 CL   UNL     1       6.910   4.363  14.601  0.00  0.00    +0.000 Cl
ATOM      6  C   UNL     1       4.758   4.245  16.223  0.00  0.00    +0.000 A 
ATOM      7  C   UNL     1       3.889   4.732  17.221  0.00  0.00    +0.000 A 
ENDROOT
BRANCH   1  10
ATOM      8  O   UNL     1       2.565   8.479  17.229  0.00  0.00    +0.000 OA
ATOM      9  C   UNL     1       2.573   7.925  18.329  0.00  0.00    +0.000 C 
ATOM     10  N   UNL     1       3.220   6.729  18.599  0.00  0.00    +0.000 N 
ATOM     11  H   UNL     1       2.809   6.152  19.325  0.00  0.00    +0.000 HD
BRANCH   9  12
ATOM     12  C   UNL     1       1.781   8.468  19.500  0.00  0.00    +0.000 C 
BRANCH  12  13
ATOM     13  N   UNL     1       0.893   9.537  19.089  0.00  0.00    +0.000 N 
ATOM     14  C   UNL     1       0.934  10.848  19.466  0.00  0.00    +0.000 A 
ATOM     15  N   UNL     1      -0.093  11.495  18.960  0.00  0.00    +0.000 NA
ATOM     16  C   UNL     1      -0.755  10.510  18.267  0.00  0.00    +0.000 A 
ATOM     17  N   UNL     1      -1.996  10.759  17.542  0.00  0.00    +0.000 N 
ATOM     18  O   UNL     1      -2.428  11.922  17.536  0.00  0.00    +0.000 OA
ATOM     19  O   UNL     1      -2.543   9.796  16.978  0.00  0.00    +0.000 OA
ATOM     20  N   UNL     1      -0.187   9.289  18.311  0.00  0.00    +0.000 NA
ENDBRANCH  12  13
ENDBRANCH   9  12
ENDBRANCH   1  10
BRANCH   7  21
ATOM     21  C   UNL     1       2.739   3.858  17.624  0.00  0.00    +0.000 C 
ATOM     22  O   UNL     1       2.053   3.317  16.758  0.00  0.00    +0.000 OA
BRANCH  21  23
ATOM     23  C   UNL     1       2.490   3.528  19.065  0.00  0.00    +0.000 A 
ATOM     24  C   UNL     1       1.207   3.745  19.589  0.00  0.00    +0.000 A 
ATOM     25  C   UNL     1       0.894   3.325  20.885  0.00  0.00    +0.000 A 
ATOM     26  C   UNL     1       1.857   2.688  21.666  0.00  0.00    +0.000 A 
ATOM     27  C   UNL     1       3.147   2.507  21.171  0.00  0.00    +0.000 A 
ATOM     28  C   UNL     1       3.471   2.949  19.884  0.00  0.00    +0.000 A 
ENDBRANCH  21  23
ENDBRANCH   7  21
TORSDOF 5
ENDMDL
MODEL 9
REMARK VINA RESULT:      -7.6      4.559      7.036
REMARK  Name = 
REMARK  5 active torsions:
REMARK  status: ('A' for Active; 'I' for Inactive)
REMARK    1  A    between atoms: C_2  and  C_3
REMARK    2  A    between atoms: C_3  and  N_4
REMARK    3  A    between atoms: N_12  and  C_13
REMARK    4  A    between atoms: C_19  and  C_20
REMARK    5  A    between atoms: C_20  and  C_22
REMARK                            x       y       z     vdW  Elec       q    Type
REMARK                         _______ _______ _______ _____ _____    ______ ____
ROOT
ATOM      1  C   UNL     1       2.960   7.330  17.963  0.00  0.00    +0.000 A 
ATOM      2  C   UNL     1       3.875   7.555  16.919  0.00  0.00    +0.000 A 
ATOM      3  C   UNL     1       5.114   6.912  16.897  0.00  0.00    +0.000 A 
ATOM      4  C   UNL     1       5.417   5.978  17.876  0.00  0.00    +0.000 A 
ATOM      5 CL   UNL     1       6.925   5.153  17.838  0.00  0.00    +0.000 Cl
ATOM      6  C   UNL     1       4.501   5.698  18.888  0.00  0.00    +0.000 A 
ATOM      7  C   UNL     1       3.284   6.405  18.982  0.00  0.00    +0.000 A 
ENDROOT
BRANCH   1  10
ATOM      8  O   UNL     1       2.678  10.182  17.827  0.00  0.00    +0.000 OA
ATOM      9  C   UNL     1       1.692   9.443  17.854  0.00  0.00    +0.000 C 
ATOM     10  N   UNL     1       1.752   8.059  17.863  0.00  0.00    +0.000 N 
ATOM     11  H   UNL     1       0.970   7.575  17.434  0.00  0.00    +0.000 HD
BRANCH   9  12
ATOM     12  C   UNL     1       0.283   9.994  17.790  0.00  0.00    +0.000 C 
BRANCH  12  13
ATOM     13  N   UNL     1      -0.212  10.338  19.107  0.00  0.00    +0.000 N 
ATOM     14  C   UNL     1      -1.188  11.238  19.423  0.00  0.00    +0.000 A 
ATOM     15  N   UNL     1      -1.295  11.348  20.729  0.00  0.00    +0.000 NA
ATOM     16  C   UNL     1      -0.333  10.476  21.182  0.00  0.00    +0.000 A 
ATOM     17  N   UNL     1      -0.064  10.272  22.601  0.00  0.00    +0.000 N 
ATOM     18  O   UNL     1      -0.770  10.893  23.409  0.00  0.00    +0.000 OA
ATOM     19  O   UNL     1       0.853   9.493  22.912  0.00  0.00    +0.000 OA
ATOM     20  N   UNL     1       0.358   9.827  20.224  0.00  0.00    +0.000 NA
ENDBRANCH  12  13
ENDBRANCH   9  12
ENDBRANCH   1  10
BRANCH   7  21
ATOM     21  C   UNL     1       2.333   6.004  20.069  0.00  0.00    +0.000 C 
ATOM     22  O   UNL     1       1.865   6.861  20.816  0.00  0.00    +0.000 OA
BRANCH  21  23
ATOM     23  C   UNL     1       1.842   4.591  20.180  0.00  0.00    +0.000 A 
ATOM     24  C   UNL     1       1.310   3.977  19.038  0.00  0.00    +0.000 A 
ATOM     25  C   UNL     1       0.968   2.621  19.061  0.00  0.00    +0.000 A 
ATOM     26  C   UNL     1       1.156   1.871  20.221  0.00  0.00    +0.000 A 
ATOM     27  C   UNL     1       1.644   2.483  21.374  0.00  0.00    +0.000 A 
ATOM     28  C   UNL     1       1.962   3.845  21.363  0.00  0.00    +0.000 A 
ENDBRANCH  21  23
ENDBRANCH   7  21
TORSDOF 5
ENDMDL
