MODEL 1
REMARK VINA RESULT:      -7.8      0.000      0.000
REMARK  Name = 
REMARK  5 active torsions:
REMARK  status: ('A' for Active; 'I' for Inactive)
REMARK    1  A    between atoms: C_1  and  C_2
REMARK    2  A    between atoms: C_7  and  N_8
REMARK    3  A    between atoms: C_9  and  C_11
REMARK    4  A    between atoms: C_11  and  S_12
REMARK    5  A    between atoms: S_12  and  C_13
REMARK                            x       y       z     vdW  Elec       q    Type
REMARK                         _______ _______ _______ _____ _____    ______ ____
ROOT
ATOM      1  C   UNL     1       7.628   6.294  18.134  0.00  0.00    +0.000 C 
ENDROOT
BRANCH   1   3
ATOM      2  N   UNL     1       7.025   5.844  15.788  0.00  0.00    +0.000 N 
ATOM      3  C   UNL     1       7.616   5.340  16.936  0.00  0.00    +0.000 C 
ATOM      4  O   UNL     1       8.058   4.203  17.097  0.00  0.00    +0.000 OA
ATOM      5  H   UNL     1       6.694   6.798  15.828  0.00  0.00    +0.000 HD
BRANCH   2  12
ATOM      6  C   UNL     1       4.996   3.727  15.335  0.00  0.00    +0.000 C 
ATOM      7  C   UNL     1       6.001   4.184  14.316  0.00  0.00    +0.000 A 
ATOM      8  C   UNL     1       5.991   3.569  13.051  0.00  0.00    +0.000 A 
ATOM      9  C   UNL     1       6.896   3.956  12.074  0.00  0.00    +0.000 A 
ATOM     10  C   UNL     1       7.795   4.948  12.394  0.00  0.00    +0.000 A 
ATOM     11  N   UNL     1       7.842   5.550  13.597  0.00  0.00    +0.000 NA
ATOM     12  C   UNL     1       6.966   5.183  14.548  0.00  0.00    +0.000 A 
ENDBRANCH   2  12
ENDBRANCH   1   3
BRANCH   1  13
ATOM     13  S   UNL     1       6.785   5.574  19.578  0.00  0.00    +0.000 S 
BRANCH  13  14
ATOM     14  C   UNL     1       5.143   5.176  19.002  0.00  0.00    +0.000 A 
ATOM     15  C   UNL     1       4.283   6.007  18.275  0.00  0.00    +0.000 A 
ATOM     16  C   UNL     1       3.004   5.555  17.906  0.00  0.00    +0.000 A 
ATOM     17  C   UNL     1       2.580   4.276  18.266  0.00  0.00    +0.000 A 
ATOM     18  C   UNL     1       3.444   3.435  18.967  0.00  0.00    +0.000 A 
ATOM     19  C   UNL     1       4.706   3.887  19.341  0.00  0.00    +0.000 A 
ATOM     20  O   UNL     1       3.126   2.155  19.337  0.00  0.00    +0.000 OA
ATOM     21  C   UNL     1       1.985   1.676  18.622  0.00  0.00    +0.000 C 
ATOM     22  C   UNL     1       0.888   2.728  18.604  0.00  0.00    +0.000 C 
ATOM     23  O   UNL     1       1.314   3.902  17.897  0.00  0.00    +0.000 OA
ENDBRANCH  13  14
ENDBRANCH   1  13
TORSDOF 4
ENDMDL
MODEL 2
REMARK VINA RESULT:      -7.6      1.027      1.027
REMARK  Name = 
REMARK  5 active torsions:
REMARK  status: ('A' for Active; 'I' for Inactive)
REMARK    1  A    between atoms: C_1  and  C_2
REMARK    2  A    between atoms: C_7  and  N_8
REMARK    3  A    between atoms: C_9  and  C_11
REMARK    4  A    between atoms: C_11  and  S_12
REMARK    5  A    between atoms: S_12  and  C_13
REMARK                            x       y       z     vdW  Elec       q    Type
REMARK                         _______ _______ _______ _____ _____    ______ ____
ROOT
ATOM      1  C   UNL     1       7.288   6.847  18.042  0.00  0.00    +0.000 C 
ENDROOT
BRANCH   1   3
ATOM      2  N   UNL     1       7.534   5.525  15.978  0.00  0.00    +0.000 N 
ATOM      3  C   UNL     1       6.814   6.517  16.624  0.00  0.00    +0.000 C 
ATOM      4  O   UNL     1       5.897   7.187  16.150  0.00  0.00    +0.000 OA
ATOM      5  H   UNL     1       8.275   5.083  16.506  0.00  0.00    +0.000 HD
BRANCH   2  12
ATOM      6  C   UNL     1       5.421   3.464  15.678  0.00  0.00    +0.000 C 
ATOM      7  C   UNL     1       6.230   4.033  14.547  0.00  0.00    +0.000 A 
ATOM      8  C   UNL     1       5.978   3.561  13.247  0.00  0.00    +0.000 A 
ATOM      9  C   UNL     1       6.696   4.056  12.168  0.00  0.00    +0.000 A 
ATOM     10  C   UNL     1       7.655   5.010  12.423  0.00  0.00    +0.000 A 
ATOM     11  N   UNL     1       7.931   5.476  13.655  0.00  0.00    +0.000 NA
ATOM     12  C   UNL     1       7.238   5.004  14.706  0.00  0.00    +0.000 A 
ENDBRANCH   2  12
ENDBRANCH   1   3
BRANCH   1  13
ATOM     13  S   UNL     1       6.972   5.475  19.196  0.00  0.00    +0.000 S 
BRANCH  13  14
ATOM     14  C   UNL     1       5.211   5.194  19.108  0.00  0.00    +0.000 A 
ATOM     15  C   UNL     1       4.217   6.155  18.888  0.00  0.00    +0.000 A 
ATOM     16  C   UNL     1       2.862   5.781  18.862  0.00  0.00    +0.000 A 
ATOM     17  C   UNL     1       2.497   4.450  19.062  0.00  0.00    +0.000 A 
ATOM     18  C   UNL     1       3.486   3.486  19.255  0.00  0.00    +0.000 A 
ATOM     19  C   UNL     1       4.826   3.859  19.290  0.00  0.00    +0.000 A 
ATOM     20  O   UNL     1       3.224   2.152  19.430  0.00  0.00    +0.000 OA
ATOM     21  C   UNL     1       1.889   1.829  19.035  0.00  0.00    +0.000 C 
ATOM     22  C   UNL     1       0.908   2.848  19.592  0.00  0.00    +0.000 C 
ATOM     23  O   UNL     1       1.159   4.152  19.050  0.00  0.00    +0.000 OA
ENDBRANCH  13  14
ENDBRANCH   1  13
TORSDOF 4
ENDMDL
MODEL 3
REMARK VINA RESULT:      -7.2      3.282      6.571
REMARK  Name = 
REMARK  5 active torsions:
REMARK  status: ('A' for Active; 'I' for Inactive)
REMARK    1  A    between atoms: C_1  and  C_2
REMARK    2  A    between atoms: C_7  and  N_8
REMARK    3  A    between atoms: C_9  and  C_11
REMARK    4  A    between atoms: C_11  and  S_12
REMARK    5  A    between atoms: S_12  and  C_13
REMARK                            x       y       z     vdW  Elec       q    Type
REMARK                         _______ _______ _______ _____ _____    ______ ____
ROOT
ATOM      1  C   UNL     1       2.744   3.769  20.836  0.00  0.00    +0.000 C 
ENDROOT
BRANCH   1   3
ATOM      2  N   UNL     1       2.715   6.150  20.203  0.00  0.00    +0.000 N 
ATOM      3  C   UNL     1       1.955   5.008  20.403  0.00  0.00    +0.000 C 
ATOM      4  O   UNL     1       0.730   4.919  20.333  0.00  0.00    +0.000 OA
ATOM      5  H   UNL     1       3.715   6.057  20.321  0.00  0.00    +0.000 HD
BRANCH   2  12
ATOM      6  C   UNL     1       3.402   7.071  17.468  0.00  0.00    +0.000 C 
ATOM      7  C   UNL     1       2.532   7.825  18.433  0.00  0.00    +0.000 A 
ATOM      8  C   UNL     1       2.001   9.061  18.023  0.00  0.00    +0.000 A 
ATOM      9  C   UNL     1       1.190   9.795  18.876  0.00  0.00    +0.000 A 
ATOM     10  C   UNL     1       0.938   9.273  20.125  0.00  0.00    +0.000 A 
ATOM     11  N   UNL     1       1.440   8.100  20.555  0.00  0.00    +0.000 NA
ATOM     12  C   UNL     1       2.223   7.381  19.733  0.00  0.00    +0.000 A 
ENDBRANCH   2  12
ENDBRANCH   1   3
BRANCH   1  13
ATOM     13  S   UNL     1       3.108   2.674  19.428  0.00  0.00    +0.000 S 
BRANCH  13  14
ATOM     14  C   UNL     1       4.439   3.478  18.551  0.00  0.00    +0.000 A 
ATOM     15  C   UNL     1       5.501   4.197  19.112  0.00  0.00    +0.000 A 
ATOM     16  C   UNL     1       6.470   4.792  18.285  0.00  0.00    +0.000 A 
ATOM     17  C   UNL     1       6.378   4.674  16.899  0.00  0.00    +0.000 A 
ATOM     18  C   UNL     1       5.338   3.935  16.337  0.00  0.00    +0.000 A 
ATOM     19  C   UNL     1       4.373   3.356  17.156  0.00  0.00    +0.000 A 
ATOM     20  O   UNL     1       5.183   3.740  14.990  0.00  0.00    +0.000 OA
ATOM     21  C   UNL     1       6.380   4.063  14.279  0.00  0.00    +0.000 C 
ATOM     22  C   UNL     1       6.951   5.384  14.768  0.00  0.00    +0.000 C 
ATOM     23  O   UNL     1       7.341   5.296  16.146  0.00  0.00    +0.000 OA
ENDBRANCH  13  14
ENDBRANCH   1  13
TORSDOF 4
ENDMDL
MODEL 4
REMARK VINA RESULT:      -7.2      3.251      6.428
REMARK  Name = 
REMARK  5 active torsions:
REMARK  status: ('A' for Active; 'I' for Inactive)
REMARK    1  A    between atoms: C_1  and  C_2
REMARK    2  A    between atoms: C_7  and  N_8
REMARK    3  A    between atoms: C_9  and  C_11
REMARK    4  A    between atoms: C_11  and  S_12
REMARK    5  A    between atoms: S_12  and  C_13
REMARK                            x       y       z     vdW  Elec       q    Type
REMARK                         _______ _______ _______ _____ _____    ______ ____
ROOT
ATOM      1  C   UNL     1       2.331   3.831  21.644  0.00  0.00    +0.000 C 
ENDROOT
BRANCH   1   3
ATOM      2  N   UNL     1       2.491   6.071  20.630  0.00  0.00    +0.000 N 
ATOM      3  C   UNL     1       1.769   4.889  20.691  0.00  0.00    +0.000 C 
ATOM      4  O   UNL     1       0.708   4.646  20.117  0.00  0.00    +0.000 OA
ATOM      5  H   UNL     1       3.336   6.116  21.183  0.00  0.00    +0.000 HD
BRANCH   2  12
ATOM      6  C   UNL     1       1.010   8.428  21.657  0.00  0.00    +0.000 C 
ATOM      7  C   UNL     1       1.518   8.280  20.251  0.00  0.00    +0.000 A 
ATOM      8  C   UNL     1       1.278   9.329  19.345  0.00  0.00    +0.000 A 
ATOM      9  C   UNL     1       1.728   9.243  18.036  0.00  0.00    +0.000 A 
ATOM     10  C   UNL     1       2.404   8.101  17.666  0.00  0.00    +0.000 A 
ATOM     11  N   UNL     1       2.640   7.074  18.503  0.00  0.00    +0.000 NA
ATOM     12  C   UNL     1       2.210   7.151  19.775  0.00  0.00    +0.000 A 
ENDBRANCH   2  12
ENDBRANCH   1   3
BRANCH   1  13
ATOM     13  S   UNL     1       3.134   2.468  20.742  0.00  0.00    +0.000 S 
BRANCH  13  14
ATOM     14  C   UNL     1       3.719   3.202  19.223  0.00  0.00    +0.000 A 
ATOM     15  C   UNL     1       3.087   3.165  17.975  0.00  0.00    +0.000 A 
ATOM     16  C   UNL     1       3.684   3.779  16.860  0.00  0.00    +0.000 A 
ATOM     17  C   UNL     1       4.913   4.425  16.988  0.00  0.00    +0.000 A 
ATOM     18  C   UNL     1       5.532   4.487  18.235  0.00  0.00    +0.000 A 
ATOM     19  C   UNL     1       4.946   3.871  19.336  0.00  0.00    +0.000 A 
ATOM     20  O   UNL     1       6.724   5.124  18.462  0.00  0.00    +0.000 OA
ATOM     21  C   UNL     1       7.058   6.000  17.384  0.00  0.00    +0.000 C 
ATOM     22  C   UNL     1       6.840   5.308  16.048  0.00  0.00    +0.000 C 
ATOM     23  O   UNL     1       5.455   4.984  15.858  0.00  0.00    +0.000 OA
ENDBRANCH  13  14
ENDBRANCH   1  13
TORSDOF 4
ENDMDL
MODEL 5
REMARK VINA RESULT:      -7.0      3.053      4.828
REMARK  Name = 
REMARK  5 active torsions:
REMARK  status: ('A' for Active; 'I' for Inactive)
REMARK    1  A    between atoms: C_1  and  C_2
REMARK    2  A    between atoms: C_7  and  N_8
REMARK    3  A    between atoms: C_9  and  C_11
REMARK    4  A    between atoms: C_11  and  S_12
REMARK    5  A    between atoms: S_12  and  C_13
REMARK                            x       y       z     vdW  Elec       q    Type
REMARK                         _______ _______ _______ _____ _____    ______ ____
ROOT
ATOM      1  C   UNL     1       3.719   1.814  18.548  0.00  0.00    +0.000 C 
ENDROOT
BRANCH   1   3
ATOM      2  N   UNL     1       5.255   3.623  17.883  0.00  0.00    +0.000 N 
ATOM      3  C   UNL     1       4.717   2.908  18.942  0.00  0.00    +0.000 C 
ATOM      4  O   UNL     1       5.011   3.022  20.131  0.00  0.00    +0.000 OA
ATOM      5  H   UNL     1       4.918   3.391  16.958  0.00  0.00    +0.000 HD
BRANCH   2  12
ATOM      6  C   UNL     1       5.149   5.828  15.901  0.00  0.00    +0.000 C 
ATOM      7  C   UNL     1       6.083   5.776  17.077  0.00  0.00    +0.000 A 
ATOM      8  C   UNL     1       6.979   6.845  17.261  0.00  0.00    +0.000 A 
ATOM      9  C   UNL     1       7.859   6.846  18.333  0.00  0.00    +0.000 A 
ATOM     10  C   UNL     1       7.823   5.770  19.191  0.00  0.00    +0.000 A 
ATOM     11  N   UNL     1       6.988   4.725  19.039  0.00  0.00    +0.000 NA
ATOM     12  C   UNL     1       6.129   4.718  18.004  0.00  0.00    +0.000 A 
ENDBRANCH   2  12
ENDBRANCH   1   3
BRANCH   1  13
ATOM     13  S   UNL     1       2.121   2.514  18.028  0.00  0.00    +0.000 S 
BRANCH  13  14
ATOM     14  C   UNL     1       2.025   4.100  18.842  0.00  0.00    +0.000 A 
ATOM     15  C   UNL     1       1.831   4.332  20.209  0.00  0.00    +0.000 A 
ATOM     16  C   UNL     1       1.759   5.647  20.702  0.00  0.00    +0.000 A 
ATOM     17  C   UNL     1       1.876   6.730  19.831  0.00  0.00    +0.000 A 
ATOM     18  C   UNL     1       2.096   6.503  18.474  0.00  0.00    +0.000 A 
ATOM     19  C   UNL     1       2.157   5.202  17.985  0.00  0.00    +0.000 A 
ATOM     20  O   UNL     1       2.252   7.503  17.550  0.00  0.00    +0.000 OA
ATOM     21  C   UNL     1       2.521   8.756  18.183  0.00  0.00    +0.000 C 
ATOM     22  C   UNL     1       1.573   8.978  19.350  0.00  0.00    +0.000 C 
ATOM     23  O   UNL     1       1.774   7.988  20.369  0.00  0.00    +0.000 OA
ENDBRANCH  13  14
ENDBRANCH   1  13
TORSDOF 4
ENDMDL
MODEL 6
REMARK VINA RESULT:      -7.0      6.214      9.111
REMARK  Name = 
REMARK  5 active torsions:
REMARK  status: ('A' for Active; 'I' for Inactive)
REMARK    1  A    between atoms: C_1  and  C_2
REMARK    2  A    between atoms: C_7  and  N_8
REMARK    3  A    between atoms: C_9  and  C_11
REMARK    4  A    between atoms: C_11  and  S_12
REMARK    5  A    between atoms: S_12  and  C_13
REMARK                            x       y       z     vdW  Elec       q    Type
REMARK                         _______ _______ _______ _____ _____    ______ ____
ROOT
ATOM      1  C   UNL     1       8.068   9.622  17.787  0.00  0.00    +0.000 C 
ENDROOT
BRANCH   1   3
ATOM      2  N   UNL     1       6.805   7.742  16.818  0.00  0.00    +0.000 N 
ATOM      3  C   UNL     1       7.758   8.123  17.749  0.00  0.00    +0.000 C 
ATOM      4  O   UNL     1       8.313   7.397  18.572  0.00  0.00    +0.000 OA
ATOM      5  H   UNL     1       6.430   8.471  16.225  0.00  0.00    +0.000 HD
BRANCH   2  12
ATOM      6  C   UNL     1       4.086   6.820  17.566  0.00  0.00    +0.000 C 
ATOM      7  C   UNL     1       5.124   5.969  16.891  0.00  0.00    +0.000 A 
ATOM      8  C   UNL     1       4.796   4.635  16.588  0.00  0.00    +0.000 A 
ATOM      9  C   UNL     1       5.718   3.810  15.963  0.00  0.00    +0.000 A 
ATOM     10  C   UNL     1       6.952   4.342  15.662  0.00  0.00    +0.000 A 
ATOM     11  N   UNL     1       7.304   5.609  15.948  0.00  0.00    +0.000 NA
ATOM     12  C   UNL     1       6.415   6.417  16.551  0.00  0.00    +0.000 A 
ENDBRANCH   2  12
ENDBRANCH   1   3
BRANCH   1  13
ATOM     13  S   UNL     1       9.257  10.033  19.103  0.00  0.00    +0.000 S 
BRANCH  13  14
ATOM     14  C   UNL     1      10.080  11.512  18.536  0.00  0.00    +0.000 A 
ATOM     15  C   UNL     1      11.387  11.610  18.046  0.00  0.00    +0.000 A 
ATOM     16  C   UNL     1      11.905  12.856  17.651  0.00  0.00    +0.000 A 
ATOM     17  C   UNL     1      11.121  14.005  17.749  0.00  0.00    +0.000 A 
ATOM     18  C   UNL     1       9.809  13.907  18.210  0.00  0.00    +0.000 A 
ATOM     19  C   UNL     1       9.301  12.676  18.611  0.00  0.00    +0.000 A 
ATOM     20  O   UNL     1       8.957  14.975  18.313  0.00  0.00    +0.000 OA
ATOM     21  C   UNL     1       9.438  16.096  17.568  0.00  0.00    +0.000 C 
ATOM     22  C   UNL     1      10.919  16.313  17.829  0.00  0.00    +0.000 C 
ATOM     23  O   UNL     1      11.691  15.194  17.370  0.00  0.00    +0.000 OA
ENDBRANCH  13  14
ENDBRANCH   1  13
TORSDOF 4
ENDMDL
MODEL 7
REMARK VINA RESULT:      -6.9      1.369      1.906
REMARK  Name = 
REMARK  5 active torsions:
REMARK  status: ('A' for Active; 'I' for Inactive)
REMARK    1  A    between atoms: C_1  and  C_2
REMARK    2  A    between atoms: C_7  and  N_8
REMARK    3  A    between atoms: C_9  and  C_11
REMARK    4  A    between atoms: C_11  and  S_12
REMARK    5  A    between atoms: S_12  and  C_13
REMARK                            x       y       z     vdW  Elec       q    Type
REMARK                         _______ _______ _______ _____ _____    ______ ____
ROOT
ATOM      1  C   UNL     1       7.104   6.761  17.499  0.00  0.00    +0.000 C 
ENDROOT
BRANCH   1   3
ATOM      2  N   UNL     1       7.298   5.414  15.446  0.00  0.00    +0.000 N 
ATOM      3  C   UNL     1       6.498   6.275  16.180  0.00  0.00    +0.000 C 
ATOM      4  O   UNL     1       5.403   6.725  15.846  0.00  0.00    +0.000 OA
ATOM      5  H   UNL     1       8.185   5.154  15.858  0.00  0.00    +0.000 HD
BRANCH   2  12
ATOM      6  C   UNL     1       8.812   5.957  12.953  0.00  0.00    +0.000 C 
ATOM      7  C   UNL     1       7.640   5.023  13.058  0.00  0.00    +0.000 A 
ATOM      8  C   UNL     1       7.219   4.351  11.896  0.00  0.00    +0.000 A 
ATOM      9  C   UNL     1       6.145   3.476  11.941  0.00  0.00    +0.000 A 
ATOM     10  C   UNL     1       5.513   3.300  13.152  0.00  0.00    +0.000 A 
ATOM     11  N   UNL     1       5.881   3.935  14.281  0.00  0.00    +0.000 NA
ATOM     12  C   UNL     1       6.925   4.782  14.246  0.00  0.00    +0.000 A 
ENDBRANCH   2  12
ENDBRANCH   1   3
BRANCH   1  13
ATOM     13  S   UNL     1       6.978   5.501  18.807  0.00  0.00    +0.000 S 
BRANCH  13  14
ATOM     14  C   UNL     1       5.226   5.245  19.034  0.00  0.00    +0.000 A 
ATOM     15  C   UNL     1       4.243   6.234  19.159  0.00  0.00    +0.000 A 
ATOM     16  C   UNL     1       2.897   5.874  19.352  0.00  0.00    +0.000 A 
ATOM     17  C   UNL     1       2.532   4.530  19.425  0.00  0.00    +0.000 A 
ATOM     18  C   UNL     1       3.505   3.543  19.273  0.00  0.00    +0.000 A 
ATOM     19  C   UNL     1       4.838   3.900  19.093  0.00  0.00    +0.000 A 
ATOM     20  O   UNL     1       3.237   2.200  19.301  0.00  0.00    +0.000 OA
ATOM     21  C   UNL     1       1.839   1.946  19.139  0.00  0.00    +0.000 C 
ATOM     22  C   UNL     1       1.024   2.875  20.024  0.00  0.00    +0.000 C 
ATOM     23  O   UNL     1       1.208   4.245  19.638  0.00  0.00    +0.000 OA
ENDBRANCH  13  14
ENDBRANCH   1  13
TORSDOF 4
ENDMDL
MODEL 8
REMARK VINA RESULT:      -6.9      3.541      6.883
REMARK  Name = 
REMARK  5 active torsions:
REMARK  status: ('A' for Active; 'I' for Inactive)
REMARK    1  A    between atoms: C_1  and  C_2
REMARK    2  A    between atoms: C_7  and  N_8
REMARK    3  A    between atoms: C_9  and  C_11
REMARK    4  A    between atoms: C_11  and  S_12
REMARK    5  A    between atoms: S_12  and  C_13
REMARK                            x       y       z     vdW  Elec       q    Type
REMARK                         _______ _______ _______ _____ _____    ______ ____
ROOT
ATOM      1  C   UNL     1       2.638   3.580  21.032  0.00  0.00    +0.000 C 
ENDROOT
BRANCH   1   3
ATOM      2  N   UNL     1       2.430   6.016  20.732  0.00  0.00    +0.000 N 
ATOM      3  C   UNL     1       1.780   4.794  20.665  0.00  0.00    +0.000 C 
ATOM      4  O   UNL     1       0.591   4.606  20.412  0.00  0.00    +0.000 OA
ATOM      5  H   UNL     1       3.411   5.997  20.975  0.00  0.00    +0.000 HD
BRANCH   2  12
ATOM      6  C   UNL     1       2.979   7.160  18.050  0.00  0.00    +0.000 C 
ATOM      7  C   UNL     1       2.114   7.804  19.096  0.00  0.00    +0.000 A 
ATOM      8  C   UNL     1       1.516   9.041  18.795  0.00  0.00    +0.000 A 
ATOM      9  C   UNL     1       0.706   9.675  19.725  0.00  0.00    +0.000 A 
ATOM     10  C   UNL     1       0.522   9.054  20.940  0.00  0.00    +0.000 A 
ATOM     11  N   UNL     1       1.087   7.877  21.267  0.00  0.00    +0.000 NA
ATOM     12  C   UNL     1       1.870   7.254  20.369  0.00  0.00    +0.000 A 
ENDBRANCH   2  12
ENDBRANCH   1   3
BRANCH   1  13
ATOM     13  S   UNL     1       2.914   2.490  19.600  0.00  0.00    +0.000 S 
BRANCH  13  14
ATOM     14  C   UNL     1       3.894   3.460  18.466  0.00  0.00    +0.000 A 
ATOM     15  C   UNL     1       3.700   3.587  17.085  0.00  0.00    +0.000 A 
ATOM     16  C   UNL     1       4.572   4.379  16.317  0.00  0.00    +0.000 A 
ATOM     17  C   UNL     1       5.640   5.039  16.924  0.00  0.00    +0.000 A 
ATOM     18  C   UNL     1       5.820   4.936  18.302  0.00  0.00    +0.000 A 
ATOM     19  C   UNL     1       4.963   4.144  19.060  0.00  0.00    +0.000 A 
ATOM     20  O   UNL     1       6.822   5.571  18.989  0.00  0.00    +0.000 OA
ATOM     21  C   UNL     1       7.413   6.608  18.202  0.00  0.00    +0.000 C 
ATOM     22  C   UNL     1       7.690   6.114  16.791  0.00  0.00    +0.000 C 
ATOM     23  O   UNL     1       6.469   5.776  16.117  0.00  0.00    +0.000 OA
ENDBRANCH  13  14
ENDBRANCH   1  13
TORSDOF 4
ENDMDL
MODEL 9
REMARK VINA RESULT:      -6.8      5.092      8.117
REMARK  Name = 
REMARK  5 active torsions:
REMARK  status: ('A' for Active; 'I' for Inactive)
REMARK    1  A    between atoms: C_1  and  C_2
REMARK    2  A    between atoms: C_7  and  N_8
REMARK    3  A    between atoms: C_9  and  C_11
REMARK    4  A    between atoms: C_11  and  S_12
REMARK    5  A    between atoms: S_12  and  C_13
REMARK                            x       y       z     vdW  Elec       q    Type
REMARK                         _______ _______ _______ _____ _____    ______ ____
ROOT
ATOM      1  C   UNL     1       8.275   7.475  18.739  0.00  0.00    +0.000 C 
ENDROOT
BRANCH   1   3
ATOM      2  N   UNL     1       7.257   6.589  16.678  0.00  0.00    +0.000 N 
ATOM      3  C   UNL     1       7.756   6.281  17.934  0.00  0.00    +0.000 C 
ATOM      4  O   UNL     1       7.756   5.176  18.474  0.00  0.00    +0.000 OA
ATOM      5  H   UNL     1       7.314   7.557  16.390  0.00  0.00    +0.000 HD
BRANCH   2  12
ATOM      6  C   UNL     1       4.583   5.347  17.006  0.00  0.00    +0.000 C 
ATOM      7  C   UNL     1       5.526   5.063  15.872  0.00  0.00    +0.000 A 
ATOM      8  C   UNL     1       5.125   4.141  14.889  0.00  0.00    +0.000 A 
ATOM      9  C   UNL     1       5.958   3.847  13.820  0.00  0.00    +0.000 A 
ATOM     10  C   UNL     1       7.179   4.482  13.768  0.00  0.00    +0.000 A 
ATOM     11  N   UNL     1       7.601   5.359  14.697  0.00  0.00    +0.000 NA
ATOM     12  C   UNL     1       6.798   5.653  15.735  0.00  0.00    +0.000 A 
ENDBRANCH   2  12
ENDBRANCH   1   3
BRANCH   1  13
ATOM     13  S   UNL     1       7.956   9.053  17.889  0.00  0.00    +0.000 S 
BRANCH  13  14
ATOM     14  C   UNL     1       9.061  10.225  18.660  0.00  0.00    +0.000 A 
ATOM     15  C   UNL     1       9.314  10.364  20.029  0.00  0.00    +0.000 A 
ATOM     16  C   UNL     1      10.203  11.352  20.489  0.00  0.00    +0.000 A 
ATOM     17  C   UNL     1      10.835  12.203  19.584  0.00  0.00    +0.000 A 
ATOM     18  C   UNL     1      10.607  12.050  18.218  0.00  0.00    +0.000 A 
ATOM     19  C   UNL     1       9.719  11.079  17.764  0.00  0.00    +0.000 A 
ATOM     20  O   UNL     1      11.205  12.819  17.255  0.00  0.00    +0.000 OA
ATOM     21  C   UNL     1      12.331  13.525  17.780  0.00  0.00    +0.000 C 
ATOM     22  C   UNL     1      11.984  14.162  19.116  0.00  0.00    +0.000 C 
ATOM     23  O   UNL     1      11.673  13.161  20.096  0.00  0.00    +0.000 OA
ENDBRANCH  13  14
ENDBRANCH   1  13
TORSDOF 4
ENDMDL
