MODEL 1
REMARK VINA RESULT:      -7.4      0.000      0.000
REMARK  Name = 
REMARK  6 active torsions:
REMARK  status: ('A' for Active; 'I' for Inactive)
REMARK    1  A    between atoms: O_1  and  C_2
REMARK    2  A    between atoms: C_2  and  C_3
REMARK    3  A    between atoms: C_3  and  N_4
REMARK    4  A    between atoms: N_13  and  C_14
REMARK    5  A    between atoms: C_14  and  C_15
REMARK    6  A    between atoms: C_18  and  C_19
REMARK                            x       y       z     vdW  Elec       q    Type
REMARK                         _______ _______ _______ _____ _____    ______ ____
ROOT
ATOM      1  N   UNL     1       3.155   7.540  18.528  0.00  0.00    +0.000 N 
ATOM      2  C   UNL     1       3.003   6.198  18.471  0.00  0.00    +0.000 A 
ATOM      3  N   UNL     1       1.915   5.534  18.157  0.00  0.00    +0.000 NA
ATOM      4  C   UNL     1       2.222   4.209  18.315  0.00  0.00    +0.000 A 
ATOM      5  C   UNL     1       1.414   3.080  18.116  0.00  0.00    +0.000 A 
ATOM      6  C   UNL     1       1.940   1.816  18.399  0.00  0.00    +0.000 A 
ATOM      7  C   UNL     1       3.247   1.678  18.870  0.00  0.00    +0.000 A 
ATOM      8  C   UNL     1       4.080   2.792  19.044  0.00  0.00    +0.000 A 
ATOM      9  C   UNL     1       3.534   4.048  18.747  0.00  0.00    +0.000 A 
ATOM     10  N   UNL     1       4.035   5.334  18.767  0.00  0.00    +0.000 N 
ATOM     11  H   UNL     1       3.933   7.918  19.077  0.00  0.00    +0.000 HD
ENDROOT
BRANCH   1  12
ATOM     12  C   UNL     1       1.952   8.341  18.775  0.00  0.00    +0.000 C 
BRANCH  12  13
ATOM     13  C   UNL     1       1.897   9.498  17.773  0.00  0.00    +0.000 C 
BRANCH  13  14
ATOM     14  O   UNL     1       0.593  10.086  17.792  0.00  0.00    +0.000 OA
ATOM     15  H   UNL     1       0.022   9.496  17.271  0.00  0.00    +0.000 HD
ENDBRANCH  13  14
ENDBRANCH  12  13
ENDBRANCH   1  12
BRANCH  10  16
ATOM     16  C   UNL     1       5.425   5.707  18.970  0.00  0.00    +0.000 C 
BRANCH  16  17
ATOM     17  C   UNL     1       6.156   5.762  17.680  0.00  0.00    +0.000 A 
ATOM     18  C   UNL     1       7.233   6.540  17.331  0.00  0.00    +0.000 A 
ATOM     19  O   UNL     1       7.576   6.243  16.052  0.00  0.00    +0.000 OA
ATOM     20  C   UNL     1       6.682   5.272  15.657  0.00  0.00    +0.000 A 
ATOM     21  N   UNL     1       5.825   4.946  16.614  0.00  0.00    +0.000 NA
BRANCH  20  22
ATOM     22  C   UNL     1       6.674   4.695  14.338  0.00  0.00    +0.000 A 
ATOM     23  C   UNL     1       5.811   3.736  13.842  0.00  0.00    +0.000 A 
ATOM     24  C   UNL     1       6.051   3.436  12.468  0.00  0.00    +0.000 A 
ATOM     25  C   UNL     1       7.121   4.143  11.968  0.00  0.00    +0.000 A 
ATOM     26  S   UNL     1       7.811   5.175  13.145  0.00  0.00    +0.000 S 
ENDBRANCH  20  22
ENDBRANCH  16  17
ENDBRANCH  10  16
TORSDOF 6
ENDMDL
MODEL 2
REMARK VINA RESULT:      -7.4      3.659      6.871
REMARK  Name = 
REMARK  6 active torsions:
REMARK  status: ('A' for Active; 'I' for Inactive)
REMARK    1  A    between atoms: O_1  and  C_2
REMARK    2  A    between atoms: C_2  and  C_3
REMARK    3  A    between atoms: C_3  and  N_4
REMARK    4  A    between atoms: N_13  and  C_14
REMARK    5  A    between atoms: C_14  and  C_15
REMARK    6  A    between atoms: C_18  and  C_19
REMARK                            x       y       z     vdW  Elec       q    Type
REMARK                         _______ _______ _______ _____ _____    ______ ____
ROOT
ATOM      1  N   UNL     1       6.020   6.000  18.183  0.00  0.00    +0.000 N 
ATOM      2  C   UNL     1       4.977   5.179  18.441  0.00  0.00    +0.000 A 
ATOM      3  N   UNL     1       5.003   4.044  19.100  0.00  0.00    +0.000 NA
ATOM      4  C   UNL     1       3.733   3.538  19.031  0.00  0.00    +0.000 A 
ATOM      5  C   UNL     1       3.222   2.346  19.566  0.00  0.00    +0.000 A 
ATOM      6  C   UNL     1       1.887   2.012  19.314  0.00  0.00    +0.000 A 
ATOM      7  C   UNL     1       1.077   2.850  18.546  0.00  0.00    +0.000 A 
ATOM      8  C   UNL     1       1.561   4.060  18.031  0.00  0.00    +0.000 A 
ATOM      9  C   UNL     1       2.899   4.378  18.302  0.00  0.00    +0.000 A 
ATOM     10  N   UNL     1       3.702   5.459  17.999  0.00  0.00    +0.000 N 
ATOM     11  H   UNL     1       5.932   6.669  17.412  0.00  0.00    +0.000 HD
ENDROOT
BRANCH   1  12
ATOM     12  C   UNL     1       7.357   5.398  18.155  0.00  0.00    +0.000 C 
BRANCH  12  13
ATOM     13  C   UNL     1       8.203   5.986  19.289  0.00  0.00    +0.000 C 
BRANCH  13  14
ATOM     14  O   UNL     1       7.859   5.349  20.523  0.00  0.00    +0.000 OA
ATOM     15  H   UNL     1       7.281   5.970  20.997  0.00  0.00    +0.000 HD
ENDBRANCH  13  14
ENDBRANCH  12  13
ENDBRANCH   1  12
BRANCH  10  16
ATOM     16  C   UNL     1       3.263   6.710  17.404  0.00  0.00    +0.000 C 
BRANCH  16  17
ATOM     17  C   UNL     1       2.496   7.523  18.380  0.00  0.00    +0.000 A 
ATOM     18  C   UNL     1       2.328   7.321  19.728  0.00  0.00    +0.000 A 
ATOM     19  O   UNL     1       1.559   8.327  20.216  0.00  0.00    +0.000 OA
ATOM     20  C   UNL     1       1.282   9.127  19.130  0.00  0.00    +0.000 A 
ATOM     21  N   UNL     1       1.842   8.685  18.013  0.00  0.00    +0.000 NA
BRANCH  20  22
ATOM     22  C   UNL     1       0.456  10.304  19.205  0.00  0.00    +0.000 A 
ATOM     23  C   UNL     1      -0.629  10.625  18.409  0.00  0.00    +0.000 A 
ATOM     24  C   UNL     1      -1.258  11.845  18.802  0.00  0.00    +0.000 A 
ATOM     25  C   UNL     1      -0.607  12.440  19.858  0.00  0.00    +0.000 A 
ATOM     26  S   UNL     1       0.737  11.521  20.382  0.00  0.00    +0.000 S 
ENDBRANCH  20  22
ENDBRANCH  16  17
ENDBRANCH  10  16
TORSDOF 6
ENDMDL
MODEL 3
REMARK VINA RESULT:      -7.2      2.872      6.538
REMARK  Name = 
REMARK  6 active torsions:
REMARK  status: ('A' for Active; 'I' for Inactive)
REMARK    1  A    between atoms: O_1  and  C_2
REMARK    2  A    between atoms: C_2  and  C_3
REMARK    3  A    between atoms: C_3  and  N_4
REMARK    4  A    between atoms: N_13  and  C_14
REMARK    5  A    between atoms: C_14  and  C_15
REMARK    6  A    between atoms: C_18  and  C_19
REMARK                            x       y       z     vdW  Elec       q    Type
REMARK                         _______ _______ _______ _____ _____    ______ ____
ROOT
ATOM      1  N   UNL     1       6.734   5.437  17.704  0.00  0.00    +0.000 N 
ATOM      2  C   UNL     1       6.724   5.051  16.409  0.00  0.00    +0.000 A 
ATOM      3  N   UNL     1       7.580   5.387  15.473  0.00  0.00    +0.000 NA
ATOM      4  C   UNL     1       7.115   4.823  14.315  0.00  0.00    +0.000 A 
ATOM      5  C   UNL     1       7.654   4.878  13.021  0.00  0.00    +0.000 A 
ATOM      6  C   UNL     1       6.961   4.260  11.975  0.00  0.00    +0.000 A 
ATOM      7  C   UNL     1       5.755   3.597  12.214  0.00  0.00    +0.000 A 
ATOM      8  C   UNL     1       5.218   3.504  13.505  0.00  0.00    +0.000 A 
ATOM      9  C   UNL     1       5.933   4.125  14.538  0.00  0.00    +0.000 A 
ATOM     10  N   UNL     1       5.745   4.224  15.903  0.00  0.00    +0.000 N 
ATOM     11  H   UNL     1       5.862   5.368  18.239  0.00  0.00    +0.000 HD
ENDROOT
BRANCH   1  12
ATOM     12  C   UNL     1       7.400   6.705  18.021  0.00  0.00    +0.000 C 
BRANCH  12  13
ATOM     13  C   UNL     1       8.311   6.511  19.237  0.00  0.00    +0.000 C 
BRANCH  13  14
ATOM     14  O   UNL     1       7.706   5.586  20.146  0.00  0.00    +0.000 OA
ATOM     15  H   UNL     1       6.746   5.671  20.019  0.00  0.00    +0.000 HD
ENDBRANCH  13  14
ENDBRANCH  12  13
ENDBRANCH   1  12
BRANCH  10  16
ATOM     16  C   UNL     1       4.748   3.508  16.682  0.00  0.00    +0.000 C 
BRANCH  16  17
ATOM     17  C   UNL     1       4.130   4.393  17.699  0.00  0.00    +0.000 A 
ATOM     18  C   UNL     1       3.983   4.186  19.049  0.00  0.00    +0.000 A 
ATOM     19  O   UNL     1       3.372   5.273  19.583  0.00  0.00    +0.000 OA
ATOM     20  C   UNL     1       3.166   6.126  18.522  0.00  0.00    +0.000 A 
ATOM     21  N   UNL     1       3.623   5.638  17.377  0.00  0.00    +0.000 NA
BRANCH  20  22
ATOM     22  C   UNL     1       2.506   7.399  18.648  0.00  0.00    +0.000 A 
ATOM     23  C   UNL     1       2.377   8.382  17.684  0.00  0.00    +0.000 A 
ATOM     24  C   UNL     1       1.604   9.495  18.132  0.00  0.00    +0.000 A 
ATOM     25  C   UNL     1       1.204   9.348  19.440  0.00  0.00    +0.000 A 
ATOM     26  S   UNL     1       1.739   7.868  20.110  0.00  0.00    +0.000 S 
ENDBRANCH  20  22
ENDBRANCH  16  17
ENDBRANCH  10  16
TORSDOF 6
ENDMDL
MODEL 4
REMARK VINA RESULT:      -7.2      3.096      6.732
REMARK  Name = 
REMARK  6 active torsions:
REMARK  status: ('A' for Active; 'I' for Inactive)
REMARK    1  A    between atoms: O_1  and  C_2
REMARK    2  A    between atoms: C_2  and  C_3
REMARK    3  A    between atoms: C_3  and  N_4
REMARK    4  A    between atoms: N_13  and  C_14
REMARK    5  A    between atoms: C_14  and  C_15
REMARK    6  A    between atoms: C_18  and  C_19
REMARK                            x       y       z     vdW  Elec       q    Type
REMARK                         _______ _______ _______ _____ _____    ______ ____
ROOT
ATOM      1  N   UNL     1       5.076   5.593  16.734  0.00  0.00    +0.000 N 
ATOM      2  C   UNL     1       4.157   4.824  17.361  0.00  0.00    +0.000 A 
ATOM      3  N   UNL     1       3.805   3.598  17.054  0.00  0.00    +0.000 NA
ATOM      4  C   UNL     1       2.791   3.270  17.914  0.00  0.00    +0.000 A 
ATOM      5  C   UNL     1       2.059   2.078  18.010  0.00  0.00    +0.000 A 
ATOM      6  C   UNL     1       1.021   1.997  18.944  0.00  0.00    +0.000 A 
ATOM      7  C   UNL     1       0.721   3.083  19.769  0.00  0.00    +0.000 A 
ATOM      8  C   UNL     1       1.463   4.270  19.711  0.00  0.00    +0.000 A 
ATOM      9  C   UNL     1       2.502   4.325  18.772  0.00  0.00    +0.000 A 
ATOM     10  N   UNL     1       3.442   5.283  18.446  0.00  0.00    +0.000 N 
ATOM     11  H   UNL     1       5.031   6.609  16.865  0.00  0.00    +0.000 HD
ENDROOT
BRANCH   1  12
ATOM     12  C   UNL     1       5.348   5.297  15.323  0.00  0.00    +0.000 C 
BRANCH  12  13
ATOM     13  C   UNL     1       6.836   4.978  15.149  0.00  0.00    +0.000 C 
BRANCH  13  14
ATOM     14  O   UNL     1       7.618   5.927  15.880  0.00  0.00    +0.000 OA
ATOM     15  H   UNL     1       7.620   6.742  15.350  0.00  0.00    +0.000 HD
ENDBRANCH  13  14
ENDBRANCH  12  13
ENDBRANCH   1  12
BRANCH  10  16
ATOM     16  C   UNL     1       3.697   6.513  19.176  0.00  0.00    +0.000 C 
BRANCH  16  17
ATOM     17  C   UNL     1       2.832   7.613  18.685  0.00  0.00    +0.000 A 
ATOM     18  C   UNL     1       2.766   8.166  17.429  0.00  0.00    +0.000 A 
ATOM     19  O   UNL     1       1.819   9.137  17.439  0.00  0.00    +0.000 OA
ATOM     20  C   UNL     1       1.325   9.142  18.725  0.00  0.00    +0.000 A 
ATOM     21  N   UNL     1       1.898   8.230  19.497  0.00  0.00    +0.000 NA
BRANCH  20  22
ATOM     22  C   UNL     1       0.310  10.058  19.178  0.00  0.00    +0.000 A 
ATOM     23  C   UNL     1      -0.788  10.516  18.474  0.00  0.00    +0.000 A 
ATOM     24  C   UNL     1      -1.625  11.370  19.254  0.00  0.00    +0.000 A 
ATOM     25  C   UNL     1      -1.116  11.574  20.516  0.00  0.00    +0.000 A 
ATOM     26  S   UNL     1       0.348  10.722  20.760  0.00  0.00    +0.000 S 
ENDBRANCH  20  22
ENDBRANCH  16  17
ENDBRANCH  10  16
TORSDOF 6
ENDMDL
MODEL 5
REMARK VINA RESULT:      -7.2      3.235      6.904
REMARK  Name = 
REMARK  6 active torsions:
REMARK  status: ('A' for Active; 'I' for Inactive)
REMARK    1  A    between atoms: O_1  and  C_2
REMARK    2  A    between atoms: C_2  and  C_3
REMARK    3  A    between atoms: C_3  and  N_4
REMARK    4  A    between atoms: N_13  and  C_14
REMARK    5  A    between atoms: C_14  and  C_15
REMARK    6  A    between atoms: C_18  and  C_19
REMARK                            x       y       z     vdW  Elec       q    Type
REMARK                         _______ _______ _______ _____ _____    ______ ____
ROOT
ATOM      1  N   UNL     1       6.044   5.872  18.191  0.00  0.00    +0.000 N 
ATOM      2  C   UNL     1       4.976   5.083  18.443  0.00  0.00    +0.000 A 
ATOM      3  N   UNL     1       4.974   3.920  19.052  0.00  0.00    +0.000 NA
ATOM      4  C   UNL     1       3.683   3.468  18.998  0.00  0.00    +0.000 A 
ATOM      5  C   UNL     1       3.137   2.276  19.497  0.00  0.00    +0.000 A 
ATOM      6  C   UNL     1       1.784   2.007  19.269  0.00  0.00    +0.000 A 
ATOM      7  C   UNL     1       0.988   2.909  18.562  0.00  0.00    +0.000 A 
ATOM      8  C   UNL     1       1.507   4.120  18.085  0.00  0.00    +0.000 A 
ATOM      9  C   UNL     1       2.864   4.372  18.330  0.00  0.00    +0.000 A 
ATOM     10  N   UNL     1       3.703   5.432  18.050  0.00  0.00    +0.000 N 
ATOM     11  H   UNL     1       5.964   6.577  17.451  0.00  0.00    +0.000 HD
ENDROOT
BRANCH   1  12
ATOM     12  C   UNL     1       7.354   5.219  18.098  0.00  0.00    +0.000 C 
BRANCH  12  13
ATOM     13  C   UNL     1       7.528   4.623  16.698  0.00  0.00    +0.000 C 
BRANCH  13  14
ATOM     14  O   UNL     1       7.549   5.675  15.729  0.00  0.00    +0.000 OA
ATOM     15  H   UNL     1       7.008   5.368  14.983  0.00  0.00    +0.000 HD
ENDBRANCH  13  14
ENDBRANCH  12  13
ENDBRANCH   1  12
BRANCH  10  16
ATOM     16  C   UNL     1       3.299   6.725  17.523  0.00  0.00    +0.000 C 
BRANCH  16  17
ATOM     17  C   UNL     1       2.514   7.488  18.524  0.00  0.00    +0.000 A 
ATOM     18  C   UNL     1       2.382   7.261  19.872  0.00  0.00    +0.000 A 
ATOM     19  O   UNL     1       1.576   8.222  20.389  0.00  0.00    +0.000 OA
ATOM     20  C   UNL     1       1.240   9.022  19.319  0.00  0.00    +0.000 A 
ATOM     21  N   UNL     1       1.798   8.621  18.186  0.00  0.00    +0.000 NA
BRANCH  20  22
ATOM     22  C   UNL     1       0.359  10.156  19.426  0.00  0.00    +0.000 A 
ATOM     23  C   UNL     1      -0.557  10.604  18.492  0.00  0.00    +0.000 A 
ATOM     24  C   UNL     1      -1.310  11.725  18.953  0.00  0.00    +0.000 A 
ATOM     25  C   UNL     1      -0.914  12.128  20.208  0.00  0.00    +0.000 A 
ATOM     26  S   UNL     1       0.340  11.144  20.829  0.00  0.00    +0.000 S 
ENDBRANCH  20  22
ENDBRANCH  16  17
ENDBRANCH  10  16
TORSDOF 6
ENDMDL
MODEL 6
REMARK VINA RESULT:      -7.2      3.414      7.094
REMARK  Name = 
REMARK  6 active torsions:
REMARK  status: ('A' for Active; 'I' for Inactive)
REMARK    1  A    between atoms: O_1  and  C_2
REMARK    2  A    between atoms: C_2  and  C_3
REMARK    3  A    between atoms: C_3  and  N_4
REMARK    4  A    between atoms: N_13  and  C_14
REMARK    5  A    between atoms: C_14  and  C_15
REMARK    6  A    between atoms: C_18  and  C_19
REMARK                            x       y       z     vdW  Elec       q    Type
REMARK                         _______ _______ _______ _____ _____    ______ ____
ROOT
ATOM      1  N   UNL     1       1.606   4.185  18.593  0.00  0.00    +0.000 N 
ATOM      2  C   UNL     1       2.787   4.457  17.995  0.00  0.00    +0.000 A 
ATOM      3  N   UNL     1       3.317   3.840  16.964  0.00  0.00    +0.000 NA
ATOM      4  C   UNL     1       4.546   4.411  16.773  0.00  0.00    +0.000 A 
ATOM      5  C   UNL     1       5.521   4.118  15.808  0.00  0.00    +0.000 A 
ATOM      6  C   UNL     1       6.737   4.807  15.848  0.00  0.00    +0.000 A 
ATOM      7  C   UNL     1       6.977   5.773  16.827  0.00  0.00    +0.000 A 
ATOM      8  C   UNL     1       6.002   6.102  17.779  0.00  0.00    +0.000 A 
ATOM      9  C   UNL     1       4.789   5.403  17.716  0.00  0.00    +0.000 A 
ATOM     10  N   UNL     1       3.615   5.464  18.441  0.00  0.00    +0.000 N 
ATOM     11  H   UNL     1       1.459   4.516  19.552  0.00  0.00    +0.000 HD
ENDROOT
BRANCH   1  12
ATOM     12  C   UNL     1       1.089   2.818  18.467  0.00  0.00    +0.000 C 
BRANCH  12  13
ATOM     13  C   UNL     1       1.918   1.878  19.348  0.00  0.00    +0.000 C 
BRANCH  13  14
ATOM     14  O   UNL     1       2.881   1.192  18.543  0.00  0.00    +0.000 OA
ATOM     15  H   UNL     1       2.410   0.905  17.743  0.00  0.00    +0.000 HD
ENDBRANCH  13  14
ENDBRANCH  12  13
ENDBRANCH   1  12
BRANCH  10  16
ATOM     16  C   UNL     1       3.274   6.470  19.432  0.00  0.00    +0.000 C 
BRANCH  16  17
ATOM     17  C   UNL     1       2.607   7.636  18.801  0.00  0.00    +0.000 A 
ATOM     18  C   UNL     1       2.795   8.162  17.547  0.00  0.00    +0.000 A 
ATOM     19  O   UNL     1       1.956   9.218  17.398  0.00  0.00    +0.000 OA
ATOM     20  C   UNL     1       1.268   9.301  18.589  0.00  0.00    +0.000 A 
ATOM     21  N   UNL     1       1.621   8.356  19.449  0.00  0.00    +0.000 NA
BRANCH  20  22
ATOM     22  C   UNL     1       0.289  10.318  18.867  0.00  0.00    +0.000 A 
ATOM     23  C   UNL     1      -0.935  10.503  18.252  0.00  0.00    +0.000 A 
ATOM     24  C   UNL     1      -1.682  11.577  18.821  0.00  0.00    +0.000 A 
ATOM     25  C   UNL     1      -0.987  12.209  19.826  0.00  0.00    +0.000 A 
ATOM     26  S   UNL     1       0.545  11.495  20.091  0.00  0.00    +0.000 S 
ENDBRANCH  20  22
ENDBRANCH  16  17
ENDBRANCH  10  16
TORSDOF 6
ENDMDL
MODEL 7
REMARK VINA RESULT:      -7.1      0.939      1.097
REMARK  Name = 
REMARK  6 active torsions:
REMARK  status: ('A' for Active; 'I' for Inactive)
REMARK    1  A    between atoms: O_1  and  C_2
REMARK    2  A    between atoms: C_2  and  C_3
REMARK    3  A    between atoms: C_3  and  N_4
REMARK    4  A    between atoms: N_13  and  C_14
REMARK    5  A    between atoms: C_14  and  C_15
REMARK    6  A    between atoms: C_18  and  C_19
REMARK                            x       y       z     vdW  Elec       q    Type
REMARK                         _______ _______ _______ _____ _____    ______ ____
ROOT
ATOM      1  N   UNL     1       2.960   7.697  18.520  0.00  0.00    +0.000 N 
ATOM      2  C   UNL     1       2.903   6.347  18.479  0.00  0.00    +0.000 A 
ATOM      3  N   UNL     1       1.845   5.603  18.255  0.00  0.00    +0.000 NA
ATOM      4  C   UNL     1       2.260   4.306  18.393  0.00  0.00    +0.000 A 
ATOM      5  C   UNL     1       1.523   3.120  18.262  0.00  0.00    +0.000 A 
ATOM      6  C   UNL     1       2.161   1.899  18.507  0.00  0.00    +0.000 A 
ATOM      7  C   UNL     1       3.508   1.861  18.873  0.00  0.00    +0.000 A 
ATOM      8  C   UNL     1       4.268   3.034  18.976  0.00  0.00    +0.000 A 
ATOM      9  C   UNL     1       3.610   4.244  18.720  0.00  0.00    +0.000 A 
ATOM     10  N   UNL     1       4.015   5.564  18.695  0.00  0.00    +0.000 N 
ATOM     11  H   UNL     1       3.750   8.136  19.005  0.00  0.00    +0.000 HD
ENDROOT
BRANCH   1  12
ATOM     12  C   UNL     1       1.725   8.411  18.860  0.00  0.00    +0.000 C 
BRANCH  12  13
ATOM     13  C   UNL     1       1.309   9.297  17.681  0.00  0.00    +0.000 C 
BRANCH  13  14
ATOM     14  O   UNL     1       2.279  10.331  17.495  0.00  0.00    +0.000 OA
ATOM     15  H   UNL     1       2.715  10.145  16.646  0.00  0.00    +0.000 HD
ENDBRANCH  13  14
ENDBRANCH  12  13
ENDBRANCH   1  12
BRANCH  10  16
ATOM     16  C   UNL     1       5.386   6.038  18.786  0.00  0.00    +0.000 C 
BRANCH  16  17
ATOM     17  C   UNL     1       6.227   5.446  17.716  0.00  0.00    +0.000 A 
ATOM     18  C   UNL     1       7.456   4.841  17.820  0.00  0.00    +0.000 A 
ATOM     19  O   UNL     1       7.837   4.438  16.582  0.00  0.00    +0.000 OA
ATOM     20  C   UNL     1       6.807   4.815  15.748  0.00  0.00    +0.000 A 
ATOM     21  N   UNL     1       5.816   5.408  16.397  0.00  0.00    +0.000 NA
BRANCH  20  22
ATOM     22  C   UNL     1       6.824   4.601  14.325  0.00  0.00    +0.000 A 
ATOM     23  C   UNL     1       7.697   5.145  13.400  0.00  0.00    +0.000 A 
ATOM     24  C   UNL     1       7.464   4.668  12.076  0.00  0.00    +0.000 A 
ATOM     25  C   UNL     1       6.392   3.808  12.022  0.00  0.00    +0.000 A 
ATOM     26  S   UNL     1       5.689   3.564  13.562  0.00  0.00    +0.000 S 
ENDBRANCH  20  22
ENDBRANCH  16  17
ENDBRANCH  10  16
TORSDOF 6
ENDMDL
MODEL 8
REMARK VINA RESULT:      -7.1      4.141      7.647
REMARK  Name = 
REMARK  6 active torsions:
REMARK  status: ('A' for Active; 'I' for Inactive)
REMARK    1  A    between atoms: O_1  and  C_2
REMARK    2  A    between atoms: C_2  and  C_3
REMARK    3  A    between atoms: C_3  and  N_4
REMARK    4  A    between atoms: N_13  and  C_14
REMARK    5  A    between atoms: C_14  and  C_15
REMARK    6  A    between atoms: C_18  and  C_19
REMARK                            x       y       z     vdW  Elec       q    Type
REMARK                         _______ _______ _______ _____ _____    ______ ____
ROOT
ATOM      1  N   UNL     1       2.185   5.122  19.838  0.00  0.00    +0.000 N 
ATOM      2  C   UNL     1       3.419   5.361  19.340  0.00  0.00    +0.000 A 
ATOM      3  N   UNL     1       4.549   4.809  19.717  0.00  0.00    +0.000 NA
ATOM      4  C   UNL     1       5.531   5.423  18.987  0.00  0.00    +0.000 A 
ATOM      5  C   UNL     1       6.917   5.209  19.006  0.00  0.00    +0.000 A 
ATOM      6  C   UNL     1       7.734   6.007  18.199  0.00  0.00    +0.000 A 
ATOM      7  C   UNL     1       7.181   6.997  17.385  0.00  0.00    +0.000 A 
ATOM      8  C   UNL     1       5.796   7.203  17.328  0.00  0.00    +0.000 A 
ATOM      9  C   UNL     1       4.996   6.387  18.140  0.00  0.00    +0.000 A 
ATOM     10  N   UNL     1       3.633   6.276  18.332  0.00  0.00    +0.000 N 
ATOM     11  H   UNL     1       1.455   5.825  19.686  0.00  0.00    +0.000 HD
ENDROOT
BRANCH   1  12
ATOM     12  C   UNL     1       2.102   4.626  21.215  0.00  0.00    +0.000 C 
BRANCH  12  13
ATOM     13  C   UNL     1       1.778   3.129  21.198  0.00  0.00    +0.000 C 
BRANCH  13  14
ATOM     14  O   UNL     1       2.710   2.427  22.025  0.00  0.00    +0.000 OA
ATOM     15  H   UNL     1       2.913   1.597  21.563  0.00  0.00    +0.000 HD
ENDBRANCH  13  14
ENDBRANCH  12  13
ENDBRANCH   1  12
BRANCH  10  16
ATOM     16  C   UNL     1       2.603   6.933  17.545  0.00  0.00    +0.000 C 
BRANCH  16  17
ATOM     17  C   UNL     1       2.080   8.131  18.247  0.00  0.00    +0.000 A 
ATOM     18  C   UNL     1       2.079   9.441  17.835  0.00  0.00    +0.000 A 
ATOM     19  O   UNL     1       1.482  10.190  18.796  0.00  0.00    +0.000 OA
ATOM     20  C   UNL     1       1.129   9.294  19.781  0.00  0.00    +0.000 A 
ATOM     21  N   UNL     1       1.457   8.046  19.479  0.00  0.00    +0.000 NA
BRANCH  20  22
ATOM     22  C   UNL     1       0.491   9.683  21.011  0.00  0.00    +0.000 A 
ATOM     23  C   UNL     1       0.526   9.023  22.226  0.00  0.00    +0.000 A 
ATOM     24  C   UNL     1      -0.169   9.725  23.255  0.00  0.00    +0.000 A 
ATOM     25  C   UNL     1      -0.753  10.879  22.784  0.00  0.00    +0.000 A 
ATOM     26  S   UNL     1      -0.443  11.119  21.120  0.00  0.00    +0.000 S 
ENDBRANCH  20  22
ENDBRANCH  16  17
ENDBRANCH  10  16
TORSDOF 6
ENDMDL
MODEL 9
REMARK VINA RESULT:      -7.0      4.001      7.412
REMARK  Name = 
REMARK  6 active torsions:
REMARK  status: ('A' for Active; 'I' for Inactive)
REMARK    1  A    between atoms: O_1  and  C_2
REMARK    2  A    between atoms: C_2  and  C_3
REMARK    3  A    between atoms: C_3  and  N_4
REMARK    4  A    between atoms: N_13  and  C_14
REMARK    5  A    between atoms: C_14  and  C_15
REMARK    6  A    between atoms: C_18  and  C_19
REMARK                            x       y       z     vdW  Elec       q    Type
REMARK                         _______ _______ _______ _____ _____    ______ ____
ROOT
ATOM      1  N   UNL     1       2.993   3.749  19.642  0.00  0.00    +0.000 N 
ATOM      2  C   UNL     1       4.099   4.393  19.207  0.00  0.00    +0.000 A 
ATOM      3  N   UNL     1       5.348   4.122  19.508  0.00  0.00    +0.000 NA
ATOM      4  C   UNL     1       6.102   5.088  18.899  0.00  0.00    +0.000 A 
ATOM      5  C   UNL     1       7.493   5.264  18.905  0.00  0.00    +0.000 A 
ATOM      6  C   UNL     1       8.036   6.372  18.246  0.00  0.00    +0.000 A 
ATOM      7  C   UNL     1       7.209   7.286  17.591  0.00  0.00    +0.000 A 
ATOM      8  C   UNL     1       5.819   7.109  17.547  0.00  0.00    +0.000 A 
ATOM      9  C   UNL     1       5.298   5.988  18.208  0.00  0.00    +0.000 A 
ATOM     10  N   UNL     1       4.025   5.477  18.359  0.00  0.00    +0.000 N 
ATOM     11  H   UNL     1       2.094   4.239  19.593  0.00  0.00    +0.000 HD
ENDROOT
BRANCH   1  12
ATOM     12  C   UNL     1       3.091   3.040  20.923  0.00  0.00    +0.000 C 
BRANCH  12  13
ATOM     13  C   UNL     1       1.687   2.650  21.396  0.00  0.00    +0.000 C 
BRANCH  13  14
ATOM     14  O   UNL     1       0.710   3.376  20.645  0.00  0.00    +0.000 OA
ATOM     15  H   UNL     1      -0.008   2.749  20.456  0.00  0.00    +0.000 HD
ENDBRANCH  13  14
ENDBRANCH  12  13
ENDBRANCH   1  12
BRANCH  10  16
ATOM     16  C   UNL     1       2.831   5.940  17.672  0.00  0.00    +0.000 C 
BRANCH  16  17
ATOM     17  C   UNL     1       2.353   7.225  18.239  0.00  0.00    +0.000 A 
ATOM     18  C   UNL     1       2.380   8.479  17.679  0.00  0.00    +0.000 A 
ATOM     19  O   UNL     1       1.822   9.350  18.557  0.00  0.00    +0.000 OA
ATOM     20  C   UNL     1       1.463   8.583  19.643  0.00  0.00    +0.000 A 
ATOM     21  N   UNL     1       1.752   7.300  19.482  0.00  0.00    +0.000 NA
BRANCH  20  22
ATOM     22  C   UNL     1       0.859   9.130  20.831  0.00  0.00    +0.000 A 
ATOM     23  C   UNL     1       1.089   8.757  22.142  0.00  0.00    +0.000 A 
ATOM     24  C   UNL     1       0.363   9.553  23.077  0.00  0.00    +0.000 A 
ATOM     25  C   UNL     1      -0.435  10.482  22.448  0.00  0.00    +0.000 A 
ATOM     26  S   UNL     1      -0.287  10.404  20.746  0.00  0.00    +0.000 S 
ENDBRANCH  20  22
ENDBRANCH  16  17
ENDBRANCH  10  16
TORSDOF 6
ENDMDL
