MODEL 1
REMARK VINA RESULT:      -6.6      0.000      0.000
REMARK  Name = 
REMARK  2 active torsions:
REMARK  status: ('A' for Active; 'I' for Inactive)
REMARK    1  A    between atoms: C_1  and  N_2
REMARK    2  A    between atoms: C_3  and  C_5
REMARK                            x       y       z     vdW  Elec       q    Type
REMARK                         _______ _______ _______ _____ _____    ______ ____
ROOT
ATOM      1  C   UNL     1       5.447   4.942  15.670  0.00  0.00    +0.000 A 
ATOM      2  C   UNL     1       4.701   3.979  16.322  0.00  0.00    +0.000 A 
ATOM      3  C   UNL     1       3.884   4.506  17.377  0.00  0.00    +0.000 A 
ATOM      4  C   UNL     1       3.006   3.855  18.277  0.00  0.00    +0.000 A 
ATOM      5  C   UNL     1       2.300   4.602  19.223  0.00  0.00    +0.000 A 
ATOM      6 BR   UNL     1       1.142   3.718  20.430  0.00  0.00    +0.000 Br
ATOM      7  C   UNL     1       2.436   5.980  19.291  0.00  0.00    +0.000 A 
ATOM      8  C   UNL     1       3.299   6.645  18.418  0.00  0.00    +0.000 A 
ATOM      9  C   UNL     1       4.022   5.892  17.473  0.00  0.00    +0.000 A 
ATOM     10  S   UNL     1       5.148   6.492  16.324  0.00  0.00    +0.000 S 
ENDROOT
BRANCH   1  13
ATOM     11  C   UNL     1       6.713   3.636  12.388  0.00  0.00    +0.000 C 
ATOM     12  N   UNL     1       5.913   3.938  13.543  0.00  0.00    +0.000 N 
ATOM     13  C   UNL     1       6.379   4.731  14.572  0.00  0.00    +0.000 C 
ATOM     14  O   UNL     1       7.507   5.221  14.548  0.00  0.00    +0.000 OA
ATOM     15  H   UNL     1       4.984   3.545  13.625  0.00  0.00    +0.000 HD
ENDBRANCH   1  13
TORSDOF 1
ENDMDL
MODEL 2
REMARK VINA RESULT:      -6.4      1.126      1.137
REMARK  Name = 
REMARK  2 active torsions:
REMARK  status: ('A' for Active; 'I' for Inactive)
REMARK    1  A    between atoms: C_1  and  N_2
REMARK    2  A    between atoms: C_3  and  C_5
REMARK                            x       y       z     vdW  Elec       q    Type
REMARK                         _______ _______ _______ _____ _____    ______ ____
ROOT
ATOM      1  C   UNL     1       5.981   4.643  15.576  0.00  0.00    +0.000 A 
ATOM      2  C   UNL     1       4.696   4.180  15.785  0.00  0.00    +0.000 A 
ATOM      3  C   UNL     1       4.243   4.343  17.136  0.00  0.00    +0.000 A 
ATOM      4  C   UNL     1       3.016   3.985  17.748  0.00  0.00    +0.000 A 
ATOM      5  C   UNL     1       2.804   4.268  19.100  0.00  0.00    +0.000 A 
ATOM      6 BR   UNL     1       1.168   3.771  19.908  0.00  0.00    +0.000 Br
ATOM      7  C   UNL     1       3.776   4.906  19.857  0.00  0.00    +0.000 A 
ATOM      8  C   UNL     1       4.995   5.263  19.278  0.00  0.00    +0.000 A 
ATOM      9  C   UNL     1       5.215   4.968  17.919  0.00  0.00    +0.000 A 
ATOM     10  S   UNL     1       6.637   5.293  17.014  0.00  0.00    +0.000 S 
ENDROOT
BRANCH   1  13
ATOM     11  C   UNL     1       6.939   3.520  12.126  0.00  0.00    +0.000 C 
ATOM     12  N   UNL     1       6.303   3.676  13.405  0.00  0.00    +0.000 N 
ATOM     13  C   UNL     1       6.730   4.609  14.328  0.00  0.00    +0.000 C 
ATOM     14  O   UNL     1       7.680   5.356  14.097  0.00  0.00    +0.000 OA
ATOM     15  H   UNL     1       5.529   3.074  13.657  0.00  0.00    +0.000 HD
ENDBRANCH   1  13
TORSDOF 1
ENDMDL
MODEL 3
REMARK VINA RESULT:      -6.1      4.131      5.944
REMARK  Name = 
REMARK  2 active torsions:
REMARK  status: ('A' for Active; 'I' for Inactive)
REMARK    1  A    between atoms: C_1  and  N_2
REMARK    2  A    between atoms: C_3  and  C_5
REMARK                            x       y       z     vdW  Elec       q    Type
REMARK                         _______ _______ _______ _____ _____    ______ ____
ROOT
ATOM      1  C   UNL     1       3.891   4.397  18.935  0.00  0.00    +0.000 A 
ATOM      2  C   UNL     1       3.672   3.956  17.645  0.00  0.00    +0.000 A 
ATOM      3  C   UNL     1       4.786   4.175  16.768  0.00  0.00    +0.000 A 
ATOM      4  C   UNL     1       4.948   3.888  15.391  0.00  0.00    +0.000 A 
ATOM      5  C   UNL     1       6.155   4.189  14.755  0.00  0.00    +0.000 A 
ATOM      6 BR   UNL     1       6.352   3.815  12.911  0.00  0.00    +0.000 Br
ATOM      7  C   UNL     1       7.208   4.759  15.454  0.00  0.00    +0.000 A 
ATOM      8  C   UNL     1       7.071   5.057  16.811  0.00  0.00    +0.000 A 
ATOM      9  C   UNL     1       5.851   4.766  17.451  0.00  0.00    +0.000 A 
ATOM     10  S   UNL     1       5.456   5.065  19.095  0.00  0.00    +0.000 S 
ENDROOT
BRANCH   1  13
ATOM     11  C   UNL     1       1.777   2.835  21.613  0.00  0.00    +0.000 C 
ATOM     12  N   UNL     1       2.677   3.065  20.517  0.00  0.00    +0.000 N 
ATOM     13  C   UNL     1       2.958   4.333  20.052  0.00  0.00    +0.000 C 
ATOM     14  O   UNL     1       2.449   5.333  20.556  0.00  0.00    +0.000 OA
ATOM     15  H   UNL     1       3.110   2.277  20.051  0.00  0.00    +0.000 HD
ENDBRANCH   1  13
TORSDOF 1
ENDMDL
MODEL 4
REMARK VINA RESULT:      -6.1      2.756      3.406
REMARK  Name = 
REMARK  2 active torsions:
REMARK  status: ('A' for Active; 'I' for Inactive)
REMARK    1  A    between atoms: C_1  and  N_2
REMARK    2  A    between atoms: C_3  and  C_5
REMARK                            x       y       z     vdW  Elec       q    Type
REMARK                         _______ _______ _______ _____ _____    ______ ____
ROOT
ATOM      1  C   UNL     1       5.837   5.364  17.548  0.00  0.00    +0.000 A 
ATOM      2  C   UNL     1       5.223   5.390  18.785  0.00  0.00    +0.000 A 
ATOM      3  C   UNL     1       4.243   4.357  18.959  0.00  0.00    +0.000 A 
ATOM      4  C   UNL     1       3.398   4.062  20.056  0.00  0.00    +0.000 A 
ATOM      5  C   UNL     1       2.524   2.974  19.988  0.00  0.00    +0.000 A 
ATOM      6 BR   UNL     1       1.389   2.600  21.454  0.00  0.00    +0.000 Br
ATOM      7  C   UNL     1       2.475   2.166  18.862  0.00  0.00    +0.000 A 
ATOM      8  C   UNL     1       3.295   2.440  17.765  0.00  0.00    +0.000 A 
ATOM      9  C   UNL     1       4.167   3.543  17.827  0.00  0.00    +0.000 A 
ATOM     10  S   UNL     1       5.240   4.076  16.597  0.00  0.00    +0.000 S 
ENDROOT
BRANCH   1  13
ATOM     11  C   UNL     1       8.066   8.382  17.505  0.00  0.00    +0.000 C 
ATOM     12  N   UNL     1       7.090   7.387  17.851  0.00  0.00    +0.000 N 
ATOM     13  C   UNL     1       6.858   6.280  17.059  0.00  0.00    +0.000 C 
ATOM     14  O   UNL     1       7.481   6.092  16.015  0.00  0.00    +0.000 OA
ATOM     15  H   UNL     1       6.534   7.500  18.689  0.00  0.00    +0.000 HD
ENDBRANCH   1  13
TORSDOF 1
ENDMDL
MODEL 5
REMARK VINA RESULT:      -6.0      1.561      2.087
REMARK  Name = 
REMARK  2 active torsions:
REMARK  status: ('A' for Active; 'I' for Inactive)
REMARK    1  A    between atoms: C_1  and  N_2
REMARK    2  A    between atoms: C_3  and  C_5
REMARK                            x       y       z     vdW  Elec       q    Type
REMARK                         _______ _______ _______ _____ _____    ______ ____
ROOT
ATOM      1  C   UNL     1       5.370   5.120  15.905  0.00  0.00    +0.000 A 
ATOM      2  C   UNL     1       4.908   6.348  16.335  0.00  0.00    +0.000 A 
ATOM      3  C   UNL     1       4.008   6.262  17.449  0.00  0.00    +0.000 A 
ATOM      4  C   UNL     1       3.315   7.275  18.156  0.00  0.00    +0.000 A 
ATOM      5  C   UNL     1       2.493   6.934  19.233  0.00  0.00    +0.000 A 
ATOM      6 BR   UNL     1       1.561   8.294  20.160  0.00  0.00    +0.000 Br
ATOM      7  C   UNL     1       2.349   5.613  19.631  0.00  0.00    +0.000 A 
ATOM      8  C   UNL     1       3.018   4.596  18.947  0.00  0.00    +0.000 A 
ATOM      9  C   UNL     1       3.836   4.937  17.853  0.00  0.00    +0.000 A 
ATOM     10  S   UNL     1       4.727   3.856  16.859  0.00  0.00    +0.000 S 
ENDROOT
BRANCH   1  13
ATOM     11  C   UNL     1       6.560   3.707  12.638  0.00  0.00    +0.000 C 
ATOM     12  N   UNL     1       5.786   4.050  13.799  0.00  0.00    +0.000 N 
ATOM     13  C   UNL     1       6.279   4.867  14.795  0.00  0.00    +0.000 C 
ATOM     14  O   UNL     1       7.411   5.345  14.736  0.00  0.00    +0.000 OA
ATOM     15  H   UNL     1       4.854   3.669  13.910  0.00  0.00    +0.000 HD
ENDBRANCH   1  13
TORSDOF 1
ENDMDL
MODEL 6
REMARK VINA RESULT:      -6.0      1.170      1.170
REMARK  Name = 
REMARK  2 active torsions:
REMARK  status: ('A' for Active; 'I' for Inactive)
REMARK    1  A    between atoms: C_1  and  N_2
REMARK    2  A    between atoms: C_3  and  C_5
REMARK                            x       y       z     vdW  Elec       q    Type
REMARK                         _______ _______ _______ _____ _____    ______ ____
ROOT
ATOM      1  C   UNL     1       5.565   4.766  15.551  0.00  0.00    +0.000 A 
ATOM      2  C   UNL     1       5.036   3.797  16.381  0.00  0.00    +0.000 A 
ATOM      3  C   UNL     1       4.291   4.333  17.484  0.00  0.00    +0.000 A 
ATOM      4  C   UNL     1       3.621   3.682  18.548  0.00  0.00    +0.000 A 
ATOM      5  C   UNL     1       2.943   4.437  19.509  0.00  0.00    +0.000 A 
ATOM      6 BR   UNL     1       2.065   3.556  20.934  0.00  0.00    +0.000 Br
ATOM      7  C   UNL     1       2.905   5.822  19.433  0.00  0.00    +0.000 A 
ATOM      8  C   UNL     1       3.563   6.487  18.396  0.00  0.00    +0.000 A 
ATOM      9  C   UNL     1       4.257   5.728  17.434  0.00  0.00    +0.000 A 
ATOM     10  S   UNL     1       5.148   6.331  16.096  0.00  0.00    +0.000 S 
ENDROOT
BRANCH   1  13
ATOM     11  C   UNL     1       8.258   5.406  13.018  0.00  0.00    +0.000 C 
ATOM     12  N   UNL     1       7.373   5.481  14.147  0.00  0.00    +0.000 N 
ATOM     13  C   UNL     1       6.377   4.551  14.362  0.00  0.00    +0.000 C 
ATOM     14  O   UNL     1       6.200   3.607  13.592  0.00  0.00    +0.000 OA
ATOM     15  H   UNL     1       7.460   6.248  14.802  0.00  0.00    +0.000 HD
ENDBRANCH   1  13
TORSDOF 1
ENDMDL
MODEL 7
REMARK VINA RESULT:      -5.9      4.203      5.914
REMARK  Name = 
REMARK  2 active torsions:
REMARK  status: ('A' for Active; 'I' for Inactive)
REMARK    1  A    between atoms: C_1  and  N_2
REMARK    2  A    between atoms: C_3  and  C_5
REMARK                            x       y       z     vdW  Elec       q    Type
REMARK                         _______ _______ _______ _____ _____    ______ ____
ROOT
ATOM      1  C   UNL     1       2.823   4.577  19.091  0.00  0.00    +0.000 A 
ATOM      2  C   UNL     1       3.391   3.720  18.169  0.00  0.00    +0.000 A 
ATOM      3  C   UNL     1       4.138   4.394  17.146  0.00  0.00    +0.000 A 
ATOM      4  C   UNL     1       4.842   3.883  16.029  0.00  0.00    +0.000 A 
ATOM      5  C   UNL     1       5.514   4.758  15.171  0.00  0.00    +0.000 A 
ATOM      6 BR   UNL     1       6.438   4.064  13.673  0.00  0.00    +0.000 Br
ATOM      7  C   UNL     1       5.513   6.126  15.400  0.00  0.00    +0.000 A 
ATOM      8  C   UNL     1       4.821   6.654  16.492  0.00  0.00    +0.000 A 
ATOM      9  C   UNL     1       4.133   5.776  17.350  0.00  0.00    +0.000 A 
ATOM     10  S   UNL     1       3.205   6.204  18.730  0.00  0.00    +0.000 S 
ENDROOT
BRANCH   1  13
ATOM     11  C   UNL     1       1.579   2.494  21.954  0.00  0.00    +0.000 C 
ATOM     12  N   UNL     1       2.301   2.996  20.817  0.00  0.00    +0.000 N 
ATOM     13  C   UNL     1       1.999   4.210  20.234  0.00  0.00    +0.000 C 
ATOM     14  O   UNL     1       1.093   4.924  20.663  0.00  0.00    +0.000 OA
ATOM     15  H   UNL     1       3.043   2.442  20.410  0.00  0.00    +0.000 HD
ENDBRANCH   1  13
TORSDOF 1
ENDMDL
MODEL 8
REMARK VINA RESULT:      -5.9      4.464      6.361
REMARK  Name = 
REMARK  2 active torsions:
REMARK  status: ('A' for Active; 'I' for Inactive)
REMARK    1  A    between atoms: C_1  and  N_2
REMARK    2  A    between atoms: C_3  and  C_5
REMARK                            x       y       z     vdW  Elec       q    Type
REMARK                         _______ _______ _______ _____ _____    ______ ____
ROOT
ATOM      1  C   UNL     1       2.554   7.242  18.933  0.00  0.00    +0.000 A 
ATOM      2  C   UNL     1       3.395   7.502  17.869  0.00  0.00    +0.000 A 
ATOM      3  C   UNL     1       4.013   6.325  17.329  0.00  0.00    +0.000 A 
ATOM      4  C   UNL     1       4.937   6.173  16.266  0.00  0.00    +0.000 A 
ATOM      5  C   UNL     1       5.388   4.898  15.914  0.00  0.00    +0.000 A 
ATOM      6 BR   UNL     1       6.634   4.710  14.503  0.00  0.00    +0.000 Br
ATOM      7  C   UNL     1       4.937   3.771  16.583  0.00  0.00    +0.000 A 
ATOM      8  C   UNL     1       4.030   3.895  17.638  0.00  0.00    +0.000 A 
ATOM      9  C   UNL     1       3.584   5.180  18.002  0.00  0.00    +0.000 A 
ATOM     10  S   UNL     1       2.496   5.569  19.273  0.00  0.00    +0.000 S 
ENDROOT
BRANCH   1  13
ATOM     11  C   UNL     1       1.026   8.852  21.959  0.00  0.00    +0.000 C 
ATOM     12  N   UNL     1       1.736   7.982  21.063  0.00  0.00    +0.000 N 
ATOM     13  C   UNL     1       1.794   8.216  19.705  0.00  0.00    +0.000 C 
ATOM     14  O   UNL     1       1.238   9.188  19.194  0.00  0.00    +0.000 OA
ATOM     15  H   UNL     1       2.196   7.156  21.426  0.00  0.00    +0.000 HD
ENDBRANCH   1  13
TORSDOF 1
ENDMDL
MODEL 9
REMARK VINA RESULT:      -5.8      4.150      5.999
REMARK  Name = 
REMARK  2 active torsions:
REMARK  status: ('A' for Active; 'I' for Inactive)
REMARK    1  A    between atoms: C_1  and  N_2
REMARK    2  A    between atoms: C_3  and  C_5
REMARK                            x       y       z     vdW  Elec       q    Type
REMARK                         _______ _______ _______ _____ _____    ______ ____
ROOT
ATOM      1  C   UNL     1       3.694   5.378  18.896  0.00  0.00    +0.000 A 
ATOM      2  C   UNL     1       3.438   5.052  17.579  0.00  0.00    +0.000 A 
ATOM      3  C   UNL     1       4.623   4.783  16.816  0.00  0.00    +0.000 A 
ATOM      4  C   UNL     1       4.784   4.439  15.452  0.00  0.00    +0.000 A 
ATOM      5  C   UNL     1       6.063   4.209  14.938  0.00  0.00    +0.000 A 
ATOM      6 BR   UNL     1       6.266   3.765  13.111  0.00  0.00    +0.000 Br
ATOM      7  C   UNL     1       7.185   4.302  15.748  0.00  0.00    +0.000 A 
ATOM      8  C   UNL     1       7.053   4.645  17.095  0.00  0.00    +0.000 A 
ATOM      9  C   UNL     1       5.766   4.890  17.611  0.00  0.00    +0.000 A 
ATOM     10  S   UNL     1       5.372   5.345  19.219  0.00  0.00    +0.000 S 
ENDROOT
BRANCH   1  13
ATOM     11  C   UNL     1       1.438   7.548  20.967  0.00  0.00    +0.000 C 
ATOM     12  N   UNL     1       2.389   7.055  20.008  0.00  0.00    +0.000 N 
ATOM     13  C   UNL     1       2.715   5.717  19.919  0.00  0.00    +0.000 C 
ATOM     14  O   UNL     1       2.203   4.878  20.659  0.00  0.00    +0.000 OA
ATOM     15  H   UNL     1       2.856   7.703  19.387  0.00  0.00    +0.000 HD
ENDBRANCH   1  13
TORSDOF 1
ENDMDL
