MODEL 1
REMARK VINA RESULT:      -8.3      0.000      0.000
REMARK  Name = 
REMARK  7 active torsions:
REMARK  status: ('A' for Active; 'I' for Inactive)
REMARK    1  A    between atoms: C_2  and  C_23
REMARK    2  A    between atoms: N_3  and  C_4
REMARK    3  A    between atoms: C_4  and  C_5
REMARK    4  A    between atoms: C_5  and  C_6
REMARK    5  A    between atoms: C_12  and  O_13
REMARK    6  A    between atoms: O_13  and  C_14
REMARK    7  A    between atoms: C_14  and  C_15
REMARK                            x       y       z     vdW  Elec       q    Type
REMARK                         _______ _______ _______ _____ _____    ______ ____
ROOT
ATOM      1  C   UNL     1       6.965   5.238  17.939  0.00  0.00    +0.000 A 
ATOM      2  C   UNL     1       7.454   4.451  16.912  0.00  0.00    +0.000 A 
ATOM      3  N   UNL     1       6.411   3.766  16.346  0.00  0.00    +0.000 N 
ATOM      4  C   UNL     1       5.237   4.079  16.985  0.00  0.00    +0.000 A 
ATOM      5  C   UNL     1       3.930   3.634  16.748  0.00  0.00    +0.000 A 
ATOM      6  C   UNL     1       2.914   4.160  17.553  0.00  0.00    +0.000 A 
ATOM      7  C   UNL     1       3.197   5.087  18.554  0.00  0.00    +0.000 A 
ATOM      8  C   UNL     1       4.519   5.469  18.812  0.00  0.00    +0.000 A 
ATOM      9  C   UNL     1       5.557   4.985  17.995  0.00  0.00    +0.000 A 
ATOM     10  H   UNL     1       6.488   3.132  15.563  0.00  0.00    +0.000 HD
ENDROOT
BRANCH   1  11
ATOM     11  C   UNL     1       7.741   6.186  18.819  0.00  0.00    +0.000 C 
BRANCH  11  12
ATOM     12  C   UNL     1       7.991   7.539  18.149  0.00  0.00    +0.000 C 
BRANCH  12  15
ATOM     13  O   UNL     1       8.086  10.212  17.596  0.00  0.00    +0.000 OA
ATOM     14  C   UNL     1       8.763   9.818  18.548  0.00  0.00    +0.000 C 
ATOM     15  N   UNL     1       8.791   8.482  18.904  0.00  0.00    +0.000 N 
ATOM     16  H   UNL     1       9.283   8.219  19.750  0.00  0.00    +0.000 HD
BRANCH  14  17
ATOM     17  C   UNL     1       9.557  10.713  19.355  0.00  0.00    +0.000 A 
ATOM     18  C   UNL     1      10.779  11.297  19.078  0.00  0.00    +0.000 A 
ATOM     19  C   UNL     1      11.141  12.054  20.214  0.00  0.00    +0.000 A 
ATOM     20  C   UNL     1      10.120  11.887  21.119  0.00  0.00    +0.000 A 
ATOM     21  O   UNL     1       9.145  11.085  20.608  0.00  0.00    +0.000 OA
ENDBRANCH  14  17
ENDBRANCH  12  15
ENDBRANCH  11  12
ENDBRANCH   1  11
BRANCH   7  22
ATOM     22  O   UNL     1       2.114   5.583  19.234  0.00  0.00    +0.000 OA
BRANCH  22  23
ATOM     23  C   UNL     1       2.432   6.604  20.183  0.00  0.00    +0.000 C 
BRANCH  23  24
ATOM     24  C   UNL     1       1.884   7.921  19.706  0.00  0.00    +0.000 A 
ATOM     25  C   UNL     1       2.069   8.337  18.382  0.00  0.00    +0.000 A 
ATOM     26  C   UNL     1       1.534   9.549  17.946  0.00  0.00    +0.000 A 
ATOM     27  C   UNL     1       0.804  10.348  18.826  0.00  0.00    +0.000 A 
ATOM     28  C   UNL     1       0.598   9.933  20.139  0.00  0.00    +0.000 A 
ATOM     29  C   UNL     1       1.132   8.723  20.578  0.00  0.00    +0.000 A 
ENDBRANCH  23  24
ENDBRANCH  22  23
ENDBRANCH   7  22
TORSDOF 7
ENDMDL
MODEL 2
REMARK VINA RESULT:      -8.2      3.879      7.587
REMARK  Name = 
REMARK  7 active torsions:
REMARK  status: ('A' for Active; 'I' for Inactive)
REMARK    1  A    between atoms: C_2  and  C_23
REMARK    2  A    between atoms: N_3  and  C_4
REMARK    3  A    between atoms: C_4  and  C_5
REMARK    4  A    between atoms: C_5  and  C_6
REMARK    5  A    between atoms: C_12  and  O_13
REMARK    6  A    between atoms: O_13  and  C_14
REMARK    7  A    between atoms: C_14  and  C_15
REMARK                            x       y       z     vdW  Elec       q    Type
REMARK                         _______ _______ _______ _____ _____    ______ ____
ROOT
ATOM      1  C   UNL     1       2.121   5.935  19.861  0.00  0.00    +0.000 A 
ATOM      2  C   UNL     1       1.606   5.044  20.786  0.00  0.00    +0.000 A 
ATOM      3  N   UNL     1       1.950   3.772  20.414  0.00  0.00    +0.000 N 
ATOM      4  C   UNL     1       2.681   3.801  19.252  0.00  0.00    +0.000 A 
ATOM      5  C   UNL     1       3.249   2.755  18.512  0.00  0.00    +0.000 A 
ATOM      6  C   UNL     1       3.977   3.095  17.368  0.00  0.00    +0.000 A 
ATOM      7  C   UNL     1       4.126   4.426  16.980  0.00  0.00    +0.000 A 
ATOM      8  C   UNL     1       3.497   5.448  17.701  0.00  0.00    +0.000 A 
ATOM      9  C   UNL     1       2.788   5.138  18.876  0.00  0.00    +0.000 A 
ATOM     10  H   UNL     1       1.716   2.932  20.924  0.00  0.00    +0.000 HD
ENDROOT
BRANCH   1  11
ATOM     11  C   UNL     1       2.022   7.439  19.881  0.00  0.00    +0.000 C 
BRANCH  11  12
ATOM     12  C   UNL     1       1.455   7.975  21.197  0.00  0.00    +0.000 C 
BRANCH  12  15
ATOM     13  O   UNL     1       0.857   9.685  23.241  0.00  0.00    +0.000 OA
ATOM     14  C   UNL     1       0.268   9.868  22.175  0.00  0.00    +0.000 C 
ATOM     15  N   UNL     1       0.493   9.052  21.081  0.00  0.00    +0.000 N 
ATOM     16  H   UNL     1       0.059   9.299  20.199  0.00  0.00    +0.000 HD
BRANCH  14  17
ATOM     17  C   UNL     1      -0.680  10.941  21.989  0.00  0.00    +0.000 A 
ATOM     18  C   UNL     1      -1.400  11.652  22.932  0.00  0.00    +0.000 A 
ATOM     19  C   UNL     1      -2.214  12.564  22.225  0.00  0.00    +0.000 A 
ATOM     20  C   UNL     1      -1.945  12.357  20.893  0.00  0.00    +0.000 A 
ATOM     21  O   UNL     1      -1.008  11.382  20.734  0.00  0.00    +0.000 OA
ENDBRANCH  14  17
ENDBRANCH  12  15
ENDBRANCH  11  12
ENDBRANCH   1  11
BRANCH   7  22
ATOM     22  O   UNL     1       4.916   4.643  15.881  0.00  0.00    +0.000 OA
BRANCH  22  23
ATOM     23  C   UNL     1       6.287   4.275  16.060  0.00  0.00    +0.000 C 
BRANCH  23  24
ATOM     24  C   UNL     1       6.955   5.260  16.980  0.00  0.00    +0.000 A 
ATOM     25  C   UNL     1       7.015   6.620  16.652  0.00  0.00    +0.000 A 
ATOM     26  C   UNL     1       7.615   7.527  17.525  0.00  0.00    +0.000 A 
ATOM     27  C   UNL     1       8.151   7.083  18.734  0.00  0.00    +0.000 A 
ATOM     28  C   UNL     1       8.079   5.735  19.077  0.00  0.00    +0.000 A 
ATOM     29  C   UNL     1       7.480   4.827  18.206  0.00  0.00    +0.000 A 
ENDBRANCH  23  24
ENDBRANCH  22  23
ENDBRANCH   7  22
TORSDOF 7
ENDMDL
MODEL 3
REMARK VINA RESULT:      -8.2      4.472      6.673
REMARK  Name = 
REMARK  7 active torsions:
REMARK  status: ('A' for Active; 'I' for Inactive)
REMARK    1  A    between atoms: C_2  and  C_23
REMARK    2  A    between atoms: N_3  and  C_4
REMARK    3  A    between atoms: C_4  and  C_5
REMARK    4  A    between atoms: C_5  and  C_6
REMARK    5  A    between atoms: C_12  and  O_13
REMARK    6  A    between atoms: O_13  and  C_14
REMARK    7  A    between atoms: C_14  and  C_15
REMARK                            x       y       z     vdW  Elec       q    Type
REMARK                         _______ _______ _______ _____ _____    ______ ____
ROOT
ATOM      1  C   UNL     1       3.076   6.470  18.805  0.00  0.00    +0.000 A 
ATOM      2  C   UNL     1       3.102   5.553  19.841  0.00  0.00    +0.000 A 
ATOM      3  N   UNL     1       2.316   6.018  20.861  0.00  0.00    +0.000 N 
ATOM      4  C   UNL     1       1.773   7.233  20.525  0.00  0.00    +0.000 A 
ATOM      5  C   UNL     1       0.908   8.069  21.244  0.00  0.00    +0.000 A 
ATOM      6  C   UNL     1       0.489   9.250  20.623  0.00  0.00    +0.000 A 
ATOM      7  C   UNL     1       0.921   9.580  19.339  0.00  0.00    +0.000 A 
ATOM      8  C   UNL     1       1.833   8.758  18.667  0.00  0.00    +0.000 A 
ATOM      9  C   UNL     1       2.244   7.547  19.251  0.00  0.00    +0.000 A 
ATOM     10  H   UNL     1       2.146   5.534  21.732  0.00  0.00    +0.000 HD
ENDROOT
BRANCH   1  11
ATOM     11  C   UNL     1       3.764   6.365  17.467  0.00  0.00    +0.000 C 
BRANCH  11  12
ATOM     12  C   UNL     1       4.657   5.127  17.360  0.00  0.00    +0.000 C 
BRANCH  12  15
ATOM     13  O   UNL     1       6.944   5.979  16.134  0.00  0.00    +0.000 OA
ATOM     14  C   UNL     1       6.221   5.215  15.491  0.00  0.00    +0.000 C 
ATOM     15  N   UNL     1       5.037   4.734  16.019  0.00  0.00    +0.000 N 
ATOM     16  H   UNL     1       4.525   4.035  15.494  0.00  0.00    +0.000 HD
BRANCH  14  17
ATOM     17  C   UNL     1       6.559   4.766  14.162  0.00  0.00    +0.000 A 
ATOM     18  C   UNL     1       6.044   3.711  13.431  0.00  0.00    +0.000 A 
ATOM     19  C   UNL     1       6.745   3.678  12.206  0.00  0.00    +0.000 A 
ATOM     20  C   UNL     1       7.648   4.714  12.259  0.00  0.00    +0.000 A 
ATOM     21  O   UNL     1       7.539   5.390  13.435  0.00  0.00    +0.000 OA
ENDBRANCH  14  17
ENDBRANCH  12  15
ENDBRANCH  11  12
ENDBRANCH   1  11
BRANCH   7  22
ATOM     22  O   UNL     1       0.392  10.727  18.807  0.00  0.00    +0.000 OA
BRANCH  22  23
ATOM     23  C   UNL     1      -0.883  11.092  19.344  0.00  0.00    +0.000 C 
BRANCH  23  24
ATOM     24  C   UNL     1      -1.942  10.913  18.291  0.00  0.00    +0.000 A 
ATOM     25  C   UNL     1      -3.148  11.622  18.360  0.00  0.00    +0.000 A 
ATOM     26  C   UNL     1      -4.111  11.466  17.364  0.00  0.00    +0.000 A 
ATOM     27  C   UNL     1      -3.873  10.608  16.289  0.00  0.00    +0.000 A 
ATOM     28  C   UNL     1      -2.669   9.914  16.203  0.00  0.00    +0.000 A 
ATOM     29  C   UNL     1      -1.704  10.068  17.197  0.00  0.00    +0.000 A 
ENDBRANCH  23  24
ENDBRANCH  22  23
ENDBRANCH   7  22
TORSDOF 7
ENDMDL
MODEL 4
REMARK VINA RESULT:      -8.2      3.359      5.238
REMARK  Name = 
REMARK  7 active torsions:
REMARK  status: ('A' for Active; 'I' for Inactive)
REMARK    1  A    between atoms: C_2  and  C_23
REMARK    2  A    between atoms: N_3  and  C_4
REMARK    3  A    between atoms: C_4  and  C_5
REMARK    4  A    between atoms: C_5  and  C_6
REMARK    5  A    between atoms: C_12  and  O_13
REMARK    6  A    between atoms: O_13  and  C_14
REMARK    7  A    between atoms: C_14  and  C_15
REMARK                            x       y       z     vdW  Elec       q    Type
REMARK                         _______ _______ _______ _____ _____    ______ ____
ROOT
ATOM      1  C   UNL     1       1.989   3.484  18.779  0.00  0.00    +0.000 A 
ATOM      2  C   UNL     1       1.475   2.816  19.877  0.00  0.00    +0.000 A 
ATOM      3  N   UNL     1       1.204   3.728  20.862  0.00  0.00    +0.000 N 
ATOM      4  C   UNL     1       1.536   4.992  20.440  0.00  0.00    +0.000 A 
ATOM      5  C   UNL     1       1.426   6.224  21.098  0.00  0.00    +0.000 A 
ATOM      6  C   UNL     1       1.820   7.368  20.396  0.00  0.00    +0.000 A 
ATOM      7  C   UNL     1       2.308   7.278  19.093  0.00  0.00    +0.000 A 
ATOM      8  C   UNL     1       2.466   6.029  18.481  0.00  0.00    +0.000 A 
ATOM      9  C   UNL     1       2.044   4.866  19.149  0.00  0.00    +0.000 A 
ATOM     10  H   UNL     1       0.805   3.509  21.764  0.00  0.00    +0.000 HD
ENDROOT
BRANCH   1  11
ATOM     11  C   UNL     1       2.399   2.894  17.453  0.00  0.00    +0.000 C 
BRANCH  11  12
ATOM     12  C   UNL     1       3.833   2.361  17.464  0.00  0.00    +0.000 C 
BRANCH  12  15
ATOM     13  O   UNL     1       5.016   4.369  16.039  0.00  0.00    +0.000 OA
ATOM     14  C   UNL     1       5.366   4.240  17.213  0.00  0.00    +0.000 C 
ATOM     15  N   UNL     1       4.834   3.249  18.017  0.00  0.00    +0.000 N 
ATOM     16  H   UNL     1       5.081   3.243  19.000  0.00  0.00    +0.000 HD
BRANCH  14  17
ATOM     17  C   UNL     1       6.339   5.112  17.829  0.00  0.00    +0.000 A 
ATOM     18  C   UNL     1       6.918   6.268  17.340  0.00  0.00    +0.000 A 
ATOM     19  C   UNL     1       7.834   6.715  18.319  0.00  0.00    +0.000 A 
ATOM     20  C   UNL     1       7.761   5.805  19.347  0.00  0.00    +0.000 A 
ATOM     21  O   UNL     1       6.850   4.832  19.069  0.00  0.00    +0.000 OA
ENDBRANCH  14  17
ENDBRANCH  12  15
ENDBRANCH  11  12
ENDBRANCH   1  11
BRANCH   7  22
ATOM     22  O   UNL     1       2.600   8.470  18.482  0.00  0.00    +0.000 OA
BRANCH  22  23
ATOM     23  C   UNL     1       1.621   8.900  17.532  0.00  0.00    +0.000 C 
BRANCH  23  24
ATOM     24  C   UNL     1       0.665   9.856  18.192  0.00  0.00    +0.000 A 
ATOM     25  C   UNL     1       1.125  10.806  19.112  0.00  0.00    +0.000 A 
ATOM     26  C   UNL     1       0.232  11.703  19.699  0.00  0.00    +0.000 A 
ATOM     27  C   UNL     1      -1.121  11.662  19.364  0.00  0.00    +0.000 A 
ATOM     28  C   UNL     1      -1.584  10.732  18.436  0.00  0.00    +0.000 A 
ATOM     29  C   UNL     1      -0.695   9.835  17.849  0.00  0.00    +0.000 A 
ENDBRANCH  23  24
ENDBRANCH  22  23
ENDBRANCH   7  22
TORSDOF 7
ENDMDL
MODEL 5
REMARK VINA RESULT:      -8.2      3.840      8.213
REMARK  Name = 
REMARK  7 active torsions:
REMARK  status: ('A' for Active; 'I' for Inactive)
REMARK    1  A    between atoms: C_2  and  C_23
REMARK    2  A    between atoms: N_3  and  C_4
REMARK    3  A    between atoms: C_4  and  C_5
REMARK    4  A    between atoms: C_5  and  C_6
REMARK    5  A    between atoms: C_12  and  O_13
REMARK    6  A    between atoms: O_13  and  C_14
REMARK    7  A    between atoms: C_14  and  C_15
REMARK                            x       y       z     vdW  Elec       q    Type
REMARK                         _______ _______ _______ _____ _____    ______ ____
ROOT
ATOM      1  C   UNL     1       2.338   7.561  18.869  0.00  0.00    +0.000 A 
ATOM      2  C   UNL     1       1.866   7.537  20.169  0.00  0.00    +0.000 A 
ATOM      3  N   UNL     1       2.160   6.320  20.723  0.00  0.00    +0.000 N 
ATOM      4  C   UNL     1       2.815   5.530  19.811  0.00  0.00    +0.000 A 
ATOM      5  C   UNL     1       3.313   4.226  19.935  0.00  0.00    +0.000 A 
ATOM      6  C   UNL     1       3.974   3.681  18.828  0.00  0.00    +0.000 A 
ATOM      7  C   UNL     1       4.124   4.410  17.650  0.00  0.00    +0.000 A 
ATOM      8  C   UNL     1       3.563   5.688  17.532  0.00  0.00    +0.000 A 
ATOM      9  C   UNL     1       2.925   6.275  18.639  0.00  0.00    +0.000 A 
ATOM     10  H   UNL     1       1.942   6.044  21.671  0.00  0.00    +0.000 HD
ENDROOT
BRANCH   1  11
ATOM     11  C   UNL     1       2.271   8.704  17.887  0.00  0.00    +0.000 C 
BRANCH  11  12
ATOM     12  C   UNL     1       1.353   9.833  18.360  0.00  0.00    +0.000 C 
BRANCH  12  15
ATOM     13  O   UNL     1      -0.832  11.098  19.402  0.00  0.00    +0.000 OA
ATOM     14  C   UNL     1      -0.950  10.630  18.268  0.00  0.00    +0.000 C 
ATOM     15  N   UNL     1       0.095   9.963  17.654  0.00  0.00    +0.000 N 
ATOM     16  H   UNL     1      -0.016   9.682  16.687  0.00  0.00    +0.000 HD
BRANCH  14  17
ATOM     17  C   UNL     1      -2.169  10.753  17.504  0.00  0.00    +0.000 A 
ATOM     18  C   UNL     1      -2.455  10.308  16.227  0.00  0.00    +0.000 A 
ATOM     19  C   UNL     1      -3.775  10.718  15.934  0.00  0.00    +0.000 A 
ATOM     20  C   UNL     1      -4.217  11.390  17.049  0.00  0.00    +0.000 A 
ATOM     21  O   UNL     1      -3.257  11.410  18.015  0.00  0.00    +0.000 OA
ENDBRANCH  14  17
ENDBRANCH  12  15
ENDBRANCH  11  12
ENDBRANCH   1  11
BRANCH   7  22
ATOM     22  O   UNL     1       4.846   3.799  16.658  0.00  0.00    +0.000 OA
BRANCH  22  23
ATOM     23  C   UNL     1       5.725   4.675  15.946  0.00  0.00    +0.000 C 
BRANCH  23  24
ATOM     24  C   UNL     1       6.564   5.450  16.925  0.00  0.00    +0.000 A 
ATOM     25  C   UNL     1       7.212   4.801  17.984  0.00  0.00    +0.000 A 
ATOM     26  C   UNL     1       8.007   5.526  18.870  0.00  0.00    +0.000 A 
ATOM     27  C   UNL     1       8.167   6.902  18.700  0.00  0.00    +0.000 A 
ATOM     28  C   UNL     1       7.542   7.552  17.639  0.00  0.00    +0.000 A 
ATOM     29  C   UNL     1       6.747   6.829  16.752  0.00  0.00    +0.000 A 
ENDBRANCH  23  24
ENDBRANCH  22  23
ENDBRANCH   7  22
TORSDOF 7
ENDMDL
MODEL 6
REMARK VINA RESULT:      -8.0      4.560      8.175
REMARK  Name = 
REMARK  7 active torsions:
REMARK  status: ('A' for Active; 'I' for Inactive)
REMARK    1  A    between atoms: C_2  and  C_23
REMARK    2  A    between atoms: N_3  and  C_4
REMARK    3  A    between atoms: C_4  and  C_5
REMARK    4  A    between atoms: C_5  and  C_6
REMARK    5  A    between atoms: C_12  and  O_13
REMARK    6  A    between atoms: O_13  and  C_14
REMARK    7  A    between atoms: C_14  and  C_15
REMARK                            x       y       z     vdW  Elec       q    Type
REMARK                         _______ _______ _______ _____ _____    ______ ____
ROOT
ATOM      1  C   UNL     1       2.069   7.916  19.088  0.00  0.00    +0.000 A 
ATOM      2  C   UNL     1       1.768   8.269  20.391  0.00  0.00    +0.000 A 
ATOM      3  N   UNL     1       1.648   7.130  21.141  0.00  0.00    +0.000 N 
ATOM      4  C   UNL     1       1.857   6.023  20.356  0.00  0.00    +0.000 A 
ATOM      5  C   UNL     1       1.845   4.662  20.689  0.00  0.00    +0.000 A 
ATOM      6  C   UNL     1       2.130   3.747  19.669  0.00  0.00    +0.000 A 
ATOM      7  C   UNL     1       2.409   4.178  18.374  0.00  0.00    +0.000 A 
ATOM      8  C   UNL     1       2.354   5.540  18.054  0.00  0.00    +0.000 A 
ATOM      9  C   UNL     1       2.107   6.485  19.065  0.00  0.00    +0.000 A 
ATOM     10  H   UNL     1       1.448   7.103  22.131  0.00  0.00    +0.000 HD
ENDROOT
BRANCH   1  11
ATOM     11  C   UNL     1       2.324   8.837  17.921  0.00  0.00    +0.000 C 
BRANCH  11  12
ATOM     12  C   UNL     1       1.631  10.193  18.080  0.00  0.00    +0.000 C 
BRANCH  12  15
ATOM     13  O   UNL     1      -0.153  11.553  19.636  0.00  0.00    +0.000 OA
ATOM     14  C   UNL     1      -0.614  10.935  18.675  0.00  0.00    +0.000 C 
ATOM     15  N   UNL     1       0.204  10.207  17.830  0.00  0.00    +0.000 N 
ATOM     16  H   UNL     1      -0.205   9.795  17.000  0.00  0.00    +0.000 HD
BRANCH  14  17
ATOM     17  C   UNL     1      -2.023  10.934  18.360  0.00  0.00    +0.000 A 
ATOM     18  C   UNL     1      -2.725  10.142  17.470  0.00  0.00    +0.000 A 
ATOM     19  C   UNL     1      -4.070  10.571  17.511  0.00  0.00    +0.000 A 
ATOM     20  C   UNL     1      -4.111  11.600  18.422  0.00  0.00    +0.000 A 
ATOM     21  O   UNL     1      -2.878  11.825  18.954  0.00  0.00    +0.000 OA
ENDBRANCH  14  17
ENDBRANCH  12  15
ENDBRANCH  11  12
ENDBRANCH   1  11
BRANCH   7  22
ATOM     22  O   UNL     1       2.739   3.196  17.475  0.00  0.00    +0.000 OA
BRANCH  22  23
ATOM     23  C   UNL     1       4.083   2.721  17.590  0.00  0.00    +0.000 C 
BRANCH  23  24
ATOM     24  C   UNL     1       5.039   3.817  17.205  0.00  0.00    +0.000 A 
ATOM     25  C   UNL     1       5.904   4.378  18.152  0.00  0.00    +0.000 A 
ATOM     26  C   UNL     1       6.803   5.377  17.777  0.00  0.00    +0.000 A 
ATOM     27  C   UNL     1       6.848   5.815  16.453  0.00  0.00    +0.000 A 
ATOM     28  C   UNL     1       6.003   5.249  15.500  0.00  0.00    +0.000 A 
ATOM     29  C   UNL     1       5.105   4.251  15.873  0.00  0.00    +0.000 A 
ENDBRANCH  23  24
ENDBRANCH  22  23
ENDBRANCH   7  22
TORSDOF 7
ENDMDL
MODEL 7
REMARK VINA RESULT:      -8.0      3.999      5.515
REMARK  Name = 
REMARK  7 active torsions:
REMARK  status: ('A' for Active; 'I' for Inactive)
REMARK    1  A    between atoms: C_2  and  C_23
REMARK    2  A    between atoms: N_3  and  C_4
REMARK    3  A    between atoms: C_4  and  C_5
REMARK    4  A    between atoms: C_5  and  C_6
REMARK    5  A    between atoms: C_12  and  O_13
REMARK    6  A    between atoms: O_13  and  C_14
REMARK    7  A    between atoms: C_14  and  C_15
REMARK                            x       y       z     vdW  Elec       q    Type
REMARK                         _______ _______ _______ _____ _____    ______ ____
ROOT
ATOM      1  C   UNL     1       4.556   3.816  18.915  0.00  0.00    +0.000 A 
ATOM      2  C   UNL     1       4.275   2.593  18.333  0.00  0.00    +0.000 A 
ATOM      3  N   UNL     1       2.954   2.298  18.540  0.00  0.00    +0.000 N 
ATOM      4  C   UNL     1       2.352   3.303  19.257  0.00  0.00    +0.000 A 
ATOM      5  C   UNL     1       1.026   3.438  19.689  0.00  0.00    +0.000 A 
ATOM      6  C   UNL     1       0.690   4.604  20.384  0.00  0.00    +0.000 A 
ATOM      7  C   UNL     1       1.643   5.589  20.639  0.00  0.00    +0.000 A 
ATOM      8  C   UNL     1       2.975   5.402  20.251  0.00  0.00    +0.000 A 
ATOM      9  C   UNL     1       3.334   4.256  19.519  0.00  0.00    +0.000 A 
ATOM     10  H   UNL     1       2.482   1.470  18.204  0.00  0.00    +0.000 HD
ENDROOT
BRANCH   1  11
ATOM     11  C   UNL     1       5.870   4.555  18.911  0.00  0.00    +0.000 C 
BRANCH  11  12
ATOM     12  C   UNL     1       5.844   5.797  18.017  0.00  0.00    +0.000 C 
BRANCH  12  15
ATOM     13  O   UNL     1       7.942   4.603  16.740  0.00  0.00    +0.000 OA
ATOM     14  C   UNL     1       6.981   4.931  16.042  0.00  0.00    +0.000 C 
ATOM     15  N   UNL     1       5.873   5.551  16.590  0.00  0.00    +0.000 N 
ATOM     16  H   UNL     1       5.069   5.715  15.995  0.00  0.00    +0.000 HD
BRANCH  14  17
ATOM     17  C   UNL     1       6.940   4.687  14.619  0.00  0.00    +0.000 A 
ATOM     18  C   UNL     1       6.155   3.806  13.900  0.00  0.00    +0.000 A 
ATOM     19  C   UNL     1       6.533   3.929  12.545  0.00  0.00    +0.000 A 
ATOM     20  C   UNL     1       7.528   4.878  12.515  0.00  0.00    +0.000 A 
ATOM     21  O   UNL     1       7.778   5.356  13.766  0.00  0.00    +0.000 OA
ENDBRANCH  14  17
ENDBRANCH  12  15
ENDBRANCH  11  12
ENDBRANCH   1  11
BRANCH   7  22
ATOM     22  O   UNL     1       1.183   6.717  21.269  0.00  0.00    +0.000 OA
BRANCH  22  23
ATOM     23  C   UNL     1       1.575   7.941  20.642  0.00  0.00    +0.000 C 
BRANCH  23  24
ATOM     24  C   UNL     1       0.758   9.075  21.199  0.00  0.00    +0.000 A 
ATOM     25  C   UNL     1       0.146   8.967  22.454  0.00  0.00    +0.000 A 
ATOM     26  C   UNL     1      -0.588  10.034  22.970  0.00  0.00    +0.000 A 
ATOM     27  C   UNL     1      -0.709  11.217  22.241  0.00  0.00    +0.000 A 
ATOM     28  C   UNL     1      -0.088  11.340  21.001  0.00  0.00    +0.000 A 
ATOM     29  C   UNL     1       0.646  10.275  20.482  0.00  0.00    +0.000 A 
ENDBRANCH  23  24
ENDBRANCH  22  23
ENDBRANCH   7  22
TORSDOF 7
ENDMDL
MODEL 8
REMARK VINA RESULT:      -8.0      3.259      5.316
REMARK  Name = 
REMARK  7 active torsions:
REMARK  status: ('A' for Active; 'I' for Inactive)
REMARK    1  A    between atoms: C_2  and  C_23
REMARK    2  A    between atoms: N_3  and  C_4
REMARK    3  A    between atoms: C_4  and  C_5
REMARK    4  A    between atoms: C_5  and  C_6
REMARK    5  A    between atoms: C_12  and  O_13
REMARK    6  A    between atoms: O_13  and  C_14
REMARK    7  A    between atoms: C_14  and  C_15
REMARK                            x       y       z     vdW  Elec       q    Type
REMARK                         _______ _______ _______ _____ _____    ______ ____
ROOT
ATOM      1  C   UNL     1       1.982   3.582  18.826  0.00  0.00    +0.000 A 
ATOM      2  C   UNL     1       1.492   2.990  19.977  0.00  0.00    +0.000 A 
ATOM      3  N   UNL     1       1.254   3.965  20.909  0.00  0.00    +0.000 N 
ATOM      4  C   UNL     1       1.584   5.196  20.399  0.00  0.00    +0.000 A 
ATOM      5  C   UNL     1       1.500   6.468  20.980  0.00  0.00    +0.000 A 
ATOM      6  C   UNL     1       1.884   7.562  20.196  0.00  0.00    +0.000 A 
ATOM      7  C   UNL     1       2.336   7.386  18.890  0.00  0.00    +0.000 A 
ATOM      8  C   UNL     1       2.469   6.099  18.354  0.00  0.00    +0.000 A 
ATOM      9  C   UNL     1       2.057   4.984  19.106  0.00  0.00    +0.000 A 
ATOM     10  H   UNL     1       0.877   3.807  21.833  0.00  0.00    +0.000 HD
ENDROOT
BRANCH   1  11
ATOM     11  C   UNL     1       2.351   2.905  17.530  0.00  0.00    +0.000 C 
BRANCH  11  12
ATOM     12  C   UNL     1       3.838   2.550  17.455  0.00  0.00    +0.000 C 
BRANCH  12  15
ATOM     13  O   UNL     1       5.338   3.418  19.566  0.00  0.00    +0.000 OA
ATOM     14  C   UNL     1       5.473   4.025  18.503  0.00  0.00    +0.000 C 
ATOM     15  N   UNL     1       4.754   3.670  17.376  0.00  0.00    +0.000 N 
ATOM     16  H   UNL     1       4.968   4.135  16.502  0.00  0.00    +0.000 HD
BRANCH  14  17
ATOM     17  C   UNL     1       6.390   5.131  18.355  0.00  0.00    +0.000 A 
ATOM     18  C   UNL     1       6.519   6.034  17.316  0.00  0.00    +0.000 A 
ATOM     19  C   UNL     1       7.591   6.892  17.647  0.00  0.00    +0.000 A 
ATOM     20  C   UNL     1       8.055   6.462  18.868  0.00  0.00    +0.000 A 
ATOM     21  O   UNL     1       7.328   5.401  19.316  0.00  0.00    +0.000 OA
ENDBRANCH  14  17
ENDBRANCH  12  15
ENDBRANCH  11  12
ENDBRANCH   1  11
BRANCH   7  22
ATOM     22  O   UNL     1       2.620   8.534  18.196  0.00  0.00    +0.000 OA
BRANCH  22  23
ATOM     23  C   UNL     1       1.468   9.291  17.814  0.00  0.00    +0.000 C 
BRANCH  23  24
ATOM     24  C   UNL     1       1.535  10.658  18.439  0.00  0.00    +0.000 A 
ATOM     25  C   UNL     1       0.797  10.956  19.591  0.00  0.00    +0.000 A 
ATOM     26  C   UNL     1       0.887  12.218  20.175  0.00  0.00    +0.000 A 
ATOM     27  C   UNL     1       1.722  13.188  19.619  0.00  0.00    +0.000 A 
ATOM     28  C   UNL     1       2.475  12.894  18.484  0.00  0.00    +0.000 A 
ATOM     29  C   UNL     1       2.386  11.633  17.898  0.00  0.00    +0.000 A 
ENDBRANCH  23  24
ENDBRANCH  22  23
ENDBRANCH   7  22
TORSDOF 7
ENDMDL
MODEL 9
REMARK VINA RESULT:      -8.0      3.825      7.244
REMARK  Name = 
REMARK  7 active torsions:
REMARK  status: ('A' for Active; 'I' for Inactive)
REMARK    1  A    between atoms: C_2  and  C_23
REMARK    2  A    between atoms: N_3  and  C_4
REMARK    3  A    between atoms: C_4  and  C_5
REMARK    4  A    between atoms: C_5  and  C_6
REMARK    5  A    between atoms: C_12  and  O_13
REMARK    6  A    between atoms: O_13  and  C_14
REMARK    7  A    between atoms: C_14  and  C_15
REMARK                            x       y       z     vdW  Elec       q    Type
REMARK                         _______ _______ _______ _____ _____    ______ ____
ROOT
ATOM      1  C   UNL     1       2.183   5.672  19.872  0.00  0.00    +0.000 A 
ATOM      2  C   UNL     1       1.618   4.757  20.743  0.00  0.00    +0.000 A 
ATOM      3  N   UNL     1       1.903   3.493  20.303  0.00  0.00    +0.000 N 
ATOM      4  C   UNL     1       2.644   3.550  19.149  0.00  0.00    +0.000 A 
ATOM      5  C   UNL     1       3.166   2.519  18.356  0.00  0.00    +0.000 A 
ATOM      6  C   UNL     1       3.920   2.886  17.236  0.00  0.00    +0.000 A 
ATOM      7  C   UNL     1       4.136   4.227  16.923  0.00  0.00    +0.000 A 
ATOM      8  C   UNL     1       3.551   5.237  17.696  0.00  0.00    +0.000 A 
ATOM      9  C   UNL     1       2.819   4.899  18.848  0.00  0.00    +0.000 A 
ATOM     10  H   UNL     1       1.624   2.638  20.765  0.00  0.00    +0.000 HD
ENDROOT
BRANCH   1  11
ATOM     11  C   UNL     1       2.157   7.176  19.974  0.00  0.00    +0.000 C 
BRANCH  11  12
ATOM     12  C   UNL     1       1.202   7.676  21.061  0.00  0.00    +0.000 C 
BRANCH  12  15
ATOM     13  O   UNL     1       1.400   9.897  22.637  0.00  0.00    +0.000 OA
ATOM     14  C   UNL     1       0.688   9.989  21.636  0.00  0.00    +0.000 C 
ATOM     15  N   UNL     1       0.515   8.919  20.777  0.00  0.00    +0.000 N 
ATOM     16  H   UNL     1      -0.001   9.070  19.918  0.00  0.00    +0.000 HD
BRANCH  14  17
ATOM     17  C   UNL     1      -0.000  11.209  21.286  0.00  0.00    +0.000 A 
ATOM     18  C   UNL     1      -0.971  11.428  20.326  0.00  0.00    +0.000 A 
ATOM     19  C   UNL     1      -1.283  12.805  20.363  0.00  0.00    +0.000 A 
ATOM     20  C   UNL     1      -0.484  13.347  21.341  0.00  0.00    +0.000 A 
ATOM     21  O   UNL     1       0.292  12.389  21.919  0.00  0.00    +0.000 OA
ENDBRANCH  14  17
ENDBRANCH  12  15
ENDBRANCH  11  12
ENDBRANCH   1  11
BRANCH   7  22
ATOM     22  O   UNL     1       4.945   4.466  15.842  0.00  0.00    +0.000 OA
BRANCH  22  23
ATOM     23  C   UNL     1       6.325   4.158  16.060  0.00  0.00    +0.000 C 
BRANCH  23  24
ATOM     24  C   UNL     1       6.926   5.178  16.989  0.00  0.00    +0.000 A 
ATOM     25  C   UNL     1       7.451   4.795  18.230  0.00  0.00    +0.000 A 
ATOM     26  C   UNL     1       8.028   5.746  19.070  0.00  0.00    +0.000 A 
ATOM     27  C   UNL     1       8.092   7.082  18.674  0.00  0.00    +0.000 A 
ATOM     28  C   UNL     1       7.589   7.469  17.434  0.00  0.00    +0.000 A 
ATOM     29  C   UNL     1       7.012   6.520  16.592  0.00  0.00    +0.000 A 
ENDBRANCH  23  24
ENDBRANCH  22  23
ENDBRANCH   7  22
TORSDOF 7
ENDMDL
