MODEL 1
REMARK VINA RESULT:      -6.0      0.000      0.000
REMARK  Name = 
REMARK  9 active torsions:
REMARK  status: ('A' for Active; 'I' for Inactive)
REMARK    1  A    between atoms: P_2  and  O_3
REMARK    2  A    between atoms: P_2  and  O_4
REMARK    3  A    between atoms: P_2  and  O_5
REMARK    4  A    between atoms: O_5  and  C_6
REMARK    5  A    between atoms: C_8  and  C_9
REMARK    6  A    between atoms: C_9  and  O_10
REMARK    7  A    between atoms: C_11  and  O_12
REMARK    8  A    between atoms: C_13  and  O_14
REMARK    9  A    between atoms: C_15  and  O_16
REMARK                            x       y       z     vdW  Elec       q    Type
REMARK                         _______ _______ _______ _____ _____    ______ ____
ROOT
ATOM      1  C   UNL     1       4.991   4.188  19.486  0.00  0.00    +0.000 C 
ATOM      2  O   UNL     1       4.230   5.384  19.290  0.00  0.00    +0.000 OA
ATOM      3  C   UNL     1       3.226   5.295  18.266  0.00  0.00    +0.000 C 
ATOM      4  C   UNL     1       2.268   4.126  18.546  0.00  0.00    +0.000 C 
ATOM      5  C   UNL     1       3.071   2.822  18.540  0.00  0.00    +0.000 C 
ATOM      6  C   UNL     1       4.150   2.901  19.627  0.00  0.00    +0.000 C 
ENDROOT
BRANCH   4   7
ATOM      7  O   UNL     1       1.637   4.246  19.836  0.00  0.00    +0.000 OA
ATOM      8  H   UNL     1       0.667   4.296  19.685  0.00  0.00    +0.000 HD
ENDBRANCH   4   7
BRANCH   5   9
ATOM      9  O   UNL     1       2.176   1.724  18.779  0.00  0.00    +0.000 OA
ATOM     10  H   UNL     1       2.273   1.136  18.000  0.00  0.00    +0.000 HD
ENDBRANCH   5   9
BRANCH   6  11
ATOM     11  O   UNL     1       4.985   1.737  19.613  0.00  0.00    +0.000 OA
ATOM     12  H   UNL     1       5.131   1.507  18.675  0.00  0.00    +0.000 HD
ENDBRANCH   6  11
BRANCH   1  13
ATOM     13  O   UNL     1       6.009   4.053  18.481  0.00  0.00    +0.000 OA
BRANCH  13  15
ATOM     14  O   UNL     1       7.938   6.701  18.390  0.00  0.00    +0.000 OA
ATOM     15  P   UNL     1       7.028   5.450  18.434  0.00  0.00    +0.000 P 
BRANCH  15  16
ATOM     16  O   UNL     1       8.254   4.443  18.043  0.00  0.00    +0.000 OA
ATOM     17  H   UNL     1       8.214   4.277  17.085  0.00  0.00    +0.000 HD
ENDBRANCH  15  16
BRANCH  15  18
ATOM     18  O   UNL     1       7.249   5.315  20.049  0.00  0.00    +0.000 OA
ATOM     19  H   UNL     1       8.188   5.535  20.217  0.00  0.00    +0.000 HD
ENDBRANCH  15  18
ENDBRANCH  13  15
ENDBRANCH   1  13
BRANCH   3  20
ATOM     20  C   UNL     1       2.486   6.640  18.234  0.00  0.00    +0.000 C 
BRANCH  20  21
ATOM     21  O   UNL     1       2.280   7.138  19.559  0.00  0.00    +0.000 OA
ATOM     22  H   UNL     1       1.947   6.388  20.088  0.00  0.00    +0.000 HD
ENDBRANCH  20  21
ENDBRANCH   3  20
TORSDOF 9
ENDMDL
MODEL 2
REMARK VINA RESULT:      -5.9      1.509      1.766
REMARK  Name = 
REMARK  9 active torsions:
REMARK  status: ('A' for Active; 'I' for Inactive)
REMARK    1  A    between atoms: P_2  and  O_3
REMARK    2  A    between atoms: P_2  and  O_4
REMARK    3  A    between atoms: P_2  and  O_5
REMARK    4  A    between atoms: O_5  and  C_6
REMARK    5  A    between atoms: C_8  and  C_9
REMARK    6  A    between atoms: C_9  and  O_10
REMARK    7  A    between atoms: C_11  and  O_12
REMARK    8  A    between atoms: C_13  and  O_14
REMARK    9  A    between atoms: C_15  and  O_16
REMARK                            x       y       z     vdW  Elec       q    Type
REMARK                         _______ _______ _______ _____ _____    ______ ____
ROOT
ATOM      1  C   UNL     1       4.229   3.955  18.861  0.00  0.00    +0.000 C 
ATOM      2  O   UNL     1       3.604   4.887  19.749  0.00  0.00    +0.000 OA
ATOM      3  C   UNL     1       2.185   5.024  19.573  0.00  0.00    +0.000 C 
ATOM      4  C   UNL     1       1.488   3.660  19.699  0.00  0.00    +0.000 C 
ATOM      5  C   UNL     1       2.018   2.736  18.599  0.00  0.00    +0.000 C 
ATOM      6  C   UNL     1       3.533   2.579  18.771  0.00  0.00    +0.000 C 
ENDROOT
BRANCH   4   7
ATOM      7  O   UNL     1       1.761   3.033  20.967  0.00  0.00    +0.000 OA
ATOM      8  H   UNL     1       0.965   2.514  21.216  0.00  0.00    +0.000 HD
ENDBRANCH   4   7
BRANCH   5   9
ATOM      9  O   UNL     1       1.353   1.466  18.698  0.00  0.00    +0.000 OA
ATOM     10  H   UNL     1       0.925   1.328  17.827  0.00  0.00    +0.000 HD
ENDBRANCH   5   9
BRANCH   6  11
ATOM     11  O   UNL     1       4.096   1.787  17.718  0.00  0.00    +0.000 OA
ATOM     12  H   UNL     1       3.731   2.133  16.881  0.00  0.00    +0.000 HD
ENDBRANCH   6  11
BRANCH   1  13
ATOM     13  O   UNL     1       4.433   4.535  17.563  0.00  0.00    +0.000 OA
BRANCH  13  15
ATOM     14  O   UNL     1       7.625   4.964  16.949  0.00  0.00    +0.000 OA
ATOM     15  P   UNL     1       6.118   4.761  17.239  0.00  0.00    +0.000 P 
BRANCH  15  16
ATOM     16  O   UNL     1       6.029   3.436  16.286  0.00  0.00    +0.000 OA
ATOM     17  H   UNL     1       6.855   3.378  15.773  0.00  0.00    +0.000 HD
ENDBRANCH  15  16
BRANCH  15  18
ATOM     18  O   UNL     1       6.469   3.925  18.601  0.00  0.00    +0.000 OA
ATOM     19  H   UNL     1       5.610   3.699  19.014  0.00  0.00    +0.000 HD
ENDBRANCH  15  18
ENDBRANCH  13  15
ENDBRANCH   1  13
BRANCH   3  20
ATOM     20  C   UNL     1       1.686   6.016  20.634  0.00  0.00    +0.000 C 
BRANCH  20  21
ATOM     21  O   UNL     1       2.287   7.301  20.450  0.00  0.00    +0.000 OA
ATOM     22  H   UNL     1       3.238   7.191  20.640  0.00  0.00    +0.000 HD
ENDBRANCH  20  21
ENDBRANCH   3  20
TORSDOF 9
ENDMDL
MODEL 3
REMARK VINA RESULT:      -5.9      1.514      1.779
REMARK  Name = 
REMARK  9 active torsions:
REMARK  status: ('A' for Active; 'I' for Inactive)
REMARK    1  A    between atoms: P_2  and  O_3
REMARK    2  A    between atoms: P_2  and  O_4
REMARK    3  A    between atoms: P_2  and  O_5
REMARK    4  A    between atoms: O_5  and  C_6
REMARK    5  A    between atoms: C_8  and  C_9
REMARK    6  A    between atoms: C_9  and  O_10
REMARK    7  A    between atoms: C_11  and  O_12
REMARK    8  A    between atoms: C_13  and  O_14
REMARK    9  A    between atoms: C_15  and  O_16
REMARK                            x       y       z     vdW  Elec       q    Type
REMARK                         _______ _______ _______ _____ _____    ______ ____
ROOT
ATOM      1  C   UNL     1       4.455   3.720  18.118  0.00  0.00    +0.000 C 
ATOM      2  O   UNL     1       3.996   4.999  18.565  0.00  0.00    +0.000 OA
ATOM      3  C   UNL     1       2.617   5.278  18.273  0.00  0.00    +0.000 C 
ATOM      4  C   UNL     1       1.707   4.183  18.852  0.00  0.00    +0.000 C 
ATOM      5  C   UNL     1       2.072   2.847  18.199  0.00  0.00    +0.000 C 
ATOM      6  C   UNL     1       3.542   2.534  18.500  0.00  0.00    +0.000 C 
ENDROOT
BRANCH   4   7
ATOM      7  O   UNL     1       1.881   4.037  20.275  0.00  0.00    +0.000 OA
ATOM      8  H   UNL     1       1.668   3.106  20.504  0.00  0.00    +0.000 HD
ENDBRANCH   4   7
BRANCH   5   9
ATOM      9  O   UNL     1       1.208   1.824  18.720  0.00  0.00    +0.000 OA
ATOM     10  H   UNL     1       1.778   1.033  18.829  0.00  0.00    +0.000 HD
ENDBRANCH   5   9
BRANCH   6  11
ATOM     11  O   UNL     1       3.961   1.331  17.845  0.00  0.00    +0.000 OA
ATOM     12  H   UNL     1       4.317   0.743  18.538  0.00  0.00    +0.000 HD
ENDBRANCH   6  11
BRANCH   1  13
ATOM     13  O   UNL     1       4.744   3.738  16.711  0.00  0.00    +0.000 OA
BRANCH  13  15
ATOM     14  O   UNL     1       7.831   4.689  16.151  0.00  0.00    +0.000 OA
ATOM     15  P   UNL     1       6.373   4.240  16.416  0.00  0.00    +0.000 P 
BRANCH  15  16
ATOM     16  O   UNL     1       6.636   4.051  18.018  0.00  0.00    +0.000 OA
ATOM     17  H   UNL     1       7.597   4.091  18.173  0.00  0.00    +0.000 HD
ENDBRANCH  15  16
BRANCH  15  18
ATOM     18  O   UNL     1       5.891   5.799  16.541  0.00  0.00    +0.000 OA
ATOM     19  H   UNL     1       6.516   6.324  16.001  0.00  0.00    +0.000 HD
ENDBRANCH  15  18
ENDBRANCH  13  15
ENDBRANCH   1  13
BRANCH   3  20
ATOM     20  C   UNL     1       2.294   6.657  18.867  0.00  0.00    +0.000 C 
BRANCH  20  21
ATOM     21  O   UNL     1       2.626   6.701  20.257  0.00  0.00    +0.000 OA
ATOM     22  H   UNL     1       2.239   7.526  20.608  0.00  0.00    +0.000 HD
ENDBRANCH  20  21
ENDBRANCH   3  20
TORSDOF 9
ENDMDL
MODEL 4
REMARK VINA RESULT:      -5.9      1.728      3.541
REMARK  Name = 
REMARK  9 active torsions:
REMARK  status: ('A' for Active; 'I' for Inactive)
REMARK    1  A    between atoms: P_2  and  O_3
REMARK    2  A    between atoms: P_2  and  O_4
REMARK    3  A    between atoms: P_2  and  O_5
REMARK    4  A    between atoms: O_5  and  C_6
REMARK    5  A    between atoms: C_8  and  C_9
REMARK    6  A    between atoms: C_9  and  O_10
REMARK    7  A    between atoms: C_11  and  O_12
REMARK    8  A    between atoms: C_13  and  O_14
REMARK    9  A    between atoms: C_15  and  O_16
REMARK                            x       y       z     vdW  Elec       q    Type
REMARK                         _______ _______ _______ _____ _____    ______ ____
ROOT
ATOM      1  C   UNL     1       4.523   4.950  17.250  0.00  0.00    +0.000 C 
ATOM      2  O   UNL     1       4.160   3.593  17.522  0.00  0.00    +0.000 OA
ATOM      3  C   UNL     1       3.984   3.286  18.915  0.00  0.00    +0.000 C 
ATOM      4  C   UNL     1       2.947   4.225  19.550  0.00  0.00    +0.000 C 
ATOM      5  C   UNL     1       3.456   5.665  19.441  0.00  0.00    +0.000 C 
ATOM      6  C   UNL     1       3.651   6.009  17.960  0.00  0.00    +0.000 C 
ENDROOT
BRANCH   4   7
ATOM      7  O   UNL     1       1.676   4.157  18.875  0.00  0.00    +0.000 OA
ATOM      8  H   UNL     1       1.295   3.269  19.053  0.00  0.00    +0.000 HD
ENDBRANCH   4   7
BRANCH   5   9
ATOM      9  O   UNL     1       2.500   6.544  20.054  0.00  0.00    +0.000 OA
ATOM     10  H   UNL     1       2.204   7.146  19.340  0.00  0.00    +0.000 HD
ENDBRANCH   5   9
BRANCH   6  11
ATOM     11  O   UNL     1       4.204   7.321  17.801  0.00  0.00    +0.000 OA
ATOM     12  H   UNL     1       3.870   7.859  18.544  0.00  0.00    +0.000 HD
ENDBRANCH   6  11
BRANCH   1  13
ATOM     13  O   UNL     1       5.923   5.168  17.488  0.00  0.00    +0.000 OA
BRANCH  13  15
ATOM     14  O   UNL     1       7.610   5.171  14.677  0.00  0.00    +0.000 OA
ATOM     15  P   UNL     1       6.814   5.169  16.005  0.00  0.00    +0.000 P 
BRANCH  15  16
ATOM     16  O   UNL     1       7.881   4.172  16.739  0.00  0.00    +0.000 OA
ATOM     17  H   UNL     1       7.530   3.952  17.621  0.00  0.00    +0.000 HD
ENDBRANCH  15  16
BRANCH  15  18
ATOM     18  O   UNL     1       7.563   6.544  16.482  0.00  0.00    +0.000 OA
ATOM     19  H   UNL     1       8.029   6.891  15.694  0.00  0.00    +0.000 HD
ENDBRANCH  15  18
ENDBRANCH  13  15
ENDBRANCH   1  13
BRANCH   3  20
ATOM     20  C   UNL     1       3.552   1.815  19.007  0.00  0.00    +0.000 C 
BRANCH  20  21
ATOM     21  O   UNL     1       2.479   1.544  18.101  0.00  0.00    +0.000 OA
ATOM     22  H   UNL     1       2.371   2.344  17.552  0.00  0.00    +0.000 HD
ENDBRANCH  20  21
ENDBRANCH   3  20
TORSDOF 9
ENDMDL
MODEL 5
REMARK VINA RESULT:      -5.8      2.339      4.385
REMARK  Name = 
REMARK  9 active torsions:
REMARK  status: ('A' for Active; 'I' for Inactive)
REMARK    1  A    between atoms: P_2  and  O_3
REMARK    2  A    between atoms: P_2  and  O_4
REMARK    3  A    between atoms: P_2  and  O_5
REMARK    4  A    between atoms: O_5  and  C_6
REMARK    5  A    between atoms: C_8  and  C_9
REMARK    6  A    between atoms: C_9  and  O_10
REMARK    7  A    between atoms: C_11  and  O_12
REMARK    8  A    between atoms: C_13  and  O_14
REMARK    9  A    between atoms: C_15  and  O_16
REMARK                            x       y       z     vdW  Elec       q    Type
REMARK                         _______ _______ _______ _____ _____    ______ ____
ROOT
ATOM      1  C   UNL     1       5.429   4.123  17.512  0.00  0.00    +0.000 C 
ATOM      2  O   UNL     1       4.208   4.866  17.437  0.00  0.00    +0.000 OA
ATOM      3  C   UNL     1       4.304   6.225  17.893  0.00  0.00    +0.000 C 
ATOM      4  C   UNL     1       5.403   6.978  17.126  0.00  0.00    +0.000 C 
ATOM      5  C   UNL     1       6.745   6.292  17.391  0.00  0.00    +0.000 C 
ATOM      6  C   UNL     1       6.660   4.838  16.912  0.00  0.00    +0.000 C 
ENDROOT
BRANCH   4   7
ATOM      7  O   UNL     1       5.174   6.959  15.703  0.00  0.00    +0.000 OA
ATOM      8  H   UNL     1       6.018   6.699  15.272  0.00  0.00    +0.000 HD
ENDBRANCH   4   7
BRANCH   5   9
ATOM      9  O   UNL     1       7.779   7.006  16.694  0.00  0.00    +0.000 OA
ATOM     10  H   UNL     1       8.010   7.761  17.275  0.00  0.00    +0.000 HD
ENDBRANCH   5   9
BRANCH   6  11
ATOM     11  O   UNL     1       7.865   4.122  17.210  0.00  0.00    +0.000 OA
ATOM     12  H   UNL     1       8.400   4.701  17.786  0.00  0.00    +0.000 HD
ENDBRANCH   6  11
BRANCH   1  13
ATOM     13  O   UNL     1       5.677   3.671  18.853  0.00  0.00    +0.000 OA
BRANCH  13  15
ATOM     14  O   UNL     1       2.998   2.294  20.147  0.00  0.00    +0.000 OA
ATOM     15  P   UNL     1       4.263   2.943  19.536  0.00  0.00    +0.000 P 
BRANCH  15  16
ATOM     16  O   UNL     1       5.257   1.833  20.206  0.00  0.00    +0.000 OA
ATOM     17  H   UNL     1       5.718   1.366  19.485  0.00  0.00    +0.000 HD
ENDBRANCH  15  16
BRANCH  15  18
ATOM     18  O   UNL     1       4.047   2.110  18.144  0.00  0.00    +0.000 OA
ATOM     19  H   UNL     1       3.186   2.402  17.780  0.00  0.00    +0.000 HD
ENDBRANCH  15  18
ENDBRANCH  13  15
ENDBRANCH   1  13
BRANCH   3  20
ATOM     20  C   UNL     1       2.926   6.873  17.692  0.00  0.00    +0.000 C 
BRANCH  20  21
ATOM     21  O   UNL     1       3.034   8.298  17.660  0.00  0.00    +0.000 OA
ATOM     22  H   UNL     1       2.660   8.585  16.806  0.00  0.00    +0.000 HD
ENDBRANCH  20  21
ENDBRANCH   3  20
TORSDOF 9
ENDMDL
MODEL 6
REMARK VINA RESULT:      -5.8      1.769      2.141
REMARK  Name = 
REMARK  9 active torsions:
REMARK  status: ('A' for Active; 'I' for Inactive)
REMARK    1  A    between atoms: P_2  and  O_3
REMARK    2  A    between atoms: P_2  and  O_4
REMARK    3  A    between atoms: P_2  and  O_5
REMARK    4  A    between atoms: O_5  and  C_6
REMARK    5  A    between atoms: C_8  and  C_9
REMARK    6  A    between atoms: C_9  and  O_10
REMARK    7  A    between atoms: C_11  and  O_12
REMARK    8  A    between atoms: C_13  and  O_14
REMARK    9  A    between atoms: C_15  and  O_16
REMARK                            x       y       z     vdW  Elec       q    Type
REMARK                         _______ _______ _______ _____ _____    ______ ____
ROOT
ATOM      1  C   UNL     1       5.439   4.710  18.258  0.00  0.00    +0.000 C 
ATOM      2  O   UNL     1       4.941   6.038  18.070  0.00  0.00    +0.000 OA
ATOM      3  C   UNL     1       3.518   6.126  17.886  0.00  0.00    +0.000 C 
ATOM      4  C   UNL     1       2.778   5.469  19.061  0.00  0.00    +0.000 C 
ATOM      5  C   UNL     1       3.160   3.988  19.117  0.00  0.00    +0.000 C 
ATOM      6  C   UNL     1       4.677   3.875  19.312  0.00  0.00    +0.000 C 
ENDROOT
BRANCH   4   7
ATOM      7  O   UNL     1       3.140   6.063  20.323  0.00  0.00    +0.000 OA
ATOM      8  H   UNL     1       2.452   5.809  20.977  0.00  0.00    +0.000 HD
ENDBRANCH   4   7
BRANCH   5   9
ATOM      9  O   UNL     1       2.453   3.364  20.200  0.00  0.00    +0.000 OA
ATOM     10  H   UNL     1       2.381   2.418  19.953  0.00  0.00    +0.000 HD
ENDBRANCH   5   9
BRANCH   6  11
ATOM     11  O   UNL     1       5.103   2.508  19.290  0.00  0.00    +0.000 OA
ATOM     12  H   UNL     1       6.065   2.511  19.461  0.00  0.00    +0.000 HD
ENDBRANCH   6  11
BRANCH   1  13
ATOM     13  O   UNL     1       5.545   4.016  17.005  0.00  0.00    +0.000 OA
BRANCH  13  15
ATOM     14  O   UNL     1       7.689   5.498  15.016  0.00  0.00    +0.000 OA
ATOM     15  P   UNL     1       6.677   4.798  15.955  0.00  0.00    +0.000 P 
BRANCH  15  16
ATOM     16  O   UNL     1       6.475   3.538  14.933  0.00  0.00    +0.000 OA
ATOM     17  H   UNL     1       5.674   3.055  15.205  0.00  0.00    +0.000 HD
ENDBRANCH  15  16
BRANCH  15  18
ATOM     18  O   UNL     1       7.899   4.101  16.791  0.00  0.00    +0.000 OA
ATOM     19  H   UNL     1       8.521   3.746  16.123  0.00  0.00    +0.000 HD
ENDBRANCH  15  18
ENDBRANCH  13  15
ENDBRANCH   1  13
BRANCH   3  20
ATOM     20  C   UNL     1       3.166   7.614  17.753  0.00  0.00    +0.000 C 
BRANCH  20  21
ATOM     21  O   UNL     1       2.110   7.968  18.651  0.00  0.00    +0.000 OA
ATOM     22  H   UNL     1       1.957   8.925  18.535  0.00  0.00    +0.000 HD
ENDBRANCH  20  21
ENDBRANCH   3  20
TORSDOF 9
ENDMDL
MODEL 7
REMARK VINA RESULT:      -5.8      2.881      5.323
REMARK  Name = 
REMARK  9 active torsions:
REMARK  status: ('A' for Active; 'I' for Inactive)
REMARK    1  A    between atoms: P_2  and  O_3
REMARK    2  A    between atoms: P_2  and  O_4
REMARK    3  A    between atoms: P_2  and  O_5
REMARK    4  A    between atoms: O_5  and  C_6
REMARK    5  A    between atoms: C_8  and  C_9
REMARK    6  A    between atoms: C_9  and  O_10
REMARK    7  A    between atoms: C_11  and  O_12
REMARK    8  A    between atoms: C_13  and  O_14
REMARK    9  A    between atoms: C_15  and  O_16
REMARK                            x       y       z     vdW  Elec       q    Type
REMARK                         _______ _______ _______ _____ _____    ______ ____
ROOT
ATOM      1  C   UNL     1       5.088   3.860  17.830  0.00  0.00    +0.000 C 
ATOM      2  O   UNL     1       5.148   3.656  16.415  0.00  0.00    +0.000 OA
ATOM      3  C   UNL     1       5.400   4.844  15.647  0.00  0.00    +0.000 C 
ATOM      4  C   UNL     1       6.693   5.529  16.116  0.00  0.00    +0.000 C 
ATOM      5  C   UNL     1       6.530   5.936  17.583  0.00  0.00    +0.000 C 
ATOM      6  C   UNL     1       6.259   4.679  18.418  0.00  0.00    +0.000 C 
ENDROOT
BRANCH   4   7
ATOM      7  O   UNL     1       7.830   4.647  16.030  0.00  0.00    +0.000 OA
ATOM      8  H   UNL     1       8.139   4.474  16.946  0.00  0.00    +0.000 HD
ENDBRANCH   4   7
BRANCH   5   9
ATOM      9  O   UNL     1       7.728   6.597  18.019  0.00  0.00    +0.000 OA
ATOM     10  H   UNL     1       8.221   5.927  18.537  0.00  0.00    +0.000 HD
ENDBRANCH   5   9
BRANCH   6  11
ATOM     11  O   UNL     1       6.017   5.009  19.790  0.00  0.00    +0.000 OA
ATOM     12  H   UNL     1       6.454   4.320  20.326  0.00  0.00    +0.000 HD
ENDBRANCH   6  11
BRANCH   1  13
ATOM     13  O   UNL     1       3.814   4.398  18.221  0.00  0.00    +0.000 OA
BRANCH  13  15
ATOM     14  O   UNL     1       1.649   2.005  18.795  0.00  0.00    +0.000 OA
ATOM     15  P   UNL     1       2.671   3.134  18.523  0.00  0.00    +0.000 P 
BRANCH  15  16
ATOM     16  O   UNL     1       3.899   2.080  18.294  0.00  0.00    +0.000 OA
ATOM     17  H   UNL     1       4.562   2.233  18.991  0.00  0.00    +0.000 HD
ENDBRANCH  15  16
BRANCH  15  18
ATOM     18  O   UNL     1       2.236   3.181  16.947  0.00  0.00    +0.000 OA
ATOM     19  H   UNL     1       2.924   3.705  16.487  0.00  0.00    +0.000 HD
ENDBRANCH  15  18
ENDBRANCH  13  15
ENDBRANCH   1  13
BRANCH   3  20
ATOM     20  C   UNL     1       5.481   4.426  14.172  0.00  0.00    +0.000 C 
BRANCH  20  21
ATOM     21  O   UNL     1       6.348   3.301  14.010  0.00  0.00    +0.000 OA
ATOM     22  H   UNL     1       5.892   2.539  14.414  0.00  0.00    +0.000 HD
ENDBRANCH  20  21
ENDBRANCH   3  20
TORSDOF 9
ENDMDL
MODEL 8
REMARK VINA RESULT:      -5.8      2.891      5.383
REMARK  Name = 
REMARK  9 active torsions:
REMARK  status: ('A' for Active; 'I' for Inactive)
REMARK    1  A    between atoms: P_2  and  O_3
REMARK    2  A    between atoms: P_2  and  O_4
REMARK    3  A    between atoms: P_2  and  O_5
REMARK    4  A    between atoms: O_5  and  C_6
REMARK    5  A    between atoms: C_8  and  C_9
REMARK    6  A    between atoms: C_9  and  O_10
REMARK    7  A    between atoms: C_11  and  O_12
REMARK    8  A    between atoms: C_13  and  O_14
REMARK    9  A    between atoms: C_15  and  O_16
REMARK                            x       y       z     vdW  Elec       q    Type
REMARK                         _______ _______ _______ _____ _____    ______ ____
ROOT
ATOM      1  C   UNL     1       4.737   4.152  17.595  0.00  0.00    +0.000 C 
ATOM      2  O   UNL     1       5.203   3.895  16.267  0.00  0.00    +0.000 OA
ATOM      3  C   UNL     1       5.872   5.002  15.640  0.00  0.00    +0.000 C 
ATOM      4  C   UNL     1       7.048   5.485  16.505  0.00  0.00    +0.000 C 
ATOM      5  C   UNL     1       6.502   5.960  17.854  0.00  0.00    +0.000 C 
ATOM      6  C   UNL     1       5.783   4.791  18.537  0.00  0.00    +0.000 C 
ENDROOT
BRANCH   4   7
ATOM      7  O   UNL     1       7.994   4.430  16.762  0.00  0.00    +0.000 OA
ATOM      8  H   UNL     1       7.621   3.866  17.475  0.00  0.00    +0.000 HD
ENDBRANCH   4   7
BRANCH   5   9
ATOM      9  O   UNL     1       7.594   6.434  18.658  0.00  0.00    +0.000 OA
ATOM     10  H   UNL     1       8.403   6.230  18.143  0.00  0.00    +0.000 HD
ENDBRANCH   5   9
BRANCH   6  11
ATOM     11  O   UNL     1       5.181   5.200  19.770  0.00  0.00    +0.000 OA
ATOM     12  H   UNL     1       4.814   6.093  19.621  0.00  0.00    +0.000 HD
ENDBRANCH   6  11
BRANCH   1  13
ATOM     13  O   UNL     1       3.511   4.900  17.576  0.00  0.00    +0.000 OA
BRANCH  13  15
ATOM     14  O   UNL     1       0.934   2.955  18.145  0.00  0.00    +0.000 OA
ATOM     15  P   UNL     1       2.151   3.873  17.877  0.00  0.00    +0.000 P 
BRANCH  15  16
ATOM     16  O   UNL     1       2.427   4.111  19.471  0.00  0.00    +0.000 OA
ATOM     17  H   UNL     1       2.319   5.061  19.657  0.00  0.00    +0.000 HD
ENDBRANCH  15  16
BRANCH  15  18
ATOM     18  O   UNL     1       3.137   2.572  17.761  0.00  0.00    +0.000 OA
ATOM     19  H   UNL     1       2.556   1.800  17.601  0.00  0.00    +0.000 HD
ENDBRANCH  15  18
ENDBRANCH  13  15
ENDBRANCH   1  13
BRANCH   3  20
ATOM     20  C   UNL     1       6.342   4.529  14.257  0.00  0.00    +0.000 C 
BRANCH  20  21
ATOM     21  O   UNL     1       7.480   5.279  13.823  0.00  0.00    +0.000 OA
ATOM     22  H   UNL     1       7.540   6.056  14.411  0.00  0.00    +0.000 HD
ENDBRANCH  20  21
ENDBRANCH   3  20
TORSDOF 9
ENDMDL
MODEL 9
REMARK VINA RESULT:      -5.7      1.483      1.702
REMARK  Name = 
REMARK  9 active torsions:
REMARK  status: ('A' for Active; 'I' for Inactive)
REMARK    1  A    between atoms: P_2  and  O_3
REMARK    2  A    between atoms: P_2  and  O_4
REMARK    3  A    between atoms: P_2  and  O_5
REMARK    4  A    between atoms: O_5  and  C_6
REMARK    5  A    between atoms: C_8  and  C_9
REMARK    6  A    between atoms: C_9  and  O_10
REMARK    7  A    between atoms: C_11  and  O_12
REMARK    8  A    between atoms: C_13  and  O_14
REMARK    9  A    between atoms: C_15  and  O_16
REMARK                            x       y       z     vdW  Elec       q    Type
REMARK                         _______ _______ _______ _____ _____    ______ ____
ROOT
ATOM      1  C   UNL     1       4.708   4.203  18.913  0.00  0.00    +0.000 C 
ATOM      2  O   UNL     1       4.252   5.512  19.267  0.00  0.00    +0.000 OA
ATOM      3  C   UNL     1       2.826   5.685  19.219  0.00  0.00    +0.000 C 
ATOM      4  C   UNL     1       2.123   4.647  20.107  0.00  0.00    +0.000 C 
ATOM      5  C   UNL     1       2.451   3.248  19.580  0.00  0.00    +0.000 C 
ATOM      6  C   UNL     1       3.971   3.046  19.624  0.00  0.00    +0.000 C 
ENDROOT
BRANCH   4   7
ATOM      7  O   UNL     1       2.573   4.717  21.474  0.00  0.00    +0.000 OA
ATOM      8  H   UNL     1       1.924   5.262  21.970  0.00  0.00    +0.000 HD
ENDBRANCH   4   7
BRANCH   5   9
ATOM      9  O   UNL     1       1.777   2.274  20.394  0.00  0.00    +0.000 OA
ATOM     10  H   UNL     1       1.442   1.599  19.767  0.00  0.00    +0.000 HD
ENDBRANCH   5   9
BRANCH   6  11
ATOM     11  O   UNL     1       4.342   1.780  19.065  0.00  0.00    +0.000 OA
ATOM     12  H   UNL     1       4.629   1.218  19.811  0.00  0.00    +0.000 HD
ENDBRANCH   6  11
BRANCH   1  13
ATOM     13  O   UNL     1       4.722   4.029  17.487  0.00  0.00    +0.000 OA
BRANCH  13  15
ATOM     14  O   UNL     1       7.654   4.793  16.234  0.00  0.00    +0.000 OA
ATOM     15  P   UNL     1       6.270   4.433  16.827  0.00  0.00    +0.000 P 
BRANCH  15  16
ATOM     16  O   UNL     1       6.878   4.213  18.328  0.00  0.00    +0.000 OA
ATOM     17  H   UNL     1       7.695   4.738  18.402  0.00  0.00    +0.000 HD
ENDBRANCH  15  16
BRANCH  15  18
ATOM     18  O   UNL     1       5.926   6.017  17.049  0.00  0.00    +0.000 OA
ATOM     19  H   UNL     1       6.606   6.518  16.554  0.00  0.00    +0.000 HD
ENDBRANCH  15  18
ENDBRANCH  13  15
ENDBRANCH   1  13
BRANCH   3  20
ATOM     20  C   UNL     1       2.525   7.120  19.674  0.00  0.00    +0.000 C 
BRANCH  20  21
ATOM     21  O   UNL     1       1.626   7.121  20.787  0.00  0.00    +0.000 OA
ATOM     22  H   UNL     1       2.073   7.610  21.504  0.00  0.00    +0.000 HD
ENDBRANCH  20  21
ENDBRANCH   3  20
TORSDOF 9
ENDMDL
