MODEL 1
REMARK VINA RESULT:      -8.3      0.000      0.000
REMARK  Name = 
REMARK  8 active torsions:
REMARK  status: ('A' for Active; 'I' for Inactive)
REMARK    1  A    between atoms: C_1  and  C_2
REMARK    2  A    between atoms: C_2  and  O_3
REMARK    3  A    between atoms: C_2  and  C_18
REMARK    4  A    between atoms: O_3  and  C_4
REMARK    5  A    between atoms: C_4  and  C_6
REMARK    6  A    between atoms: C_6  and  C_7
REMARK    7  A    between atoms: C_10  and  O_11
REMARK    8  A    between atoms: N_20  and  C_21
REMARK                            x       y       z     vdW  Elec       q    Type
REMARK                         _______ _______ _______ _____ _____    ______ ____
ROOT
ATOM      1  C   UNL     1       3.620   2.062  19.172  0.00  0.00    +0.000 C 
ATOM      2  O   UNL     1       4.595   1.361  19.414  0.00  0.00    +0.000 OA
ENDROOT
BRANCH   1   3
ATOM      3  O   UNL     1       2.454   2.060  19.885  0.00  0.00    +0.000 OA
BRANCH   3   5
ATOM      4  C   UNL     1       1.538   2.616  22.069  0.00  0.00    +0.000 C 
ATOM      5  C   UNL     1       2.364   3.091  20.874  0.00  0.00    +0.000 C 
BRANCH   5   6
ATOM      6  C   UNL     1       1.751   4.409  20.371  0.00  0.00    +0.000 C 
ATOM      7  O   UNL     1       0.604   4.395  19.922  0.00  0.00    +0.000 OA
ATOM      8  N   UNL     1       2.579   5.521  20.419  0.00  0.00    +0.000 N 
ATOM      9  H   UNL     1       3.554   5.354  20.649  0.00  0.00    +0.000 HD
BRANCH   8  10
ATOM     10  C   UNL     1       2.213   6.819  19.978  0.00  0.00    +0.000 A 
ATOM     11  C   UNL     1       1.562   7.745  20.807  0.00  0.00    +0.000 A 
ATOM     12  C   UNL     1       1.116   8.971  20.313  0.00  0.00    +0.000 A 
ATOM     13  C   UNL     1       1.344   9.292  18.985  0.00  0.00    +0.000 A 
ATOM     14  F   UNL     1       0.883  10.451  18.499  0.00  0.00    +0.000 F 
ATOM     15  C   UNL     1       2.042   8.420  18.156  0.00  0.00    +0.000 A 
ATOM     16  C   UNL     1       2.488   7.188  18.654  0.00  0.00    +0.000 A 
ENDBRANCH   8  10
ENDBRANCH   5   6
ENDBRANCH   3   5
ENDBRANCH   1   3
BRANCH   1  17
ATOM     17  C   UNL     1       3.599   3.072  18.060  0.00  0.00    +0.000 C 
BRANCH  17  18
ATOM     18  C   UNL     1       4.813   3.952  18.065  0.00  0.00    +0.000 A 
ATOM     19  N   UNL     1       5.149   4.433  19.291  0.00  0.00    +0.000 NA
ATOM     20  N   UNL     1       6.219   5.244  19.435  0.00  0.00    +0.000 NA
ATOM     21  C   UNL     1       6.942   5.562  18.348  0.00  0.00    +0.000 A 
ATOM     22  C   UNL     1       6.664   5.116  17.059  0.00  0.00    +0.000 A 
ATOM     23  C   UNL     1       7.449   5.467  15.942  0.00  0.00    +0.000 A 
ATOM     24  C   UNL     1       7.133   4.994  14.664  0.00  0.00    +0.000 A 
ATOM     25  C   UNL     1       6.029   4.172  14.493  0.00  0.00    +0.000 A 
ATOM     26  C   UNL     1       5.240   3.819  15.591  0.00  0.00    +0.000 A 
ATOM     27  C   UNL     1       5.544   4.276  16.899  0.00  0.00    +0.000 A 
BRANCH  21  28
ATOM     28  O   UNL     1       8.006   6.373  18.607  0.00  0.00    +0.000 OA
ATOM     29  H   UNL     1       8.740   5.835  18.257  0.00  0.00    +0.000 HD
ENDBRANCH  21  28
ENDBRANCH  17  18
ENDBRANCH   1  17
TORSDOF 7
ENDMDL
MODEL 2
REMARK VINA RESULT:      -8.3      1.588      2.211
REMARK  Name = 
REMARK  8 active torsions:
REMARK  status: ('A' for Active; 'I' for Inactive)
REMARK    1  A    between atoms: C_1  and  C_2
REMARK    2  A    between atoms: C_2  and  O_3
REMARK    3  A    between atoms: C_2  and  C_18
REMARK    4  A    between atoms: O_3  and  C_4
REMARK    5  A    between atoms: C_4  and  C_6
REMARK    6  A    between atoms: C_6  and  C_7
REMARK    7  A    between atoms: C_10  and  O_11
REMARK    8  A    between atoms: N_20  and  C_21
REMARK                            x       y       z     vdW  Elec       q    Type
REMARK                         _______ _______ _______ _____ _____    ______ ____
ROOT
ATOM      1  C   UNL     1       3.748   2.087  19.110  0.00  0.00    +0.000 C 
ATOM      2  O   UNL     1       3.993   1.085  18.448  0.00  0.00    +0.000 OA
ENDROOT
BRANCH   1   3
ATOM      3  O   UNL     1       2.526   2.402  19.635  0.00  0.00    +0.000 OA
BRANCH   3   5
ATOM      4  C   UNL     1       1.926   2.845  21.950  0.00  0.00    +0.000 C 
ATOM      5  C   UNL     1       2.564   3.388  20.671  0.00  0.00    +0.000 C 
BRANCH   5   6
ATOM      6  C   UNL     1       1.864   4.712  20.322  0.00  0.00    +0.000 C 
ATOM      7  O   UNL     1       0.634   4.735  20.265  0.00  0.00    +0.000 OA
ATOM      8  N   UNL     1       2.698   5.785  20.042  0.00  0.00    +0.000 N 
ATOM      9  H   UNL     1       3.690   5.581  19.956  0.00  0.00    +0.000 HD
BRANCH   8  10
ATOM     10  C   UNL     1       2.252   7.080  19.673  0.00  0.00    +0.000 A 
ATOM     11  C   UNL     1       1.617   7.948  20.573  0.00  0.00    +0.000 A 
ATOM     12  C   UNL     1       1.091   9.170  20.153  0.00  0.00    +0.000 A 
ATOM     13  C   UNL     1       1.221   9.545  18.827  0.00  0.00    +0.000 A 
ATOM     14  F   UNL     1       0.684  10.699  18.413  0.00  0.00    +0.000 F 
ATOM     15  C   UNL     1       1.902   8.734  17.925  0.00  0.00    +0.000 A 
ATOM     16  C   UNL     1       2.429   7.506  18.348  0.00  0.00    +0.000 A 
ENDBRANCH   8  10
ENDBRANCH   5   6
ENDBRANCH   3   5
ENDBRANCH   1   3
BRANCH   1  17
ATOM     17  C   UNL     1       4.797   3.096  19.480  0.00  0.00    +0.000 C 
BRANCH  17  18
ATOM     18  C   UNL     1       5.004   4.124  18.408  0.00  0.00    +0.000 A 
ATOM     19  N   UNL     1       4.107   4.055  17.389  0.00  0.00    +0.000 NA
ATOM     20  N   UNL     1       4.183   4.920  16.355  0.00  0.00    +0.000 NA
ATOM     21  C   UNL     1       5.158   5.846  16.355  0.00  0.00    +0.000 A 
ATOM     22  C   UNL     1       6.116   5.980  17.355  0.00  0.00    +0.000 A 
ATOM     23  C   UNL     1       7.121   6.968  17.324  0.00  0.00    +0.000 A 
ATOM     24  C   UNL     1       8.063   7.068  18.352  0.00  0.00    +0.000 A 
ATOM     25  C   UNL     1       8.010   6.180  19.417  0.00  0.00    +0.000 A 
ATOM     26  C   UNL     1       7.021   5.194  19.459  0.00  0.00    +0.000 A 
ATOM     27  C   UNL     1       6.048   5.077  18.434  0.00  0.00    +0.000 A 
BRANCH  21  28
ATOM     28  O   UNL     1       5.135   6.675  15.273  0.00  0.00    +0.000 OA
ATOM     29  H   UNL     1       6.072   6.939  15.222  0.00  0.00    +0.000 HD
ENDBRANCH  21  28
ENDBRANCH  17  18
ENDBRANCH   1  17
TORSDOF 7
ENDMDL
MODEL 3
REMARK VINA RESULT:      -8.1      0.460      1.029
REMARK  Name = 
REMARK  8 active torsions:
REMARK  status: ('A' for Active; 'I' for Inactive)
REMARK    1  A    between atoms: C_1  and  C_2
REMARK    2  A    between atoms: C_2  and  O_3
REMARK    3  A    between atoms: C_2  and  C_18
REMARK    4  A    between atoms: O_3  and  C_4
REMARK    5  A    between atoms: C_4  and  C_6
REMARK    6  A    between atoms: C_6  and  C_7
REMARK    7  A    between atoms: C_10  and  O_11
REMARK    8  A    between atoms: N_20  and  C_21
REMARK                            x       y       z     vdW  Elec       q    Type
REMARK                         _______ _______ _______ _____ _____    ______ ____
ROOT
ATOM      1  C   UNL     1       3.218   1.880  18.695  0.00  0.00    +0.000 C 
ATOM      2  O   UNL     1       4.040   0.996  18.904  0.00  0.00    +0.000 OA
ENDROOT
BRANCH   1   3
ATOM      3  O   UNL     1       2.100   2.107  19.448  0.00  0.00    +0.000 OA
BRANCH   3   5
ATOM      4  C   UNL     1       1.716   2.492  21.819  0.00  0.00    +0.000 C 
ATOM      5  C   UNL     1       2.283   3.046  20.512  0.00  0.00    +0.000 C 
BRANCH   5   6
ATOM      6  C   UNL     1       1.645   4.424  20.268  0.00  0.00    +0.000 C 
ATOM      7  O   UNL     1       0.421   4.534  20.358  0.00  0.00    +0.000 OA
ATOM      8  N   UNL     1       2.516   5.441  19.906  0.00  0.00    +0.000 N 
ATOM      9  H   UNL     1       3.473   5.170  19.699  0.00  0.00    +0.000 HD
BRANCH   8  10
ATOM     10  C   UNL     1       2.124   6.773  19.612  0.00  0.00    +0.000 A 
ATOM     11  C   UNL     1       2.305   7.354  18.348  0.00  0.00    +0.000 A 
ATOM     12  C   UNL     1       2.012   8.699  18.121  0.00  0.00    +0.000 A 
ATOM     13  C   UNL     1       1.509   9.469  19.156  0.00  0.00    +0.000 A 
ATOM     14  F   UNL     1       1.263  10.769  18.952  0.00  0.00    +0.000 F 
ATOM     15  C   UNL     1       1.259   8.903  20.402  0.00  0.00    +0.000 A 
ATOM     16  C   UNL     1       1.556   7.552  20.629  0.00  0.00    +0.000 A 
ENDBRANCH   8  10
ENDBRANCH   5   6
ENDBRANCH   3   5
ENDBRANCH   1   3
BRANCH   1  17
ATOM     17  C   UNL     1       3.364   2.883  17.586  0.00  0.00    +0.000 C 
BRANCH  17  18
ATOM     18  C   UNL     1       4.629   3.678  17.697  0.00  0.00    +0.000 A 
ATOM     19  N   UNL     1       4.970   4.009  18.972  0.00  0.00    +0.000 NA
ATOM     20  N   UNL     1       6.085   4.731  19.213  0.00  0.00    +0.000 NA
ATOM     21  C   UNL     1       6.848   5.112  18.174  0.00  0.00    +0.000 A 
ATOM     22  C   UNL     1       6.568   4.819  16.842  0.00  0.00    +0.000 A 
ATOM     23  C   UNL     1       7.396   5.230  15.778  0.00  0.00    +0.000 A 
ATOM     24  C   UNL     1       7.077   4.911  14.454  0.00  0.00    +0.000 A 
ATOM     25  C   UNL     1       5.928   4.182  14.185  0.00  0.00    +0.000 A 
ATOM     26  C   UNL     1       5.097   3.770  15.230  0.00  0.00    +0.000 A 
ATOM     27  C   UNL     1       5.402   4.072  16.581  0.00  0.00    +0.000 A 
BRANCH  21  28
ATOM     28  O   UNL     1       7.955   5.823  18.529  0.00  0.00    +0.000 OA
ATOM     29  H   UNL     1       7.836   5.883  19.494  0.00  0.00    +0.000 HD
ENDBRANCH  21  28
ENDBRANCH  17  18
ENDBRANCH   1  17
TORSDOF 7
ENDMDL
MODEL 4
REMARK VINA RESULT:      -7.6      4.584      7.103
REMARK  Name = 
REMARK  8 active torsions:
REMARK  status: ('A' for Active; 'I' for Inactive)
REMARK    1  A    between atoms: C_1  and  C_2
REMARK    2  A    between atoms: C_2  and  O_3
REMARK    3  A    between atoms: C_2  and  C_18
REMARK    4  A    between atoms: O_3  and  C_4
REMARK    5  A    between atoms: C_4  and  C_6
REMARK    6  A    between atoms: C_6  and  C_7
REMARK    7  A    between atoms: C_10  and  O_11
REMARK    8  A    between atoms: N_20  and  C_21
REMARK                            x       y       z     vdW  Elec       q    Type
REMARK                         _______ _______ _______ _____ _____    ______ ____
ROOT
ATOM      1  C   UNL     1       6.120   6.566  16.648  0.00  0.00    +0.000 C 
ATOM      2  O   UNL     1       6.878   5.922  15.932  0.00  0.00    +0.000 OA
ENDROOT
BRANCH   1   3
ATOM      3  O   UNL     1       6.431   7.747  17.261  0.00  0.00    +0.000 OA
BRANCH   3   5
ATOM      4  C   UNL     1       8.167   6.898  18.738  0.00  0.00    +0.000 C 
ATOM      5  C   UNL     1       7.810   7.880  17.623  0.00  0.00    +0.000 C 
BRANCH   5   6
ATOM      6  C   UNL     1       8.217   9.288  18.087  0.00  0.00    +0.000 C 
ATOM      7  O   UNL     1       7.734  10.265  17.511  0.00  0.00    +0.000 OA
ATOM      8  N   UNL     1       9.156   9.344  19.107  0.00  0.00    +0.000 N 
ATOM      9  H   UNL     1       9.597   8.467  19.369  0.00  0.00    +0.000 HD
BRANCH   8  10
ATOM     10  C   UNL     1       9.680  10.542  19.657  0.00  0.00    +0.000 A 
ATOM     11  C   UNL     1       9.223  11.084  20.867  0.00  0.00    +0.000 A 
ATOM     12  C   UNL     1       9.680  12.321  21.325  0.00  0.00    +0.000 A 
ATOM     13  C   UNL     1      10.623  13.013  20.585  0.00  0.00    +0.000 A 
ATOM     14  F   UNL     1      11.034  14.216  21.003  0.00  0.00    +0.000 F 
ATOM     15  C   UNL     1      11.142  12.470  19.414  0.00  0.00    +0.000 A 
ATOM     16  C   UNL     1      10.681  11.229  18.954  0.00  0.00    +0.000 A 
ENDBRANCH   8  10
ENDBRANCH   5   6
ENDBRANCH   3   5
ENDBRANCH   1   3
BRANCH   1  17
ATOM     17  C   UNL     1       4.700   6.152  16.911  0.00  0.00    +0.000 C 
BRANCH  17  18
ATOM     18  C   UNL     1       4.606   5.015  17.883  0.00  0.00    +0.000 A 
ATOM     19  N   UNL     1       5.782   4.701  18.489  0.00  0.00    +0.000 NA
ATOM     20  N   UNL     1       5.839   3.691  19.383  0.00  0.00    +0.000 NA
ATOM     21  C   UNL     1       4.715   3.008  19.661  0.00  0.00    +0.000 A 
ATOM     22  C   UNL     1       3.475   3.262  19.083  0.00  0.00    +0.000 A 
ATOM     23  C   UNL     1       2.316   2.527  19.404  0.00  0.00    +0.000 A 
ATOM     24  C   UNL     1       1.089   2.819  18.800  0.00  0.00    +0.000 A 
ATOM     25  C   UNL     1       1.013   3.844  17.867  0.00  0.00    +0.000 A 
ATOM     26  C   UNL     1       2.155   4.578  17.538  0.00  0.00    +0.000 A 
ATOM     27  C   UNL     1       3.409   4.309  18.143  0.00  0.00    +0.000 A 
BRANCH  21  28
ATOM     28  O   UNL     1       4.881   2.020  20.585  0.00  0.00    +0.000 OA
ATOM     29  H   UNL     1       5.614   2.382  21.116  0.00  0.00    +0.000 HD
ENDBRANCH  21  28
ENDBRANCH  17  18
ENDBRANCH   1  17
TORSDOF 7
ENDMDL
MODEL 5
REMARK VINA RESULT:      -7.6      1.651      2.293
REMARK  Name = 
REMARK  8 active torsions:
REMARK  status: ('A' for Active; 'I' for Inactive)
REMARK    1  A    between atoms: C_1  and  C_2
REMARK    2  A    between atoms: C_2  and  O_3
REMARK    3  A    between atoms: C_2  and  C_18
REMARK    4  A    between atoms: O_3  and  C_4
REMARK    5  A    between atoms: C_4  and  C_6
REMARK    6  A    between atoms: C_6  and  C_7
REMARK    7  A    between atoms: C_10  and  O_11
REMARK    8  A    between atoms: N_20  and  C_21
REMARK                            x       y       z     vdW  Elec       q    Type
REMARK                         _______ _______ _______ _____ _____    ______ ____
ROOT
ATOM      1  C   UNL     1       3.231   2.532  18.168  0.00  0.00    +0.000 C 
ATOM      2  O   UNL     1       4.051   1.662  17.899  0.00  0.00    +0.000 OA
ENDROOT
BRANCH   1   3
ATOM      3  O   UNL     1       2.361   2.494  19.221  0.00  0.00    +0.000 OA
BRANCH   3   5
ATOM      4  C   UNL     1       2.432   2.753  21.639  0.00  0.00    +0.000 C 
ATOM      5  C   UNL     1       2.671   3.407  20.279  0.00  0.00    +0.000 C 
BRANCH   5   6
ATOM      6  C   UNL     1       1.876   4.723  20.242  0.00  0.00    +0.000 C 
ATOM      7  O   UNL     1       0.647   4.674  20.320  0.00  0.00    +0.000 OA
ATOM      8  N   UNL     1       2.622   5.879  20.069  0.00  0.00    +0.000 N 
ATOM      9  H   UNL     1       3.606   5.758  19.845  0.00  0.00    +0.000 HD
BRANCH   8  10
ATOM     10  C   UNL     1       2.077   7.187  19.983  0.00  0.00    +0.000 A 
ATOM     11  C   UNL     1       1.398   7.796  21.047  0.00  0.00    +0.000 A 
ATOM     12  C   UNL     1       0.778   9.037  20.895  0.00  0.00    +0.000 A 
ATOM     13  C   UNL     1       0.856   9.691  19.677  0.00  0.00    +0.000 A 
ATOM     14  F   UNL     1       0.230  10.863  19.517  0.00  0.00    +0.000 F 
ATOM     15  C   UNL     1       1.577   9.140  18.623  0.00  0.00    +0.000 A 
ATOM     16  C   UNL     1       2.199   7.893  18.777  0.00  0.00    +0.000 A 
ENDBRANCH   8  10
ENDBRANCH   5   6
ENDBRANCH   3   5
ENDBRANCH   1   3
BRANCH   1  17
ATOM     17  C   UNL     1       3.107   3.805  17.381  0.00  0.00    +0.000 C 
BRANCH  17  18
ATOM     18  C   UNL     1       4.408   4.227  16.767  0.00  0.00    +0.000 A 
ATOM     19  N   UNL     1       4.476   4.040  15.422  0.00  0.00    +0.000 NA
ATOM     20  N   UNL     1       5.596   4.372  14.744  0.00  0.00    +0.000 NA
ATOM     21  C   UNL     1       6.635   4.890  15.422  0.00  0.00    +0.000 A 
ATOM     22  C   UNL     1       6.648   5.108  16.797  0.00  0.00    +0.000 A 
ATOM     23  C   UNL     1       7.755   5.659  17.474  0.00  0.00    +0.000 A 
ATOM     24  C   UNL     1       7.723   5.863  18.857  0.00  0.00    +0.000 A 
ATOM     25  C   UNL     1       6.587   5.515  19.573  0.00  0.00    +0.000 A 
ATOM     26  C   UNL     1       5.484   4.965  18.915  0.00  0.00    +0.000 A 
ATOM     27  C   UNL     1       5.486   4.757  17.513  0.00  0.00    +0.000 A 
BRANCH  21  28
ATOM     28  O   UNL     1       7.707   5.202  14.641  0.00  0.00    +0.000 OA
ATOM     29  H   UNL     1       8.255   5.707  15.270  0.00  0.00    +0.000 HD
ENDBRANCH  21  28
ENDBRANCH  17  18
ENDBRANCH   1  17
TORSDOF 7
ENDMDL
MODEL 6
REMARK VINA RESULT:      -7.5      4.094      6.736
REMARK  Name = 
REMARK  8 active torsions:
REMARK  status: ('A' for Active; 'I' for Inactive)
REMARK    1  A    between atoms: C_1  and  C_2
REMARK    2  A    between atoms: C_2  and  O_3
REMARK    3  A    between atoms: C_2  and  C_18
REMARK    4  A    between atoms: O_3  and  C_4
REMARK    5  A    between atoms: C_4  and  C_6
REMARK    6  A    between atoms: C_6  and  C_7
REMARK    7  A    between atoms: C_10  and  O_11
REMARK    8  A    between atoms: N_20  and  C_21
REMARK                            x       y       z     vdW  Elec       q    Type
REMARK                         _______ _______ _______ _____ _____    ______ ____
ROOT
ATOM      1  C   UNL     1       6.657   5.040  16.895  0.00  0.00    +0.000 C 
ATOM      2  O   UNL     1       7.674   4.465  16.528  0.00  0.00    +0.000 OA
ENDROOT
BRANCH   1   3
ATOM      3  O   UNL     1       6.621   6.271  17.488  0.00  0.00    +0.000 OA
BRANCH   3   5
ATOM      4  C   UNL     1       8.069   6.191  19.440  0.00  0.00    +0.000 C 
ATOM      5  C   UNL     1       7.877   6.711  18.016  0.00  0.00    +0.000 C 
BRANCH   5   6
ATOM      6  C   UNL     1       8.061   8.237  18.042  0.00  0.00    +0.000 C 
ATOM      7  O   UNL     1       7.481   8.919  17.196  0.00  0.00    +0.000 OA
ATOM      8  N   UNL     1       8.928   8.728  19.008  0.00  0.00    +0.000 N 
ATOM      9  H   UNL     1       9.471   8.042  19.525  0.00  0.00    +0.000 HD
BRANCH   8  10
ATOM     10  C   UNL     1       9.253  10.098  19.180  0.00  0.00    +0.000 A 
ATOM     11  C   UNL     1       9.559  10.945  18.105  0.00  0.00    +0.000 A 
ATOM     12  C   UNL     1       9.984  12.257  18.315  0.00  0.00    +0.000 A 
ATOM     13  C   UNL     1      10.079  12.742  19.609  0.00  0.00    +0.000 A 
ATOM     14  F   UNL     1      10.522  13.988  19.814  0.00  0.00    +0.000 F 
ATOM     15  C   UNL     1       9.720  11.945  20.691  0.00  0.00    +0.000 A 
ATOM     16  C   UNL     1       9.296  10.626  20.479  0.00  0.00    +0.000 A 
ENDBRANCH   8  10
ENDBRANCH   5   6
ENDBRANCH   3   5
ENDBRANCH   1   3
BRANCH   1  17
ATOM     17  C   UNL     1       5.281   4.473  16.692  0.00  0.00    +0.000 C 
BRANCH  17  18
ATOM     18  C   UNL     1       4.435   4.569  17.925  0.00  0.00    +0.000 A 
ATOM     19  N   UNL     1       4.452   3.454  18.703  0.00  0.00    +0.000 NA
ATOM     20  N   UNL     1       3.727   3.406  19.841  0.00  0.00    +0.000 NA
ATOM     21  C   UNL     1       2.995   4.478  20.189  0.00  0.00    +0.000 A 
ATOM     22  C   UNL     1       2.919   5.654  19.449  0.00  0.00    +0.000 A 
ATOM     23  C   UNL     1       2.144   6.761  19.848  0.00  0.00    +0.000 A 
ATOM     24  C   UNL     1       2.099   7.924  19.074  0.00  0.00    +0.000 A 
ATOM     25  C   UNL     1       2.825   7.988  17.894  0.00  0.00    +0.000 A 
ATOM     26  C   UNL     1       3.596   6.897  17.484  0.00  0.00    +0.000 A 
ATOM     27  C   UNL     1       3.666   5.709  18.255  0.00  0.00    +0.000 A 
BRANCH  21  28
ATOM     28  O   UNL     1       2.315   4.328  21.360  0.00  0.00    +0.000 OA
ATOM     29  H   UNL     1       1.404   4.214  21.034  0.00  0.00    +0.000 HD
ENDBRANCH  21  28
ENDBRANCH  17  18
ENDBRANCH   1  17
TORSDOF 7
ENDMDL
MODEL 7
REMARK VINA RESULT:      -7.5      4.163      7.091
REMARK  Name = 
REMARK  8 active torsions:
REMARK  status: ('A' for Active; 'I' for Inactive)
REMARK    1  A    between atoms: C_1  and  C_2
REMARK    2  A    between atoms: C_2  and  O_3
REMARK    3  A    between atoms: C_2  and  C_18
REMARK    4  A    between atoms: O_3  and  C_4
REMARK    5  A    between atoms: C_4  and  C_6
REMARK    6  A    between atoms: C_6  and  C_7
REMARK    7  A    between atoms: C_10  and  O_11
REMARK    8  A    between atoms: N_20  and  C_21
REMARK                            x       y       z     vdW  Elec       q    Type
REMARK                         _______ _______ _______ _____ _____    ______ ____
ROOT
ATOM      1  C   UNL     1       4.685   6.866  16.864  0.00  0.00    +0.000 C 
ATOM      2  O   UNL     1       4.788   7.065  15.660  0.00  0.00    +0.000 OA
ENDROOT
BRANCH   1   3
ATOM      3  O   UNL     1       5.666   7.100  17.786  0.00  0.00    +0.000 OA
BRANCH   3   5
ATOM      4  C   UNL     1       7.508   5.705  17.028  0.00  0.00    +0.000 C 
ATOM      5  C   UNL     1       6.992   7.127  17.246  0.00  0.00    +0.000 C 
BRANCH   5   6
ATOM      6  C   UNL     1       8.020   7.874  18.110  0.00  0.00    +0.000 C 
ATOM      7  O   UNL     1       8.606   7.257  19.001  0.00  0.00    +0.000 OA
ATOM      8  N   UNL     1       8.170   9.227  17.843  0.00  0.00    +0.000 N 
ATOM      9  H   UNL     1       7.500   9.642  17.201  0.00  0.00    +0.000 HD
BRANCH   8  10
ATOM     10  C   UNL     1       9.045  10.098  18.543  0.00  0.00    +0.000 A 
ATOM     11  C   UNL     1       8.976  10.284  19.931  0.00  0.00    +0.000 A 
ATOM     12  C   UNL     1       9.776  11.230  20.575  0.00  0.00    +0.000 A 
ATOM     13  C   UNL     1      10.673  11.979  19.833  0.00  0.00    +0.000 A 
ATOM     14  F   UNL     1      11.414  12.913  20.442  0.00  0.00    +0.000 F 
ATOM     15  C   UNL     1      10.808  11.770  18.464  0.00  0.00    +0.000 A 
ATOM     16  C   UNL     1      10.003  10.822  17.819  0.00  0.00    +0.000 A 
ENDBRANCH   8  10
ENDBRANCH   5   6
ENDBRANCH   3   5
ENDBRANCH   1   3
BRANCH   1  17
ATOM     17  C   UNL     1       3.418   6.372  17.503  0.00  0.00    +0.000 C 
BRANCH  17  18
ATOM     18  C   UNL     1       3.451   4.898  17.772  0.00  0.00    +0.000 A 
ATOM     19  N   UNL     1       4.303   4.204  16.971  0.00  0.00    +0.000 NA
ATOM     20  N   UNL     1       4.425   2.865  17.104  0.00  0.00    +0.000 NA
ATOM     21  C   UNL     1       3.692   2.238  18.039  0.00  0.00    +0.000 A 
ATOM     22  C   UNL     1       2.795   2.872  18.894  0.00  0.00    +0.000 A 
ATOM     23  C   UNL     1       2.047   2.181  19.869  0.00  0.00    +0.000 A 
ATOM     24  C   UNL     1       1.158   2.860  20.708  0.00  0.00    +0.000 A 
ATOM     25  C   UNL     1       1.009   4.233  20.578  0.00  0.00    +0.000 A 
ATOM     26  C   UNL     1       1.742   4.931  19.614  0.00  0.00    +0.000 A 
ATOM     27  C   UNL     1       2.657   4.268  18.757  0.00  0.00    +0.000 A 
BRANCH  21  28
ATOM     28  O   UNL     1       3.901   0.892  18.098  0.00  0.00    +0.000 OA
ATOM     29  H   UNL     1       4.740   0.813  17.610  0.00  0.00    +0.000 HD
ENDBRANCH  21  28
ENDBRANCH  17  18
ENDBRANCH   1  17
TORSDOF 7
ENDMDL
MODEL 8
REMARK VINA RESULT:      -7.5      3.943      6.773
REMARK  Name = 
REMARK  8 active torsions:
REMARK  status: ('A' for Active; 'I' for Inactive)
REMARK    1  A    between atoms: C_1  and  C_2
REMARK    2  A    between atoms: C_2  and  O_3
REMARK    3  A    between atoms: C_2  and  C_18
REMARK    4  A    between atoms: O_3  and  C_4
REMARK    5  A    between atoms: C_4  and  C_6
REMARK    6  A    between atoms: C_6  and  C_7
REMARK    7  A    between atoms: C_10  and  O_11
REMARK    8  A    between atoms: N_20  and  C_21
REMARK                            x       y       z     vdW  Elec       q    Type
REMARK                         _______ _______ _______ _____ _____    ______ ____
ROOT
ATOM      1  C   UNL     1       6.072   5.080  17.079  0.00  0.00    +0.000 C 
ATOM      2  O   UNL     1       6.910   4.351  16.563  0.00  0.00    +0.000 OA
ENDROOT
BRANCH   1   3
ATOM      3  O   UNL     1       6.309   5.936  18.119  0.00  0.00    +0.000 OA
BRANCH   3   5
ATOM      4  C   UNL     1       8.192   5.952  19.658  0.00  0.00    +0.000 C 
ATOM      5  C   UNL     1       7.679   6.323  18.267  0.00  0.00    +0.000 C 
BRANCH   5   6
ATOM      6  C   UNL     1       7.949   7.821  18.049  0.00  0.00    +0.000 C 
ATOM      7  O   UNL     1       7.547   8.350  17.012  0.00  0.00    +0.000 OA
ATOM      8  N   UNL     1       8.686   8.455  19.038  0.00  0.00    +0.000 N 
ATOM      9  H   UNL     1       9.101   7.861  19.750  0.00  0.00    +0.000 HD
BRANCH   8  10
ATOM     10  C   UNL     1       9.063   9.823  19.012  0.00  0.00    +0.000 A 
ATOM     11  C   UNL     1       9.686  10.457  20.097  0.00  0.00    +0.000 A 
ATOM     12  C   UNL     1       9.944  11.829  20.083  0.00  0.00    +0.000 A 
ATOM     13  C   UNL     1       9.602  12.573  18.966  0.00  0.00    +0.000 A 
ATOM     14  F   UNL     1       9.813  13.895  18.966  0.00  0.00    +0.000 F 
ATOM     15  C   UNL     1       9.041  11.959  17.851  0.00  0.00    +0.000 A 
ATOM     16  C   UNL     1       8.782  10.582  17.867  0.00  0.00    +0.000 A 
ENDBRANCH   8  10
ENDBRANCH   5   6
ENDBRANCH   3   5
ENDBRANCH   1   3
BRANCH   1  17
ATOM     17  C   UNL     1       4.653   5.164  16.593  0.00  0.00    +0.000 C 
BRANCH  17  18
ATOM     18  C   UNL     1       3.730   4.270  17.365  0.00  0.00    +0.000 A 
ATOM     19  N   UNL     1       3.687   2.989  16.912  0.00  0.00    +0.000 NA
ATOM     20  N   UNL     1       2.890   2.080  17.514  0.00  0.00    +0.000 NA
ATOM     21  C   UNL     1       2.147   2.466  18.565  0.00  0.00    +0.000 A 
ATOM     22  C   UNL     1       2.130   3.756  19.087  0.00  0.00    +0.000 A 
ATOM     23  C   UNL     1       1.342   4.123  20.197  0.00  0.00    +0.000 A 
ATOM     24  C   UNL     1       1.358   5.431  20.690  0.00  0.00    +0.000 A 
ATOM     25  C   UNL     1       2.159   6.383  20.076  0.00  0.00    +0.000 A 
ATOM     26  C   UNL     1       2.944   6.034  18.973  0.00  0.00    +0.000 A 
ATOM     27  C   UNL     1       2.953   4.712  18.460  0.00  0.00    +0.000 A 
BRANCH  21  28
ATOM     28  O   UNL     1       1.391   1.469  19.106  0.00  0.00    +0.000 OA
ATOM     29  H   UNL     1       1.122   0.984  18.305  0.00  0.00    +0.000 HD
ENDBRANCH  21  28
ENDBRANCH  17  18
ENDBRANCH   1  17
TORSDOF 7
ENDMDL
MODEL 9
REMARK VINA RESULT:      -7.4      4.428      6.927
REMARK  Name = 
REMARK  8 active torsions:
REMARK  status: ('A' for Active; 'I' for Inactive)
REMARK    1  A    between atoms: C_1  and  C_2
REMARK    2  A    between atoms: C_2  and  O_3
REMARK    3  A    between atoms: C_2  and  C_18
REMARK    4  A    between atoms: O_3  and  C_4
REMARK    5  A    between atoms: C_4  and  C_6
REMARK    6  A    between atoms: C_6  and  C_7
REMARK    7  A    between atoms: C_10  and  O_11
REMARK    8  A    between atoms: N_20  and  C_21
REMARK                            x       y       z     vdW  Elec       q    Type
REMARK                         _______ _______ _______ _____ _____    ______ ____
ROOT
ATOM      1  C   UNL     1       6.476   6.119  16.393  0.00  0.00    +0.000 C 
ATOM      2  O   UNL     1       7.357   5.292  16.190  0.00  0.00    +0.000 OA
ENDROOT
BRANCH   1   3
ATOM      3  O   UNL     1       6.679   7.376  16.891  0.00  0.00    +0.000 OA
BRANCH   3   5
ATOM      4  C   UNL     1       7.888   6.623  18.862  0.00  0.00    +0.000 C 
ATOM      5  C   UNL     1       7.893   7.531  17.632  0.00  0.00    +0.000 C 
BRANCH   5   6
ATOM      6  C   UNL     1       8.175   8.966  18.107  0.00  0.00    +0.000 C 
ATOM      7  O   UNL     1       7.565   9.896  17.577  0.00  0.00    +0.000 OA
ATOM      8  N   UNL     1       9.153   9.103  19.081  0.00  0.00    +0.000 N 
ATOM      9  H   UNL     1       9.696   8.273  19.302  0.00  0.00    +0.000 HD
BRANCH   8  10
ATOM     10  C   UNL     1       9.578  10.340  19.631  0.00  0.00    +0.000 A 
ATOM     11  C   UNL     1       9.090  10.835  20.849  0.00  0.00    +0.000 A 
ATOM     12  C   UNL     1       9.443  12.105  21.308  0.00  0.00    +0.000 A 
ATOM     13  C   UNL     1      10.313  12.880  20.560  0.00  0.00    +0.000 A 
ATOM     14  F   UNL     1      10.623  14.113  20.979  0.00  0.00    +0.000 F 
ATOM     15  C   UNL     1      10.863  12.389  19.380  0.00  0.00    +0.000 A 
ATOM     16  C   UNL     1      10.506  11.115  18.919  0.00  0.00    +0.000 A 
ENDBRANCH   8  10
ENDBRANCH   5   6
ENDBRANCH   3   5
ENDBRANCH   1   3
BRANCH   1  17
ATOM     17  C   UNL     1       5.032   5.867  16.069  0.00  0.00    +0.000 C 
BRANCH  17  18
ATOM     18  C   UNL     1       4.180   5.762  17.298  0.00  0.00    +0.000 A 
ATOM     19  N   UNL     1       3.861   6.959  17.860  0.00  0.00    +0.000 NA
ATOM     20  N   UNL     1       3.103   7.007  18.976  0.00  0.00    +0.000 NA
ATOM     21  C   UNL     1       2.671   5.855  19.516  0.00  0.00    +0.000 A 
ATOM     22  C   UNL     1       2.955   4.591  19.007  0.00  0.00    +0.000 A 
ATOM     23  C   UNL     1       2.479   3.403  19.598  0.00  0.00    +0.000 A 
ATOM     24  C   UNL     1       2.788   2.154  19.052  0.00  0.00    +0.000 A 
ATOM     25  C   UNL     1       3.578   2.083  17.913  0.00  0.00    +0.000 A 
ATOM     26  C   UNL     1       4.059   3.252  17.318  0.00  0.00    +0.000 A 
ATOM     27  C   UNL     1       3.752   4.532  17.847  0.00  0.00    +0.000 A 
BRANCH  21  28
ATOM     28  O   UNL     1       1.904   6.018  20.631  0.00  0.00    +0.000 OA
ATOM     29  H   UNL     1       2.589   6.113  21.317  0.00  0.00    +0.000 HD
ENDBRANCH  21  28
ENDBRANCH  17  18
ENDBRANCH   1  17
TORSDOF 7
ENDMDL
