MODEL 1
REMARK VINA RESULT:      -8.1      0.000      0.000
REMARK  Name = 
REMARK  4 active torsions:
REMARK  status: ('A' for Active; 'I' for Inactive)
REMARK    1  A    between atoms: N_1  and  C_2
REMARK    2  A    between atoms: C_6  and  C_7
REMARK    3  A    between atoms: N_9  and  N_10
REMARK    4  A    between atoms: N_10  and  C_11
REMARK                            x       y       z     vdW  Elec       q    Type
REMARK                         _______ _______ _______ _____ _____    ______ ____
ROOT
ATOM      1  C   UNL     1       4.331   6.153  17.846  0.00  0.00    +0.000 A 
ATOM      2  S   UNL     1       2.638   6.164  17.865  0.00  0.00    +0.000 S 
ATOM      3  C   UNL     1       2.539   4.567  18.478  0.00  0.00    +0.000 A 
ATOM      4  C   UNL     1       3.803   3.989  18.602  0.00  0.00    +0.000 A 
ATOM      5  C   UNL     1       4.861   4.909  18.145  0.00  0.00    +0.000 A 
ATOM      6  C   UNL     1       4.058   2.606  19.151  0.00  0.00    +0.000 C 
ATOM      7  C   UNL     1       3.920   2.513  20.673  0.00  0.00    +0.000 C 
ATOM      8  C   UNL     1       2.636   3.074  21.292  0.00  0.00    +0.000 C 
ATOM      9  C   UNL     1       1.331   2.455  20.795  0.00  0.00    +0.000 C 
ATOM     10  C   UNL     1       0.943   2.686  19.332  0.00  0.00    +0.000 C 
ATOM     11  C   UNL     1       1.138   4.105  18.815  0.00  0.00    +0.000 C 
ENDROOT
BRANCH   5  12
ATOM     12  C   UNL     1       6.309   4.603  18.090  0.00  0.00    +0.000 C 
ATOM     13  O   UNL     1       7.034   4.647  19.088  0.00  0.00    +0.000 OA
ATOM     14  N   UNL     1       6.875   4.201  16.867  0.00  0.00    +0.000 N 
ATOM     15  H   UNL     1       7.823   3.843  16.937  0.00  0.00    +0.000 HD
BRANCH  14  16
ATOM     16  N   UNL     1       6.078   3.709  15.831  0.00  0.00    +0.000 N 
ATOM     17  H   UNL     1       5.615   2.816  16.005  0.00  0.00    +0.000 HD
BRANCH  16  18
ATOM     18  C   UNL     1       6.373   3.987  14.485  0.00  0.00    +0.000 A 
ATOM     19  C   UNL     1       7.376   4.940  14.238  0.00  0.00    +0.000 A 
ATOM     20  C   UNL     1       7.804   5.234  12.938  0.00  0.00    +0.000 A 
ATOM     21  C   UNL     1       7.244   4.560  11.862  0.00  0.00    +0.000 A 
ATOM     22  C   UNL     1       6.279   3.583  12.087  0.00  0.00    +0.000 A 
ATOM     23  C   UNL     1       5.858   3.283  13.392  0.00  0.00    +0.000 A 
ENDBRANCH  16  18
ENDBRANCH  14  16
ENDBRANCH   5  12
BRANCH   1  24
ATOM     24  N   UNL     1       4.986   7.295  17.529  0.00  0.00    +0.000 N 
ATOM     25  H   UNL     1       5.977   7.228  17.315  0.00  0.00    +0.000 HD
ATOM     26  H   UNL     1       4.766   8.126  18.083  0.00  0.00    +0.000 HD
ENDBRANCH   1  24
TORSDOF 4
ENDMDL
MODEL 2
REMARK VINA RESULT:      -7.9      0.119      1.027
REMARK  Name = 
REMARK  4 active torsions:
REMARK  status: ('A' for Active; 'I' for Inactive)
REMARK    1  A    between atoms: N_1  and  C_2
REMARK    2  A    between atoms: C_6  and  C_7
REMARK    3  A    between atoms: N_9  and  N_10
REMARK    4  A    between atoms: N_10  and  C_11
REMARK                            x       y       z     vdW  Elec       q    Type
REMARK                         _______ _______ _______ _____ _____    ______ ____
ROOT
ATOM      1  C   UNL     1       4.342   6.189  17.865  0.00  0.00    +0.000 A 
ATOM      2  S   UNL     1       2.649   6.179  17.844  0.00  0.00    +0.000 S 
ATOM      3  C   UNL     1       2.556   4.580  18.452  0.00  0.00    +0.000 A 
ATOM      4  C   UNL     1       3.823   4.017  18.604  0.00  0.00    +0.000 A 
ATOM      5  C   UNL     1       4.881   4.950  18.174  0.00  0.00    +0.000 A 
ATOM      6  C   UNL     1       4.083   2.636  19.156  0.00  0.00    +0.000 C 
ATOM      7  C   UNL     1       3.911   2.538  20.674  0.00  0.00    +0.000 C 
ATOM      8  C   UNL     1       2.607   3.081  21.264  0.00  0.00    +0.000 C 
ATOM      9  C   UNL     1       1.321   2.448  20.737  0.00  0.00    +0.000 C 
ATOM     10  C   UNL     1       0.965   2.676  19.265  0.00  0.00    +0.000 C 
ATOM     11  C   UNL     1       1.154   4.099  18.755  0.00  0.00    +0.000 C 
ENDROOT
BRANCH   5  12
ATOM     12  C   UNL     1       6.333   4.663  18.151  0.00  0.00    +0.000 C 
ATOM     13  O   UNL     1       7.030   4.691  19.170  0.00  0.00    +0.000 OA
ATOM     14  N   UNL     1       6.938   4.297  16.935  0.00  0.00    +0.000 N 
ATOM     15  H   UNL     1       7.888   3.949  17.022  0.00  0.00    +0.000 HD
BRANCH  14  16
ATOM     16  N   UNL     1       6.175   3.821  15.866  0.00  0.00    +0.000 N 
ATOM     17  H   UNL     1       5.641   2.969  16.038  0.00  0.00    +0.000 HD
BRANCH  16  18
ATOM     18  C   UNL     1       6.573   4.028  14.534  0.00  0.00    +0.000 A 
ATOM     19  C   UNL     1       5.887   3.299  13.546  0.00  0.00    +0.000 A 
ATOM     20  C   UNL     1       6.148   3.487  12.183  0.00  0.00    +0.000 A 
ATOM     21  C   UNL     1       7.088   4.426  11.787  0.00  0.00    +0.000 A 
ATOM     22  C   UNL     1       7.749   5.188  12.747  0.00  0.00    +0.000 A 
ATOM     23  C   UNL     1       7.480   5.005  14.112  0.00  0.00    +0.000 A 
ENDBRANCH  16  18
ENDBRANCH  14  16
ENDBRANCH   5  12
BRANCH   1  24
ATOM     24  N   UNL     1       4.990   7.339  17.564  0.00  0.00    +0.000 N 
ATOM     25  H   UNL     1       5.935   7.268  17.199  0.00  0.00    +0.000 HD
ATOM     26  H   UNL     1       4.888   8.116  18.223  0.00  0.00    +0.000 HD
ENDBRANCH   1  24
TORSDOF 4
ENDMDL
MODEL 3
REMARK VINA RESULT:      -7.8      1.302      1.855
REMARK  Name = 
REMARK  4 active torsions:
REMARK  status: ('A' for Active; 'I' for Inactive)
REMARK    1  A    between atoms: N_1  and  C_2
REMARK    2  A    between atoms: C_6  and  C_7
REMARK    3  A    between atoms: N_9  and  N_10
REMARK    4  A    between atoms: N_10  and  C_11
REMARK                            x       y       z     vdW  Elec       q    Type
REMARK                         _______ _______ _______ _____ _____    ______ ____
ROOT
ATOM      1  C   UNL     1       5.736   6.765  17.347  0.00  0.00    +0.000 A 
ATOM      2  S   UNL     1       4.114   7.235  17.470  0.00  0.00    +0.000 S 
ATOM      3  C   UNL     1       3.560   5.623  17.643  0.00  0.00    +0.000 A 
ATOM      4  C   UNL     1       4.609   4.709  17.533  0.00  0.00    +0.000 A 
ATOM      5  C   UNL     1       5.891   5.391  17.272  0.00  0.00    +0.000 A 
ATOM      6  C   UNL     1       4.456   3.214  17.678  0.00  0.00    +0.000 C 
ATOM      7  C   UNL     1       4.272   2.753  19.127  0.00  0.00    +0.000 C 
ATOM      8  C   UNL     1       3.188   3.454  19.949  0.00  0.00    +0.000 C 
ATOM      9  C   UNL     1       1.770   3.377  19.386  0.00  0.00    +0.000 C 
ATOM     10  C   UNL     1       1.487   4.093  18.063  0.00  0.00    +0.000 C 
ATOM     11  C   UNL     1       2.081   5.489  17.930  0.00  0.00    +0.000 C 
ENDROOT
BRANCH   5  12
ATOM     12  C   UNL     1       7.195   4.727  17.051  0.00  0.00    +0.000 C 
ATOM     13  O   UNL     1       7.702   3.966  17.880  0.00  0.00    +0.000 OA
ATOM     14  N   UNL     1       7.865   4.929  15.830  0.00  0.00    +0.000 N 
ATOM     15  H   UNL     1       8.658   4.315  15.676  0.00  0.00    +0.000 HD
BRANCH  14  16
ATOM     16  N   UNL     1       7.184   5.393  14.702  0.00  0.00    +0.000 N 
ATOM     17  H   UNL     1       6.632   6.243  14.828  0.00  0.00    +0.000 HD
BRANCH  16  18
ATOM     18  C   UNL     1       6.721   4.511  13.711  0.00  0.00    +0.000 A 
ATOM     19  C   UNL     1       5.380   4.098  13.804  0.00  0.00    +0.000 A 
ATOM     20  C   UNL     1       4.794   3.285  12.827  0.00  0.00    +0.000 A 
ATOM     21  C   UNL     1       5.540   2.887  11.727  0.00  0.00    +0.000 A 
ATOM     22  C   UNL     1       6.857   3.318  11.595  0.00  0.00    +0.000 A 
ATOM     23  C   UNL     1       7.440   4.141  12.570  0.00  0.00    +0.000 A 
ENDBRANCH  16  18
ENDBRANCH  14  16
ENDBRANCH   5  12
BRANCH   1  24
ATOM     24  N   UNL     1       6.690   7.725  17.304  0.00  0.00    +0.000 N 
ATOM     25  H   UNL     1       6.385   8.693  17.250  0.00  0.00    +0.000 HD
ATOM     26  H   UNL     1       7.505   7.544  16.713  0.00  0.00    +0.000 HD
ENDBRANCH   1  24
TORSDOF 4
ENDMDL
MODEL 4
REMARK VINA RESULT:      -7.6      1.576      2.123
REMARK  Name = 
REMARK  4 active torsions:
REMARK  status: ('A' for Active; 'I' for Inactive)
REMARK    1  A    between atoms: N_1  and  C_2
REMARK    2  A    between atoms: C_6  and  C_7
REMARK    3  A    between atoms: N_9  and  N_10
REMARK    4  A    between atoms: N_10  and  C_11
REMARK                            x       y       z     vdW  Elec       q    Type
REMARK                         _______ _______ _______ _____ _____    ______ ____
ROOT
ATOM      1  C   UNL     1       5.930   6.846  17.195  0.00  0.00    +0.000 A 
ATOM      2  S   UNL     1       4.359   7.380  17.531  0.00  0.00    +0.000 S 
ATOM      3  C   UNL     1       3.707   5.797  17.480  0.00  0.00    +0.000 A 
ATOM      4  C   UNL     1       4.677   4.857  17.131  0.00  0.00    +0.000 A 
ATOM      5  C   UNL     1       5.981   5.498  16.880  0.00  0.00    +0.000 A 
ATOM      6  C   UNL     1       4.430   3.370  17.039  0.00  0.00    +0.000 C 
ATOM      7  C   UNL     1       4.321   2.679  18.401  0.00  0.00    +0.000 C 
ATOM      8  C   UNL     1       3.352   3.291  19.417  0.00  0.00    +0.000 C 
ATOM      9  C   UNL     1       1.895   3.392  18.971  0.00  0.00    +0.000 C 
ATOM     10  C   UNL     1       1.567   4.339  17.814  0.00  0.00    +0.000 C 
ATOM     11  C   UNL     1       2.247   5.701  17.865  0.00  0.00    +0.000 C 
ENDROOT
BRANCH   5  12
ATOM     12  C   UNL     1       7.215   4.807  16.441  0.00  0.00    +0.000 C 
ATOM     13  O   UNL     1       7.921   4.154  17.216  0.00  0.00    +0.000 OA
ATOM     14  N   UNL     1       7.577   4.854  15.083  0.00  0.00    +0.000 N 
ATOM     15  H   UNL     1       8.329   4.223  14.823  0.00  0.00    +0.000 HD
BRANCH  14  16
ATOM     16  N   UNL     1       6.640   5.176  14.098  0.00  0.00    +0.000 N 
ATOM     17  H   UNL     1       5.917   5.846  14.366  0.00  0.00    +0.000 HD
BRANCH  16  18
ATOM     18  C   UNL     1       6.271   4.250  13.108  0.00  0.00    +0.000 A 
ATOM     19  C   UNL     1       7.313   3.575  12.449  0.00  0.00    +0.000 A 
ATOM     20  C   UNL     1       7.057   2.575  11.503  0.00  0.00    +0.000 A 
ATOM     21  C   UNL     1       5.746   2.222  11.216  0.00  0.00    +0.000 A 
ATOM     22  C   UNL     1       4.700   2.849  11.886  0.00  0.00    +0.000 A 
ATOM     23  C   UNL     1       4.959   3.844  12.841  0.00  0.00    +0.000 A 
ENDBRANCH  16  18
ENDBRANCH  14  16
ENDBRANCH   5  12
BRANCH   1  24
ATOM     24  N   UNL     1       6.944   7.742  17.231  0.00  0.00    +0.000 N 
ATOM     25  H   UNL     1       6.703   8.727  17.296  0.00  0.00    +0.000 HD
ATOM     26  H   UNL     1       7.732   7.579  16.598  0.00  0.00    +0.000 HD
ENDBRANCH   1  24
TORSDOF 4
ENDMDL
MODEL 5
REMARK VINA RESULT:      -7.6      0.929      1.073
REMARK  Name = 
REMARK  4 active torsions:
REMARK  status: ('A' for Active; 'I' for Inactive)
REMARK    1  A    between atoms: N_1  and  C_2
REMARK    2  A    between atoms: C_6  and  C_7
REMARK    3  A    between atoms: N_9  and  N_10
REMARK    4  A    between atoms: N_10  and  C_11
REMARK                            x       y       z     vdW  Elec       q    Type
REMARK                         _______ _______ _______ _____ _____    ______ ____
ROOT
ATOM      1  C   UNL     1       5.506   6.668  17.434  0.00  0.00    +0.000 A 
ATOM      2  S   UNL     1       3.864   7.075  17.372  0.00  0.00    +0.000 S 
ATOM      3  C   UNL     1       3.358   5.501  17.826  0.00  0.00    +0.000 A 
ATOM      4  C   UNL     1       4.444   4.635  17.954  0.00  0.00    +0.000 A 
ATOM      5  C   UNL     1       5.714   5.313  17.638  0.00  0.00    +0.000 A 
ATOM      6  C   UNL     1       4.336   3.190  18.380  0.00  0.00    +0.000 C 
ATOM      7  C   UNL     1       4.076   3.008  19.878  0.00  0.00    +0.000 C 
ATOM      8  C   UNL     1       2.917   3.803  20.486  0.00  0.00    +0.000 C 
ATOM      9  C   UNL     1       1.542   3.551  19.871  0.00  0.00    +0.000 C 
ATOM     10  C   UNL     1       1.319   3.984  18.419  0.00  0.00    +0.000 C 
ATOM     11  C   UNL     1       1.869   5.355  18.050  0.00  0.00    +0.000 C 
ENDROOT
BRANCH   5  12
ATOM     12  C   UNL     1       7.054   4.682  17.623  0.00  0.00    +0.000 C 
ATOM     13  O   UNL     1       7.795   4.676  18.610  0.00  0.00    +0.000 OA
ATOM     14  N   UNL     1       7.483   4.021  16.458  0.00  0.00    +0.000 N 
ATOM     15  H   UNL     1       8.327   3.467  16.572  0.00  0.00    +0.000 HD
BRANCH  14  16
ATOM     16  N   UNL     1       6.570   3.605  15.487  0.00  0.00    +0.000 N 
ATOM     17  H   UNL     1       6.127   2.699  15.644  0.00  0.00    +0.000 HD
BRANCH  16  18
ATOM     18  C   UNL     1       6.706   3.988  14.141  0.00  0.00    +0.000 A 
ATOM     19  C   UNL     1       7.584   5.052  13.869  0.00  0.00    +0.000 A 
ATOM     20  C   UNL     1       7.856   5.462  12.559  0.00  0.00    +0.000 A 
ATOM     21  C   UNL     1       7.265   4.796  11.495  0.00  0.00    +0.000 A 
ATOM     22  C   UNL     1       6.424   3.714  11.740  0.00  0.00    +0.000 A 
ATOM     23  C   UNL     1       6.161   3.298  13.054  0.00  0.00    +0.000 A 
ENDBRANCH  16  18
ENDBRANCH  14  16
ENDBRANCH   5  12
BRANCH   1  24
ATOM     24  N   UNL     1       6.426   7.646  17.258  0.00  0.00    +0.000 N 
ATOM     25  H   UNL     1       7.122   7.776  17.985  0.00  0.00    +0.000 HD
ATOM     26  H   UNL     1       6.091   8.536  16.880  0.00  0.00    +0.000 HD
ENDBRANCH   1  24
TORSDOF 4
ENDMDL
MODEL 6
REMARK VINA RESULT:      -7.1      2.403      3.475
REMARK  Name = 
REMARK  4 active torsions:
REMARK  status: ('A' for Active; 'I' for Inactive)
REMARK    1  A    between atoms: N_1  and  C_2
REMARK    2  A    between atoms: C_6  and  C_7
REMARK    3  A    between atoms: N_9  and  N_10
REMARK    4  A    between atoms: N_10  and  C_11
REMARK                            x       y       z     vdW  Elec       q    Type
REMARK                         _______ _______ _______ _____ _____    ______ ____
ROOT
ATOM      1  C   UNL     1       3.629   6.091  17.563  0.00  0.00    +0.000 A 
ATOM      2  S   UNL     1       2.413   6.378  18.706  0.00  0.00    +0.000 S 
ATOM      3  C   UNL     1       2.263   4.719  19.106  0.00  0.00    +0.000 A 
ATOM      4  C   UNL     1       3.092   3.926  18.311  0.00  0.00    +0.000 A 
ATOM      5  C   UNL     1       3.842   4.741  17.337  0.00  0.00    +0.000 A 
ATOM      6  C   UNL     1       3.222   2.428  18.443  0.00  0.00    +0.000 C 
ATOM      7  C   UNL     1       4.043   1.985  19.657  0.00  0.00    +0.000 C 
ATOM      8  C   UNL     1       3.658   2.581  21.014  0.00  0.00    +0.000 C 
ATOM      9  C   UNL     1       2.222   2.330  21.468  0.00  0.00    +0.000 C 
ATOM     10  C   UNL     1       1.094   2.977  20.659  0.00  0.00    +0.000 C 
ATOM     11  C   UNL     1       1.322   4.427  20.254  0.00  0.00    +0.000 C 
ENDROOT
BRANCH   5  12
ATOM     12  C   UNL     1       4.772   4.222  16.308  0.00  0.00    +0.000 C 
ATOM     13  O   UNL     1       4.494   4.216  15.105  0.00  0.00    +0.000 OA
ATOM     14  N   UNL     1       6.041   3.763  16.705  0.00  0.00    +0.000 N 
ATOM     15  H   UNL     1       6.685   3.586  15.940  0.00  0.00    +0.000 HD
BRANCH  14  16
ATOM     16  N   UNL     1       6.590   4.134  17.934  0.00  0.00    +0.000 N 
ATOM     17  H   UNL     1       6.120   3.771  18.765  0.00  0.00    +0.000 HD
BRANCH  16  18
ATOM     18  C   UNL     1       7.252   5.362  18.100  0.00  0.00    +0.000 A 
ATOM     19  C   UNL     1       7.179   6.273  17.031  0.00  0.00    +0.000 A 
ATOM     20  C   UNL     1       7.734   7.555  17.120  0.00  0.00    +0.000 A 
ATOM     21  C   UNL     1       8.355   7.954  18.295  0.00  0.00    +0.000 A 
ATOM     22  C   UNL     1       8.402   7.083  19.380  0.00  0.00    +0.000 A 
ATOM     23  C   UNL     1       7.837   5.801  19.291  0.00  0.00    +0.000 A 
ENDBRANCH  16  18
ENDBRANCH  14  16
ENDBRANCH   5  12
BRANCH   1  24
ATOM     24  N   UNL     1       4.235   7.151  16.978  0.00  0.00    +0.000 N 
ATOM     25  H   UNL     1       3.983   7.369  16.019  0.00  0.00    +0.000 HD
ATOM     26  H   UNL     1       5.238   7.265  17.149  0.00  0.00    +0.000 HD
ENDBRANCH   1  24
TORSDOF 4
ENDMDL
MODEL 7
REMARK VINA RESULT:      -7.1      1.568      2.652
REMARK  Name = 
REMARK  4 active torsions:
REMARK  status: ('A' for Active; 'I' for Inactive)
REMARK    1  A    between atoms: N_1  and  C_2
REMARK    2  A    between atoms: C_6  and  C_7
REMARK    3  A    between atoms: N_9  and  N_10
REMARK    4  A    between atoms: N_10  and  C_11
REMARK                            x       y       z     vdW  Elec       q    Type
REMARK                         _______ _______ _______ _____ _____    ______ ____
ROOT
ATOM      1  C   UNL     1       5.921   4.416  18.645  0.00  0.00    +0.000 A 
ATOM      2  S   UNL     1       5.442   3.380  19.896  0.00  0.00    +0.000 S 
ATOM      3  C   UNL     1       3.798   3.850  19.784  0.00  0.00    +0.000 A 
ATOM      4  C   UNL     1       3.619   4.858  18.837  0.00  0.00    +0.000 A 
ATOM      5  C   UNL     1       4.900   5.251  18.221  0.00  0.00    +0.000 A 
ATOM      6  C   UNL     1       2.282   5.461  18.474  0.00  0.00    +0.000 C 
ATOM      7  C   UNL     1       1.416   4.552  17.598  0.00  0.00    +0.000 C 
ATOM      8  C   UNL     1       1.209   3.113  18.078  0.00  0.00    +0.000 C 
ATOM      9  C   UNL     1       0.576   2.955  19.459  0.00  0.00    +0.000 C 
ATOM     10  C   UNL     1       1.377   3.438  20.671  0.00  0.00    +0.000 C 
ATOM     11  C   UNL     1       2.855   3.068  20.672  0.00  0.00    +0.000 C 
ENDROOT
BRANCH   5  12
ATOM     12  C   UNL     1       5.086   6.323  17.217  0.00  0.00    +0.000 C 
ATOM     13  O   UNL     1       5.345   7.488  17.531  0.00  0.00    +0.000 OA
ATOM     14  N   UNL     1       5.013   5.997  15.850  0.00  0.00    +0.000 N 
ATOM     15  H   UNL     1       5.318   6.735  15.222  0.00  0.00    +0.000 HD
BRANCH  14  16
ATOM     16  N   UNL     1       5.164   4.679  15.414  0.00  0.00    +0.000 N 
ATOM     17  H   UNL     1       5.192   3.965  16.142  0.00  0.00    +0.000 HD
BRANCH  16  18
ATOM     18  C   UNL     1       5.870   4.373  14.238  0.00  0.00    +0.000 A 
ATOM     19  C   UNL     1       5.230   3.529  13.314  0.00  0.00    +0.000 A 
ATOM     20  C   UNL     1       5.808   3.224  12.076  0.00  0.00    +0.000 A 
ATOM     21  C   UNL     1       7.033   3.779  11.735  0.00  0.00    +0.000 A 
ATOM     22  C   UNL     1       7.664   4.651  12.618  0.00  0.00    +0.000 A 
ATOM     23  C   UNL     1       7.079   4.963  13.854  0.00  0.00    +0.000 A 
ENDBRANCH  16  18
ENDBRANCH  14  16
ENDBRANCH   5  12
BRANCH   1  24
ATOM     24  N   UNL     1       7.202   4.362  18.210  0.00  0.00    +0.000 N 
ATOM     25  H   UNL     1       7.399   4.706  17.275  0.00  0.00    +0.000 HD
ATOM     26  H   UNL     1       7.732   3.514  18.429  0.00  0.00    +0.000 HD
ENDBRANCH   1  24
TORSDOF 4
ENDMDL
MODEL 8
REMARK VINA RESULT:      -7.1      2.642      3.764
REMARK  Name = 
REMARK  4 active torsions:
REMARK  status: ('A' for Active; 'I' for Inactive)
REMARK    1  A    between atoms: N_1  and  C_2
REMARK    2  A    between atoms: C_6  and  C_7
REMARK    3  A    between atoms: N_9  and  N_10
REMARK    4  A    between atoms: N_10  and  C_11
REMARK                            x       y       z     vdW  Elec       q    Type
REMARK                         _______ _______ _______ _____ _____    ______ ____
ROOT
ATOM      1  C   UNL     1       2.002   6.710  20.249  0.00  0.00    +0.000 A 
ATOM      2  S   UNL     1       1.606   5.327  21.143  0.00  0.00    +0.000 S 
ATOM      3  C   UNL     1       1.725   4.295  19.781  0.00  0.00    +0.000 A 
ATOM      4  C   UNL     1       1.996   5.016  18.617  0.00  0.00    +0.000 A 
ATOM      5  C   UNL     1       2.077   6.463  18.888  0.00  0.00    +0.000 A 
ATOM      6  C   UNL     1       2.199   4.393  17.256  0.00  0.00    +0.000 C 
ATOM      7  C   UNL     1       3.558   3.708  17.090  0.00  0.00    +0.000 C 
ATOM      8  C   UNL     1       3.969   2.705  18.171  0.00  0.00    +0.000 C 
ATOM      9  C   UNL     1       3.020   1.527  18.384  0.00  0.00    +0.000 C 
ATOM     10  C   UNL     1       1.624   1.827  18.936  0.00  0.00    +0.000 C 
ATOM     11  C   UNL     1       1.571   2.822  20.088  0.00  0.00    +0.000 C 
ENDROOT
BRANCH   5  12
ATOM     12  C   UNL     1       2.300   7.522  17.877  0.00  0.00    +0.000 C 
ATOM     13  O   UNL     1       1.426   8.336  17.566  0.00  0.00    +0.000 OA
ATOM     14  N   UNL     1       3.569   7.640  17.281  0.00  0.00    +0.000 N 
ATOM     15  H   UNL     1       3.702   8.485  16.733  0.00  0.00    +0.000 HD
BRANCH  14  16
ATOM     16  N   UNL     1       4.700   7.075  17.875  0.00  0.00    +0.000 N 
ATOM     17  H   UNL     1       5.120   7.607  18.638  0.00  0.00    +0.000 HD
BRANCH  16  18
ATOM     18  C   UNL     1       5.583   6.264  17.143  0.00  0.00    +0.000 A 
ATOM     19  C   UNL     1       6.523   5.521  17.880  0.00  0.00    +0.000 A 
ATOM     20  C   UNL     1       7.396   4.621  17.258  0.00  0.00    +0.000 A 
ATOM     21  C   UNL     1       7.329   4.436  15.885  0.00  0.00    +0.000 A 
ATOM     22  C   UNL     1       6.379   5.130  15.142  0.00  0.00    +0.000 A 
ATOM     23  C   UNL     1       5.497   6.025  15.768  0.00  0.00    +0.000 A 
ENDBRANCH  16  18
ENDBRANCH  14  16
ENDBRANCH   5  12
BRANCH   1  24
ATOM     24  N   UNL     1       2.174   7.882  20.904  0.00  0.00    +0.000 N 
ATOM     25  H   UNL     1       3.113   8.120  21.209  0.00  0.00    +0.000 HD
ATOM     26  H   UNL     1       1.467   8.132  21.601  0.00  0.00    +0.000 HD
ENDBRANCH   1  24
TORSDOF 4
ENDMDL
MODEL 9
REMARK VINA RESULT:      -7.0      1.573      2.456
REMARK  Name = 
REMARK  4 active torsions:
REMARK  status: ('A' for Active; 'I' for Inactive)
REMARK    1  A    between atoms: N_1  and  C_2
REMARK    2  A    between atoms: C_6  and  C_7
REMARK    3  A    between atoms: N_9  and  N_10
REMARK    4  A    between atoms: N_10  and  C_11
REMARK                            x       y       z     vdW  Elec       q    Type
REMARK                         _______ _______ _______ _____ _____    ______ ____
ROOT
ATOM      1  C   UNL     1       5.919   4.421  18.649  0.00  0.00    +0.000 A 
ATOM      2  S   UNL     1       5.433   3.382  19.894  0.00  0.00    +0.000 S 
ATOM      3  C   UNL     1       3.788   3.849  19.771  0.00  0.00    +0.000 A 
ATOM      4  C   UNL     1       3.615   4.859  18.825  0.00  0.00    +0.000 A 
ATOM      5  C   UNL     1       4.900   5.255  18.219  0.00  0.00    +0.000 A 
ATOM      6  C   UNL     1       2.280   5.460  18.454  0.00  0.00    +0.000 C 
ATOM      7  C   UNL     1       1.421   4.552  17.570  0.00  0.00    +0.000 C 
ATOM      8  C   UNL     1       1.213   3.112  18.045  0.00  0.00    +0.000 C 
ATOM      9  C   UNL     1       0.570   2.950  19.421  0.00  0.00    +0.000 C 
ATOM     10  C   UNL     1       1.362   3.431  20.640  0.00  0.00    +0.000 C 
ATOM     11  C   UNL     1       2.841   3.064  20.651  0.00  0.00    +0.000 C 
ENDROOT
BRANCH   5  12
ATOM     12  C   UNL     1       5.091   6.330  17.219  0.00  0.00    +0.000 C 
ATOM     13  O   UNL     1       5.352   7.494  17.537  0.00  0.00    +0.000 OA
ATOM     14  N   UNL     1       5.022   6.008  15.851  0.00  0.00    +0.000 N 
ATOM     15  H   UNL     1       5.331   6.747  15.226  0.00  0.00    +0.000 HD
BRANCH  14  16
ATOM     16  N   UNL     1       5.172   4.691  15.411  0.00  0.00    +0.000 N 
ATOM     17  H   UNL     1       5.339   3.992  16.135  0.00  0.00    +0.000 HD
BRANCH  16  18
ATOM     18  C   UNL     1       5.715   4.398  14.148  0.00  0.00    +0.000 A 
ATOM     19  C   UNL     1       6.978   4.943  13.857  0.00  0.00    +0.000 A 
ATOM     20  C   UNL     1       7.645   4.650  12.662  0.00  0.00    +0.000 A 
ATOM     21  C   UNL     1       7.064   3.787  11.745  0.00  0.00    +0.000 A 
ATOM     22  C   UNL     1       5.832   3.204  12.032  0.00  0.00    +0.000 A 
ATOM     23  C   UNL     1       5.169   3.492  13.234  0.00  0.00    +0.000 A 
ENDBRANCH  16  18
ENDBRANCH  14  16
ENDBRANCH   5  12
BRANCH   1  24
ATOM     24  N   UNL     1       7.203   4.370  18.223  0.00  0.00    +0.000 N 
ATOM     25  H   UNL     1       7.875   3.877  18.804  0.00  0.00    +0.000 HD
ATOM     26  H   UNL     1       7.595   5.228  17.824  0.00  0.00    +0.000 HD
ENDBRANCH   1  24
TORSDOF 4
ENDMDL
