MODEL 1
REMARK VINA RESULT:      -8.9      0.000      0.000
REMARK  Name = 
REMARK  5 active torsions:
REMARK  status: ('A' for Active; 'I' for Inactive)
REMARK    1  A    between atoms: C_2  and  C_3
REMARK    2  A    between atoms: C_6  and  N_7
REMARK    3  A    between atoms: C_8  and  C_10
REMARK    4  A    between atoms: C_10  and  N_11
REMARK    5  A    between atoms: C_14  and  N_15
REMARK                            x       y       z     vdW  Elec       q    Type
REMARK                         _______ _______ _______ _____ _____    ______ ____
ROOT
ATOM      1  N   UNL     1       7.034   6.169  17.726  0.00  0.00    +0.000 NA
ATOM      2  C   UNL     1       6.475   4.924  18.331  0.00  0.00    +0.000 C 
ATOM      3  C   UNL     1       5.339   4.317  17.489  0.00  0.00    +0.000 C 
ATOM      4  C   UNL     1       4.229   5.318  17.088  0.00  0.00    +0.000 C 
ATOM      5  C   UNL     1       4.912   6.511  16.396  0.00  0.00    +0.000 C 
ATOM      6  C   UNL     1       6.030   7.154  17.224  0.00  0.00    +0.000 C 
ENDROOT
BRANCH   4   7
ATOM      7  N   UNL     1       3.207   5.615  18.150  0.00  0.00    +0.000 N 
ATOM      8  C   UNL     1       2.825   6.903  18.495  0.00  0.00    +0.000 C 
ATOM      9  O   UNL     1       3.168   7.870  17.856  0.00  0.00    +0.000 OA
ATOM     10  O   UNL     1       2.082   7.162  19.591  0.00  0.00    +0.000 OA
ATOM     11  C   UNL     1       1.614   6.259  20.510  0.00  0.00    +0.000 C 
ATOM     12  C   UNL     1       1.861   4.849  20.100  0.00  0.00    +0.000 A 
ATOM     13  C   UNL     1       1.295   3.842  20.895  0.00  0.00    +0.000 A 
ATOM     14  C   UNL     1       1.427   2.508  20.543  0.00  0.00    +0.000 A 
ATOM     15  C   UNL     1       2.122   2.166  19.390  0.00  0.00    +0.000 A 
ATOM     16  C   UNL     1       2.713   3.156  18.595  0.00  0.00    +0.000 A 
ATOM     17  C   UNL     1       2.610   4.539  18.936  0.00  0.00    +0.000 A 
ENDBRANCH   4   7
BRANCH   1  18
ATOM     18  C   UNL     1       7.939   6.870  18.671  0.00  0.00    +0.000 C 
BRANCH  18  20
ATOM     19  N   UNL     1       8.835   9.160  19.066  0.00  0.00    +0.000 N 
ATOM     20  C   UNL     1       8.371   8.232  18.186  0.00  0.00    +0.000 C 
ATOM     21  O   UNL     1       8.255   8.501  16.997  0.00  0.00    +0.000 OA
ATOM     22  H   UNL     1       8.782   8.946  20.073  0.00  0.00    +0.000 HD
BRANCH  19  26
ATOM     23  C   UNL     1      10.028  13.082  18.005  0.00  0.00    +0.000 A 
ATOM     24  C   UNL     1      10.890  12.236  18.713  0.00  0.00    +0.000 A 
ATOM     25  C   UNL     1      10.495  10.935  19.027  0.00  0.00    +0.000 A 
ATOM     26  C   UNL     1       9.221  10.474  18.674  0.00  0.00    +0.000 A 
ATOM     27  C   UNL     1       8.356  11.323  17.955  0.00  0.00    +0.000 A 
ATOM     28  C   UNL     1       8.766  12.618  17.610  0.00  0.00    +0.000 A 
BRANCH  23  30
ATOM     29  N   UNL     1      10.756  15.512  17.450  0.00  0.00    +0.000 NA
ATOM     30  C   UNL     1      10.437  14.428  17.696  0.00  0.00    +0.000 C 
ENDBRANCH  23  30
ENDBRANCH  19  26
ENDBRANCH  18  20
ENDBRANCH   1  18
TORSDOF 5
ENDMDL
MODEL 2
REMARK VINA RESULT:      -8.5      1.781      2.429
REMARK  Name = 
REMARK  5 active torsions:
REMARK  status: ('A' for Active; 'I' for Inactive)
REMARK    1  A    between atoms: C_2  and  C_3
REMARK    2  A    between atoms: C_6  and  N_7
REMARK    3  A    between atoms: C_8  and  C_10
REMARK    4  A    between atoms: C_10  and  N_11
REMARK    5  A    between atoms: C_14  and  N_15
REMARK                            x       y       z     vdW  Elec       q    Type
REMARK                         _______ _______ _______ _____ _____    ______ ____
ROOT
ATOM      1  N   UNL     1       6.969   6.224  17.326  0.00  0.00    +0.000 NA
ATOM      2  C   UNL     1       6.977   4.734  17.235  0.00  0.00    +0.000 C 
ATOM      3  C   UNL     1       5.844   4.192  16.345  0.00  0.00    +0.000 C 
ATOM      4  C   UNL     1       4.440   4.746  16.682  0.00  0.00    +0.000 C 
ATOM      5  C   UNL     1       4.532   6.283  16.658  0.00  0.00    +0.000 C 
ATOM      6  C   UNL     1       5.634   6.854  17.557  0.00  0.00    +0.000 C 
ENDROOT
BRANCH   4   7
ATOM      7  N   UNL     1       3.751   4.103  17.853  0.00  0.00    +0.000 N 
ATOM      8  C   UNL     1       3.733   2.732  18.062  0.00  0.00    +0.000 C 
ATOM      9  O   UNL     1       4.404   1.971  17.405  0.00  0.00    +0.000 OA
ATOM     10  O   UNL     1       2.932   2.157  18.982  0.00  0.00    +0.000 OA
ATOM     11  C   UNL     1       2.038   2.782  19.813  0.00  0.00    +0.000 C 
ATOM     12  C   UNL     1       2.135   4.266  19.741  0.00  0.00    +0.000 A 
ATOM     13  C   UNL     1       1.368   5.004  20.654  0.00  0.00    +0.000 A 
ATOM     14  C   UNL     1       1.453   6.387  20.690  0.00  0.00    +0.000 A 
ATOM     15  C   UNL     1       2.308   7.048  19.818  0.00  0.00    +0.000 A 
ATOM     16  C   UNL     1       3.065   6.330  18.883  0.00  0.00    +0.000 A 
ATOM     17  C   UNL     1       2.991   4.905  18.807  0.00  0.00    +0.000 A 
ENDBRANCH   4   7
BRANCH   1  18
ATOM     18  C   UNL     1       7.897   6.706  18.381  0.00  0.00    +0.000 C 
BRANCH  18  20
ATOM     19  N   UNL     1       8.960   8.795  19.221  0.00  0.00    +0.000 N 
ATOM     20  C   UNL     1       8.245   8.168  18.248  0.00  0.00    +0.000 C 
ATOM     21  O   UNL     1       7.836   8.787  17.274  0.00  0.00    +0.000 OA
ATOM     22  H   UNL     1       9.162   8.276  20.089  0.00  0.00    +0.000 HD
BRANCH  19  26
ATOM     23  C   UNL     1       9.845  12.935  19.140  0.00  0.00    +0.000 A 
ATOM     24  C   UNL     1       9.546  12.288  20.345  0.00  0.00    +0.000 A 
ATOM     25  C   UNL     1       9.288  10.917  20.360  0.00  0.00    +0.000 A 
ATOM     26  C   UNL     1       9.287  10.181  19.170  0.00  0.00    +0.000 A 
ATOM     27  C   UNL     1       9.595  10.831  17.957  0.00  0.00    +0.000 A 
ATOM     28  C   UNL     1       9.887  12.201  17.947  0.00  0.00    +0.000 A 
BRANCH  23  30
ATOM     29  N   UNL     1      10.304  15.491  19.130  0.00  0.00    +0.000 NA
ATOM     30  C   UNL     1      10.097  14.353  19.129  0.00  0.00    +0.000 C 
ENDBRANCH  23  30
ENDBRANCH  19  26
ENDBRANCH  18  20
ENDBRANCH   1  18
TORSDOF 5
ENDMDL
MODEL 3
REMARK VINA RESULT:      -8.4      1.961      2.294
REMARK  Name = 
REMARK  5 active torsions:
REMARK  status: ('A' for Active; 'I' for Inactive)
REMARK    1  A    between atoms: C_2  and  C_3
REMARK    2  A    between atoms: C_6  and  N_7
REMARK    3  A    between atoms: C_8  and  C_10
REMARK    4  A    between atoms: C_10  and  N_11
REMARK    5  A    between atoms: C_14  and  N_15
REMARK                            x       y       z     vdW  Elec       q    Type
REMARK                         _______ _______ _______ _____ _____    ______ ____
ROOT
ATOM      1  N   UNL     1       7.011   7.224  17.283  0.00  0.00    +0.000 NA
ATOM      2  C   UNL     1       7.237   5.808  16.869  0.00  0.00    +0.000 C 
ATOM      3  C   UNL     1       6.009   5.193  16.174  0.00  0.00    +0.000 C 
ATOM      4  C   UNL     1       4.679   5.369  16.943  0.00  0.00    +0.000 C 
ATOM      5  C   UNL     1       4.508   6.871  17.234  0.00  0.00    +0.000 C 
ATOM      6  C   UNL     1       5.706   7.505  17.952  0.00  0.00    +0.000 C 
ENDROOT
BRANCH   4   7
ATOM      7  N   UNL     1       4.450   4.406  18.075  0.00  0.00    +0.000 N 
ATOM      8  C   UNL     1       5.462   3.980  18.924  0.00  0.00    +0.000 C 
ATOM      9  O   UNL     1       6.564   4.476  18.913  0.00  0.00    +0.000 OA
ATOM     10  O   UNL     1       5.292   2.956  19.784  0.00  0.00    +0.000 OA
ATOM     11  C   UNL     1       4.167   2.190  19.954  0.00  0.00    +0.000 C 
ATOM     12  C   UNL     1       3.004   2.708  19.183  0.00  0.00    +0.000 A 
ATOM     13  C   UNL     1       1.766   2.086  19.397  0.00  0.00    +0.000 A 
ATOM     14  C   UNL     1       0.624   2.552  18.763  0.00  0.00    +0.000 A 
ATOM     15  C   UNL     1       0.707   3.647  17.912  0.00  0.00    +0.000 A 
ATOM     16  C   UNL     1       1.939   4.267  17.669  0.00  0.00    +0.000 A 
ATOM     17  C   UNL     1       3.139   3.804  18.292  0.00  0.00    +0.000 A 
ENDBRANCH   4   7
BRANCH   1  18
ATOM     18  C   UNL     1       8.100   7.709  18.169  0.00  0.00    +0.000 C 
BRANCH  18  20
ATOM     19  N   UNL     1       9.390   9.767  18.717  0.00  0.00    +0.000 N 
ATOM     20  C   UNL     1       8.364   9.188  18.035  0.00  0.00    +0.000 C 
ATOM     21  O   UNL     1       7.615   9.863  17.341  0.00  0.00    +0.000 OA
ATOM     22  H   UNL     1       9.907   9.193  19.400  0.00  0.00    +0.000 HD
BRANCH  19  26
ATOM     23  C   UNL     1      10.325  13.893  18.540  0.00  0.00    +0.000 A 
ATOM     24  C   UNL     1      10.911  12.985  17.649  0.00  0.00    +0.000 A 
ATOM     25  C   UNL     1      10.568  11.633  17.699  0.00  0.00    +0.000 A 
ATOM     26  C   UNL     1       9.667  11.163  18.661  0.00  0.00    +0.000 A 
ATOM     27  C   UNL     1       9.071  12.078  19.553  0.00  0.00    +0.000 A 
ATOM     28  C   UNL     1       9.390  13.441  19.481  0.00  0.00    +0.000 A 
BRANCH  23  30
ATOM     29  N   UNL     1      10.994  16.400  18.446  0.00  0.00    +0.000 NA
ATOM     30  C   UNL     1      10.692  15.285  18.492  0.00  0.00    +0.000 C 
ENDBRANCH  23  30
ENDBRANCH  19  26
ENDBRANCH  18  20
ENDBRANCH   1  18
TORSDOF 5
ENDMDL
MODEL 4
REMARK VINA RESULT:      -8.1      2.017      2.638
REMARK  Name = 
REMARK  5 active torsions:
REMARK  status: ('A' for Active; 'I' for Inactive)
REMARK    1  A    between atoms: C_2  and  C_3
REMARK    2  A    between atoms: C_6  and  N_7
REMARK    3  A    between atoms: C_8  and  C_10
REMARK    4  A    between atoms: C_10  and  N_11
REMARK    5  A    between atoms: C_14  and  N_15
REMARK                            x       y       z     vdW  Elec       q    Type
REMARK                         _______ _______ _______ _____ _____    ______ ____
ROOT
ATOM      1  N   UNL     1       6.648   7.285  17.157  0.00  0.00    +0.000 NA
ATOM      2  C   UNL     1       6.696   6.068  16.294  0.00  0.00    +0.000 C 
ATOM      3  C   UNL     1       5.343   5.763  15.627  0.00  0.00    +0.000 C 
ATOM      4  C   UNL     1       4.138   5.741  16.597  0.00  0.00    +0.000 C 
ATOM      5  C   UNL     1       4.137   7.077  17.363  0.00  0.00    +0.000 C 
ATOM      6  C   UNL     1       5.464   7.393  18.062  0.00  0.00    +0.000 C 
ENDROOT
BRANCH   4   7
ATOM      7  N   UNL     1       3.966   4.477  17.392  0.00  0.00    +0.000 N 
ATOM      8  C   UNL     1       4.552   3.271  17.033  0.00  0.00    +0.000 C 
ATOM      9  O   UNL     1       5.369   3.189  16.146  0.00  0.00    +0.000 OA
ATOM     10  O   UNL     1       4.212   2.106  17.622  0.00  0.00    +0.000 OA
ATOM     11  C   UNL     1       3.278   1.913  18.607  0.00  0.00    +0.000 C 
ATOM     12  C   UNL     1       2.737   3.195  19.138  0.00  0.00    +0.000 A 
ATOM     13  C   UNL     1       1.884   3.119  20.247  0.00  0.00    +0.000 A 
ATOM     14  C   UNL     1       1.390   4.273  20.837  0.00  0.00    +0.000 A 
ATOM     15  C   UNL     1       1.749   5.514  20.328  0.00  0.00    +0.000 A 
ATOM     16  C   UNL     1       2.584   5.609  19.207  0.00  0.00    +0.000 A 
ATOM     17  C   UNL     1       3.098   4.442  18.564  0.00  0.00    +0.000 A 
ENDBRANCH   4   7
BRANCH   1  18
ATOM     18  C   UNL     1       7.875   7.411  17.984  0.00  0.00    +0.000 C 
BRANCH  18  20
ATOM     19  N   UNL     1       9.145   9.151  19.234  0.00  0.00    +0.000 N 
ATOM     20  C   UNL     1       8.291   8.841  18.220  0.00  0.00    +0.000 C 
ATOM     21  O   UNL     1       7.815   9.721  17.514  0.00  0.00    +0.000 OA
ATOM     22  H   UNL     1       9.410   8.403  19.893  0.00  0.00    +0.000 HD
BRANCH  19  26
ATOM     23  C   UNL     1      10.436  13.097  20.065  0.00  0.00    +0.000 A 
ATOM     24  C   UNL     1      10.667  12.514  18.813  0.00  0.00    +0.000 A 
ATOM     25  C   UNL     1      10.207  11.224  18.542  0.00  0.00    +0.000 A 
ATOM     26  C   UNL     1       9.545  10.485  19.530  0.00  0.00    +0.000 A 
ATOM     27  C   UNL     1       9.306  11.075  20.788  0.00  0.00    +0.000 A 
ATOM     28  C   UNL     1       9.738  12.382  21.047  0.00  0.00    +0.000 A 
BRANCH  23  30
ATOM     29  N   UNL     1      11.309  15.492  20.561  0.00  0.00    +0.000 NA
ATOM     30  C   UNL     1      10.925  14.423  20.341  0.00  0.00    +0.000 C 
ENDBRANCH  23  30
ENDBRANCH  19  26
ENDBRANCH  18  20
ENDBRANCH   1  18
TORSDOF 5
ENDMDL
MODEL 5
REMARK VINA RESULT:      -8.1      4.897      8.458
REMARK  Name = 
REMARK  5 active torsions:
REMARK  status: ('A' for Active; 'I' for Inactive)
REMARK    1  A    between atoms: C_2  and  C_3
REMARK    2  A    between atoms: C_6  and  N_7
REMARK    3  A    between atoms: C_8  and  C_10
REMARK    4  A    between atoms: C_10  and  N_11
REMARK    5  A    between atoms: C_14  and  N_15
REMARK                            x       y       z     vdW  Elec       q    Type
REMARK                         _______ _______ _______ _____ _____    ______ ____
ROOT
ATOM      1  N   UNL     1       1.575   6.852  19.893  0.00  0.00    +0.000 NA
ATOM      2  C   UNL     1       2.304   7.431  18.726  0.00  0.00    +0.000 C 
ATOM      3  C   UNL     1       2.391   6.453  17.541  0.00  0.00    +0.000 C 
ATOM      4  C   UNL     1       2.907   5.042  17.907  0.00  0.00    +0.000 C 
ATOM      5  C   UNL     1       2.027   4.511  19.053  0.00  0.00    +0.000 C 
ATOM      6  C   UNL     1       1.944   5.452  20.261  0.00  0.00    +0.000 C 
ENDROOT
BRANCH   4   7
ATOM      7  N   UNL     1       4.398   4.913  18.050  0.00  0.00    +0.000 N 
ATOM      8  C   UNL     1       5.050   4.973  19.274  0.00  0.00    +0.000 C 
ATOM      9  O   UNL     1       4.451   4.975  20.324  0.00  0.00    +0.000 OA
ATOM     10  O   UNL     1       6.391   5.080  19.367  0.00  0.00    +0.000 OA
ATOM     11  C   UNL     1       7.293   5.157  18.337  0.00  0.00    +0.000 C 
ATOM     12  C   UNL     1       6.660   4.935  17.008  0.00  0.00    +0.000 A 
ATOM     13  C   UNL     1       7.513   4.848  15.899  0.00  0.00    +0.000 A 
ATOM     14  C   UNL     1       7.004   4.580  14.638  0.00  0.00    +0.000 A 
ATOM     15  C   UNL     1       5.638   4.391  14.472  0.00  0.00    +0.000 A 
ATOM     16  C   UNL     1       4.767   4.496  15.565  0.00  0.00    +0.000 A 
ATOM     17  C   UNL     1       5.255   4.787  16.876  0.00  0.00    +0.000 A 
ENDBRANCH   4   7
BRANCH   1  18
ATOM     18  C   UNL     1       1.725   7.703  21.101  0.00  0.00    +0.000 C 
BRANCH  18  20
ATOM     19  N   UNL     1       0.655   9.931  21.403  0.00  0.00    +0.000 N 
ATOM     20  C   UNL     1       0.525   8.577  21.368  0.00  0.00    +0.000 C 
ATOM     21  O   UNL     1      -0.555   8.047  21.598  0.00  0.00    +0.000 OA
ATOM     22  H   UNL     1       1.605  10.331  21.347  0.00  0.00    +0.000 HD
BRANCH  19  26
ATOM     23  C   UNL     1      -2.624  12.452  22.310  0.00  0.00    +0.000 A 
ATOM     24  C   UNL     1      -2.015  11.678  23.306  0.00  0.00    +0.000 A 
ATOM     25  C   UNL     1      -0.915  10.877  22.999  0.00  0.00    +0.000 A 
ATOM     26  C   UNL     1      -0.431  10.807  21.687  0.00  0.00    +0.000 A 
ATOM     27  C   UNL     1      -1.039  11.592  20.686  0.00  0.00    +0.000 A 
ATOM     28  C   UNL     1      -2.123  12.421  21.002  0.00  0.00    +0.000 A 
BRANCH  23  30
ATOM     29  N   UNL     1      -4.687  13.922  22.880  0.00  0.00    +0.000 NA
ATOM     30  C   UNL     1      -3.767  13.266  22.632  0.00  0.00    +0.000 C 
ENDBRANCH  23  30
ENDBRANCH  19  26
ENDBRANCH  18  20
ENDBRANCH   1  18
TORSDOF 5
ENDMDL
MODEL 6
REMARK VINA RESULT:      -8.1      4.725      7.524
REMARK  Name = 
REMARK  5 active torsions:
REMARK  status: ('A' for Active; 'I' for Inactive)
REMARK    1  A    between atoms: C_2  and  C_3
REMARK    2  A    between atoms: C_6  and  N_7
REMARK    3  A    between atoms: C_8  and  C_10
REMARK    4  A    between atoms: C_10  and  N_11
REMARK    5  A    between atoms: C_14  and  N_15
REMARK                            x       y       z     vdW  Elec       q    Type
REMARK                         _______ _______ _______ _____ _____    ______ ____
ROOT
ATOM      1  N   UNL     1       2.374   3.758  19.767  0.00  0.00    +0.000 NA
ATOM      2  C   UNL     1       2.317   4.611  18.543  0.00  0.00    +0.000 C 
ATOM      3  C   UNL     1       2.719   3.845  17.270  0.00  0.00    +0.000 C 
ATOM      4  C   UNL     1       4.055   3.073  17.379  0.00  0.00    +0.000 C 
ATOM      5  C   UNL     1       3.963   2.163  18.618  0.00  0.00    +0.000 C 
ATOM      6  C   UNL     1       3.592   2.905  19.907  0.00  0.00    +0.000 C 
ENDROOT
BRANCH   4   7
ATOM      7  N   UNL     1       5.299   3.899  17.206  0.00  0.00    +0.000 N 
ATOM      8  C   UNL     1       5.948   4.522  18.263  0.00  0.00    +0.000 C 
ATOM      9  O   UNL     1       5.650   4.313  19.415  0.00  0.00    +0.000 OA
ATOM     10  O   UNL     1       6.922   5.434  18.068  0.00  0.00    +0.000 OA
ATOM     11  C   UNL     1       7.405   5.892  16.870  0.00  0.00    +0.000 C 
ATOM     12  C   UNL     1       6.855   5.139  15.709  0.00  0.00    +0.000 A 
ATOM     13  C   UNL     1       7.392   5.428  14.447  0.00  0.00    +0.000 A 
ATOM     14  C   UNL     1       6.976   4.725  13.326  0.00  0.00    +0.000 A 
ATOM     15  C   UNL     1       6.023   3.723  13.457  0.00  0.00    +0.000 A 
ATOM     16  C   UNL     1       5.460   3.435  14.707  0.00  0.00    +0.000 A 
ATOM     17  C   UNL     1       5.852   4.150  15.880  0.00  0.00    +0.000 A 
ENDBRANCH   4   7
BRANCH   1  18
ATOM     18  C   UNL     1       2.235   4.573  21.001  0.00  0.00    +0.000 C 
BRANCH  18  20
ATOM     19  N   UNL     1       2.091   7.053  20.822  0.00  0.00    +0.000 N 
ATOM     20  C   UNL     1       1.458   5.849  20.789  0.00  0.00    +0.000 C 
ATOM     21  O   UNL     1       0.245   5.784  20.633  0.00  0.00    +0.000 OA
ATOM     22  H   UNL     1       3.084   7.074  21.098  0.00  0.00    +0.000 HD
BRANCH  19  26
ATOM     23  C   UNL     1      -0.030  10.696  20.425  0.00  0.00    +0.000 A 
ATOM     24  C   UNL     1       0.078  10.060  21.668  0.00  0.00    +0.000 A 
ATOM     25  C   UNL     1       0.808   8.876  21.790  0.00  0.00    +0.000 A 
ATOM     26  C   UNL     1       1.406   8.292  20.667  0.00  0.00    +0.000 A 
ATOM     27  C   UNL     1       1.303   8.937  19.417  0.00  0.00    +0.000 A 
ATOM     28  C   UNL     1       0.599  10.143  19.303  0.00  0.00    +0.000 A 
BRANCH  23  30
ATOM     29  N   UNL     1      -1.402  12.891  20.210  0.00  0.00    +0.000 NA
ATOM     30  C   UNL     1      -0.795  11.910  20.305  0.00  0.00    +0.000 C 
ENDBRANCH  23  30
ENDBRANCH  19  26
ENDBRANCH  18  20
ENDBRANCH   1  18
TORSDOF 5
ENDMDL
MODEL 7
REMARK VINA RESULT:      -8.1      4.575      7.238
REMARK  Name = 
REMARK  5 active torsions:
REMARK  status: ('A' for Active; 'I' for Inactive)
REMARK    1  A    between atoms: C_2  and  C_3
REMARK    2  A    between atoms: C_6  and  N_7
REMARK    3  A    between atoms: C_8  and  C_10
REMARK    4  A    between atoms: C_10  and  N_11
REMARK    5  A    between atoms: C_14  and  N_15
REMARK                            x       y       z     vdW  Elec       q    Type
REMARK                         _______ _______ _______ _____ _____    ______ ____
ROOT
ATOM      1  N   UNL     1       2.349   3.396  19.757  0.00  0.00    +0.000 NA
ATOM      2  C   UNL     1       2.237   4.244  18.534  0.00  0.00    +0.000 C 
ATOM      3  C   UNL     1       2.732   3.522  17.268  0.00  0.00    +0.000 C 
ATOM      4  C   UNL     1       4.131   2.875  17.401  0.00  0.00    +0.000 C 
ATOM      5  C   UNL     1       4.099   1.957  18.637  0.00  0.00    +0.000 C 
ATOM      6  C   UNL     1       3.637   2.658  19.920  0.00  0.00    +0.000 C 
ENDROOT
BRANCH   4   7
ATOM      7  N   UNL     1       5.297   3.813  17.253  0.00  0.00    +0.000 N 
ATOM      8  C   UNL     1       5.862   4.493  18.323  0.00  0.00    +0.000 C 
ATOM      9  O   UNL     1       5.560   4.258  19.469  0.00  0.00    +0.000 OA
ATOM     10  O   UNL     1       6.752   5.491  18.147  0.00  0.00    +0.000 OA
ATOM     11  C   UNL     1       7.218   5.991  16.959  0.00  0.00    +0.000 C 
ATOM     12  C   UNL     1       6.765   5.190  15.788  0.00  0.00    +0.000 A 
ATOM     13  C   UNL     1       7.301   5.526  14.537  0.00  0.00    +0.000 A 
ATOM     14  C   UNL     1       6.976   4.787  13.410  0.00  0.00    +0.000 A 
ATOM     15  C   UNL     1       6.117   3.701  13.522  0.00  0.00    +0.000 A 
ATOM     16  C   UNL     1       5.555   3.364  14.759  0.00  0.00    +0.000 A 
ATOM     17  C   UNL     1       5.854   4.113  15.939  0.00  0.00    +0.000 A 
ENDBRANCH   4   7
BRANCH   1  18
ATOM     18  C   UNL     1       2.113   4.191  20.989  0.00  0.00    +0.000 C 
BRANCH  18  20
ATOM     19  N   UNL     1       2.284   6.640  20.570  0.00  0.00    +0.000 N 
ATOM     20  C   UNL     1       1.495   5.541  20.720  0.00  0.00    +0.000 C 
ATOM     21  O   UNL     1       0.275   5.637  20.683  0.00  0.00    +0.000 OA
ATOM     22  H   UNL     1       3.294   6.543  20.750  0.00  0.00    +0.000 HD
BRANCH  19  26
ATOM     23  C   UNL     1       0.814  10.546  19.853  0.00  0.00    +0.000 A 
ATOM     24  C   UNL     1       1.321   9.766  18.806  0.00  0.00    +0.000 A 
ATOM     25  C   UNL     1       1.771   8.468  19.052  0.00  0.00    +0.000 A 
ATOM     26  C   UNL     1       1.759   7.946  20.351  0.00  0.00    +0.000 A 
ATOM     27  C   UNL     1       1.242   8.728  21.404  0.00  0.00    +0.000 A 
ATOM     28  C   UNL     1       0.758  10.019  21.150  0.00  0.00    +0.000 A 
BRANCH  23  30
ATOM     29  N   UNL     1       0.001  12.970  19.396  0.00  0.00    +0.000 NA
ATOM     30  C   UNL     1       0.362  11.889  19.595  0.00  0.00    +0.000 C 
ENDBRANCH  23  30
ENDBRANCH  19  26
ENDBRANCH  18  20
ENDBRANCH   1  18
TORSDOF 5
ENDMDL
MODEL 8
REMARK VINA RESULT:      -8.0      6.139      9.905
REMARK  Name = 
REMARK  5 active torsions:
REMARK  status: ('A' for Active; 'I' for Inactive)
REMARK    1  A    between atoms: C_2  and  C_3
REMARK    2  A    between atoms: C_6  and  N_7
REMARK    3  A    between atoms: C_8  and  C_10
REMARK    4  A    between atoms: C_10  and  N_11
REMARK    5  A    between atoms: C_14  and  N_15
REMARK                            x       y       z     vdW  Elec       q    Type
REMARK                         _______ _______ _______ _____ _____    ______ ____
ROOT
ATOM      1  N   UNL     1      -0.115  11.019  22.415  0.00  0.00    +0.000 NA
ATOM      2  C   UNL     1      -0.021  11.018  20.925  0.00  0.00    +0.000 C 
ATOM      3  C   UNL     1      -0.203  12.422  20.321  0.00  0.00    +0.000 C 
ATOM      4  C   UNL     1      -1.452  13.182  20.825  0.00  0.00    +0.000 C 
ATOM      5  C   UNL     1      -1.394  13.199  22.363  0.00  0.00    +0.000 C 
ATOM      6  C   UNL     1      -1.242  11.810  22.994  0.00  0.00    +0.000 C 
ENDROOT
BRANCH   4   7
ATOM      7  N   UNL     1      -2.753  12.797  20.176  0.00  0.00    +0.000 N 
ATOM      8  C   UNL     1      -3.991  13.165  20.683  0.00  0.00    +0.000 C 
ATOM      9  O   UNL     1      -4.107  13.954  21.591  0.00  0.00    +0.000 OA
ATOM     10  O   UNL     1      -5.141  12.630  20.225  0.00  0.00    +0.000 OA
ATOM     11  C   UNL     1      -5.285  11.679  19.248  0.00  0.00    +0.000 C 
ATOM     12  C   UNL     1      -4.000  11.369  18.562  0.00  0.00    +0.000 A 
ATOM     13  C   UNL     1      -4.058  10.517  17.450  0.00  0.00    +0.000 A 
ATOM     14  C   UNL     1      -2.914  10.231  16.721  0.00  0.00    +0.000 A 
ATOM     15  C   UNL     1      -1.701  10.798  17.093  0.00  0.00    +0.000 A 
ATOM     16  C   UNL     1      -1.620  11.634  18.213  0.00  0.00    +0.000 A 
ATOM     17  C   UNL     1      -2.775  11.937  18.997  0.00  0.00    +0.000 A 
ENDBRANCH   4   7
BRANCH   1  18
ATOM     18  C   UNL     1      -0.194   9.637  22.953  0.00  0.00    +0.000 C 
BRANCH  18  20
ATOM     19  N   UNL     1       1.388   8.306  21.565  0.00  0.00    +0.000 N 
ATOM     20  C   UNL     1       0.103   8.577  21.921  0.00  0.00    +0.000 C 
ATOM     21  O   UNL     1      -0.831   7.999  21.380  0.00  0.00    +0.000 OA
ATOM     22  H   UNL     1       2.135   8.912  21.937  0.00  0.00    +0.000 HD
BRANCH  19  26
ATOM     23  C   UNL     1       2.466   5.390  18.690  0.00  0.00    +0.000 A 
ATOM     24  C   UNL     1       2.055   5.014  19.975  0.00  0.00    +0.000 A 
ATOM     25  C   UNL     1       1.672   5.985  20.901  0.00  0.00    +0.000 A 
ATOM     26  C   UNL     1       1.730   7.345  20.571  0.00  0.00    +0.000 A 
ATOM     27  C   UNL     1       2.137   7.722  19.275  0.00  0.00    +0.000 A 
ATOM     28  C   UNL     1       2.490   6.745  18.335  0.00  0.00    +0.000 A 
BRANCH  23  30
ATOM     29  N   UNL     1       3.190   3.574  16.981  0.00  0.00    +0.000 NA
ATOM     30  C   UNL     1       2.873   4.384  17.744  0.00  0.00    +0.000 C 
ENDBRANCH  23  30
ENDBRANCH  19  26
ENDBRANCH  18  20
ENDBRANCH   1  18
TORSDOF 5
ENDMDL
MODEL 9
REMARK VINA RESULT:      -8.0      6.173      9.316
REMARK  Name = 
REMARK  5 active torsions:
REMARK  status: ('A' for Active; 'I' for Inactive)
REMARK    1  A    between atoms: C_2  and  C_3
REMARK    2  A    between atoms: C_6  and  N_7
REMARK    3  A    between atoms: C_8  and  C_10
REMARK    4  A    between atoms: C_10  and  N_11
REMARK    5  A    between atoms: C_14  and  N_15
REMARK                            x       y       z     vdW  Elec       q    Type
REMARK                         _______ _______ _______ _____ _____    ______ ____
ROOT
ATOM      1  N   UNL     1       0.525  10.588  18.914  0.00  0.00    +0.000 NA
ATOM      2  C   UNL     1      -0.939  10.687  19.185  0.00  0.00    +0.000 C 
ATOM      3  C   UNL     1      -1.519  12.061  18.801  0.00  0.00    +0.000 C 
ATOM      4  C   UNL     1      -0.739  13.270  19.369  0.00  0.00    +0.000 C 
ATOM      5  C   UNL     1       0.734  13.107  18.951  0.00  0.00    +0.000 C 
ATOM      6  C   UNL     1       1.347  11.758  19.346  0.00  0.00    +0.000 C 
ENDROOT
BRANCH   4   7
ATOM      7  N   UNL     1      -1.026  13.613  20.804  0.00  0.00    +0.000 N 
ATOM      8  C   UNL     1      -0.065  14.110  21.672  0.00  0.00    +0.000 C 
ATOM      9  O   UNL     1       1.030  14.453  21.293  0.00  0.00    +0.000 OA
ATOM     10  O   UNL     1      -0.276  14.201  23.001  0.00  0.00    +0.000 OA
ATOM     11  C   UNL     1      -1.401  13.829  23.691  0.00  0.00    +0.000 C 
ATOM     12  C   UNL     1      -2.520  13.439  22.790  0.00  0.00    +0.000 A 
ATOM     13  C   UNL     1      -3.762  13.180  23.385  0.00  0.00    +0.000 A 
ATOM     14  C   UNL     1      -4.867  12.873  22.607  0.00  0.00    +0.000 A 
ATOM     15  C   UNL     1      -4.743  12.826  21.224  0.00  0.00    +0.000 A 
ATOM     16  C   UNL     1      -3.506  13.060  20.612  0.00  0.00    +0.000 A 
ATOM     17  C   UNL     1      -2.342  13.364  21.384  0.00  0.00    +0.000 A 
ENDBRANCH   4   7
BRANCH   1  18
ATOM     18  C   UNL     1       1.106   9.364  19.523  0.00  0.00    +0.000 C 
BRANCH  18  20
ATOM     19  N   UNL     1       2.549   7.412  18.967  0.00  0.00    +0.000 N 
ATOM     20  C   UNL     1       1.886   8.523  18.543  0.00  0.00    +0.000 C 
ATOM     21  O   UNL     1       1.950   8.881  17.374  0.00  0.00    +0.000 OA
ATOM     22  H   UNL     1       2.589   7.225  19.980  0.00  0.00    +0.000 HD
BRANCH  19  26
ATOM     23  C   UNL     1       4.876   5.080  16.306  0.00  0.00    +0.000 A 
ATOM     24  C   UNL     1       5.162   6.435  16.512  0.00  0.00    +0.000 A 
ATOM     25  C   UNL     1       4.406   7.183  17.416  0.00  0.00    +0.000 A 
ATOM     26  C   UNL     1       3.332   6.599  18.098  0.00  0.00    +0.000 A 
ATOM     27  C   UNL     1       3.049   5.233  17.897  0.00  0.00    +0.000 A 
ATOM     28  C   UNL     1       3.829   4.475  17.014  0.00  0.00    +0.000 A 
BRANCH  23  30
ATOM     29  N   UNL     1       6.272   3.698  14.609  0.00  0.00    +0.000 NA
ATOM     30  C   UNL     1       5.651   4.318  15.362  0.00  0.00    +0.000 C 
ENDBRANCH  23  30
ENDBRANCH  19  26
ENDBRANCH  18  20
ENDBRANCH   1  18
TORSDOF 5
ENDMDL
