MODEL 1
REMARK VINA RESULT:      -9.3      0.000      0.000
REMARK  Name = 
REMARK  7 active torsions:
REMARK  status: ('A' for Active; 'I' for Inactive)
REMARK    1  A    between atoms: C_1  and  C_2
REMARK    2  A    between atoms: C_2  and  N_3
REMARK    3  A    between atoms: C_7  and  N_8
REMARK    4  A    between atoms: N_8  and  C_9
REMARK    5  A    between atoms: C_16  and  C_17
REMARK    6  A    between atoms: C_20  and  S_21
REMARK    7  A    between atoms: S_21  and  N_24
REMARK                            x       y       z     vdW  Elec       q    Type
REMARK                         _______ _______ _______ _____ _____    ______ ____
ROOT
ATOM      1  C   UNL     1       3.847   4.402  17.579  0.00  0.00    +0.000 A 
ATOM      2  C   UNL     1       4.176   3.045  17.509  0.00  0.00    +0.000 A 
ATOM      3  C   UNL     1       3.703   2.188  18.481  0.00  0.00    +0.000 A 
ATOM      4  N   UNL     1       2.946   2.583  19.520  0.00  0.00    +0.000 NA
ATOM      5  C   UNL     1       2.630   3.884  19.610  0.00  0.00    +0.000 A 
ATOM      6  C   UNL     1       1.883   4.296  20.706  0.00  0.00    +0.000 A 
ATOM      7  C   UNL     1       1.522   5.636  20.901  0.00  0.00    +0.000 A 
ATOM      8  C   UNL     1       1.898   6.616  19.979  0.00  0.00    +0.000 A 
ATOM      9  C   UNL     1       2.651   6.198  18.866  0.00  0.00    +0.000 A 
ATOM     10  C   UNL     1       3.038   4.847  18.661  0.00  0.00    +0.000 A 
ENDROOT
BRANCH   8  11
ATOM     11  C   UNL     1       1.581   8.047  20.168  0.00  0.00    +0.000 A 
ATOM     12  C   UNL     1       1.510   8.931  19.078  0.00  0.00    +0.000 A 
ATOM     13  C   UNL     1       1.094  10.261  19.242  0.00  0.00    +0.000 A 
ATOM     14  C   UNL     1       0.721  10.719  20.507  0.00  0.00    +0.000 A 
ATOM     15  C   UNL     1       0.866   9.886  21.618  0.00  0.00    +0.000 A 
ATOM     16  C   UNL     1       1.285   8.562  21.445  0.00  0.00    +0.000 A 
BRANCH  14  17
ATOM     17  S   UNL     1       0.180  12.404  20.729  0.00  0.00    +0.000 S 
ATOM     18  O   UNL     1       1.144  13.041  21.602  0.00  0.00    +0.000 OA
ATOM     19  O   UNL     1      -0.085  12.939  19.406  0.00  0.00    +0.000 OA
BRANCH  17  20
ATOM     20  N   UNL     1      -1.287  12.323  21.558  0.00  0.00    +0.000 NA
ATOM     21  C   UNL     1      -2.528  12.856  20.947  0.00  0.00    +0.000 C 
ATOM     22  C   UNL     1      -2.804  14.282  21.429  0.00  0.00    +0.000 C 
ATOM     23  O   UNL     1      -2.824  14.375  22.861  0.00  0.00    +0.000 OA
ATOM     24  C   UNL     1      -1.614  13.881  23.456  0.00  0.00    +0.000 C 
ATOM     25  C   UNL     1      -1.327  12.439  23.036  0.00  0.00    +0.000 C 
ENDBRANCH  17  20
ENDBRANCH  14  17
ENDBRANCH   8  11
BRANCH   1  26
ATOM     26  N   UNL     1       4.394   5.314  16.633  0.00  0.00    +0.000 N 
ATOM     27  H   UNL     1       3.927   6.215  16.623  0.00  0.00    +0.000 HD
BRANCH  26  32
ATOM     28  N   UNL     1       6.776   5.243  16.220  0.00  0.00    +0.000 N 
ATOM     29  N   UNL     1       7.669   4.932  15.255  0.00  0.00    +0.000 NA
ATOM     30  C   UNL     1       6.910   4.516  14.241  0.00  0.00    +0.000 A 
ATOM     31  C   UNL     1       5.542   4.569  14.543  0.00  0.00    +0.000 A 
ATOM     32  C   UNL     1       5.464   5.066  15.828  0.00  0.00    +0.000 A 
BRANCH  28  34
ATOM     33  C   UNL     1       7.377   7.270  17.482  0.00  0.00    +0.000 C 
ATOM     34  C   UNL     1       7.284   5.756  17.478  0.00  0.00    +0.000 C 
ENDBRANCH  28  34
ENDBRANCH  26  32
ENDBRANCH   1  26
TORSDOF 6
ENDMDL
MODEL 2
REMARK VINA RESULT:      -9.3      1.652      2.139
REMARK  Name = 
REMARK  7 active torsions:
REMARK  status: ('A' for Active; 'I' for Inactive)
REMARK    1  A    between atoms: C_1  and  C_2
REMARK    2  A    between atoms: C_2  and  N_3
REMARK    3  A    between atoms: C_7  and  N_8
REMARK    4  A    between atoms: N_8  and  C_9
REMARK    5  A    between atoms: C_16  and  C_17
REMARK    6  A    between atoms: C_20  and  S_21
REMARK    7  A    between atoms: S_21  and  N_24
REMARK                            x       y       z     vdW  Elec       q    Type
REMARK                         _______ _______ _______ _____ _____    ______ ____
ROOT
ATOM      1  C   UNL     1       3.881   4.547  17.627  0.00  0.00    +0.000 A 
ATOM      2  C   UNL     1       4.261   3.202  17.561  0.00  0.00    +0.000 A 
ATOM      3  C   UNL     1       3.849   2.338  18.553  0.00  0.00    +0.000 A 
ATOM      4  N   UNL     1       3.104   2.714  19.609  0.00  0.00    +0.000 NA
ATOM      5  C   UNL     1       2.739   4.002  19.694  0.00  0.00    +0.000 A 
ATOM      6  C   UNL     1       2.006   4.396  20.806  0.00  0.00    +0.000 A 
ATOM      7  C   UNL     1       1.598   5.722  20.999  0.00  0.00    +0.000 A 
ATOM      8  C   UNL     1       1.910   6.707  20.058  0.00  0.00    +0.000 A 
ATOM      9  C   UNL     1       2.650   6.307  18.929  0.00  0.00    +0.000 A 
ATOM     10  C   UNL     1       3.084   4.970  18.727  0.00  0.00    +0.000 A 
ENDROOT
BRANCH   8  11
ATOM     11  C   UNL     1       1.541   8.126  20.242  0.00  0.00    +0.000 A 
ATOM     12  C   UNL     1       1.471   9.011  19.153  0.00  0.00    +0.000 A 
ATOM     13  C   UNL     1       1.007  10.326  19.309  0.00  0.00    +0.000 A 
ATOM     14  C   UNL     1       0.587  10.767  20.565  0.00  0.00    +0.000 A 
ATOM     15  C   UNL     1       0.729   9.935  21.677  0.00  0.00    +0.000 A 
ATOM     16  C   UNL     1       1.196   8.627  21.512  0.00  0.00    +0.000 A 
BRANCH  14  17
ATOM     17  S   UNL     1      -0.015  12.433  20.778  0.00  0.00    +0.000 S 
ATOM     18  O   UNL     1      -1.414  12.423  20.404  0.00  0.00    +0.000 OA
ATOM     19  O   UNL     1       0.393  12.862  22.104  0.00  0.00    +0.000 OA
BRANCH  17  20
ATOM     20  N   UNL     1       0.811  13.380  19.652  0.00  0.00    +0.000 NA
ATOM     21  C   UNL     1       2.007  14.158  20.054  0.00  0.00    +0.000 C 
ATOM     22  C   UNL     1       1.629  15.606  20.382  0.00  0.00    +0.000 C 
ATOM     23  O   UNL     1       0.911  16.234  19.310  0.00  0.00    +0.000 OA
ATOM     24  C   UNL     1      -0.261  15.494  18.933  0.00  0.00    +0.000 C 
ATOM     25  C   UNL     1       0.080  14.053  18.551  0.00  0.00    +0.000 C 
ENDBRANCH  17  20
ENDBRANCH  14  17
ENDBRANCH   8  11
BRANCH   1  26
ATOM     26  N   UNL     1       4.366   5.470  16.658  0.00  0.00    +0.000 N 
ATOM     27  H   UNL     1       3.854   6.345  16.642  0.00  0.00    +0.000 HD
BRANCH  26  32
ATOM     28  N   UNL     1       6.744   5.467  16.222  0.00  0.00    +0.000 N 
ATOM     29  N   UNL     1       7.637   5.195  15.244  0.00  0.00    +0.000 NA
ATOM     30  C   UNL     1       6.878   4.777  14.230  0.00  0.00    +0.000 A 
ATOM     31  C   UNL     1       5.512   4.790  14.546  0.00  0.00    +0.000 A 
ATOM     32  C   UNL     1       5.434   5.263  15.840  0.00  0.00    +0.000 A 
BRANCH  28  34
ATOM     33  C   UNL     1       7.424   7.480  17.468  0.00  0.00    +0.000 C 
ATOM     34  C   UNL     1       7.252   5.972  17.484  0.00  0.00    +0.000 C 
ENDBRANCH  28  34
ENDBRANCH  26  32
ENDBRANCH   1  26
TORSDOF 6
ENDMDL
MODEL 3
REMARK VINA RESULT:      -9.1      1.941      2.632
REMARK  Name = 
REMARK  7 active torsions:
REMARK  status: ('A' for Active; 'I' for Inactive)
REMARK    1  A    between atoms: C_1  and  C_2
REMARK    2  A    between atoms: C_2  and  N_3
REMARK    3  A    between atoms: C_7  and  N_8
REMARK    4  A    between atoms: N_8  and  C_9
REMARK    5  A    between atoms: C_16  and  C_17
REMARK    6  A    between atoms: C_20  and  S_21
REMARK    7  A    between atoms: S_21  and  N_24
REMARK                            x       y       z     vdW  Elec       q    Type
REMARK                         _______ _______ _______ _____ _____    ______ ____
ROOT
ATOM      1  C   UNL     1       3.926   4.625  17.719  0.00  0.00    +0.000 A 
ATOM      2  C   UNL     1       4.336   3.288  17.723  0.00  0.00    +0.000 A 
ATOM      3  C   UNL     1       3.912   2.458  18.740  0.00  0.00    +0.000 A 
ATOM      4  N   UNL     1       3.128   2.862  19.755  0.00  0.00    +0.000 NA
ATOM      5  C   UNL     1       2.734   4.145  19.773  0.00  0.00    +0.000 A 
ATOM      6  C   UNL     1       1.959   4.570  20.845  0.00  0.00    +0.000 A 
ATOM      7  C   UNL     1       1.517   5.894  20.966  0.00  0.00    +0.000 A 
ATOM      8  C   UNL     1       1.836   6.843  19.993  0.00  0.00    +0.000 A 
ATOM      9  C   UNL     1       2.618   6.412  18.905  0.00  0.00    +0.000 A 
ATOM     10  C   UNL     1       3.087   5.077  18.774  0.00  0.00    +0.000 A 
ENDROOT
BRANCH   8  11
ATOM     11  C   UNL     1       1.433   8.260  20.103  0.00  0.00    +0.000 A 
ATOM     12  C   UNL     1       1.066   8.824  21.337  0.00  0.00    +0.000 A 
ATOM     13  C   UNL     1       0.798  10.196  21.463  0.00  0.00    +0.000 A 
ATOM     14  C   UNL     1       0.914  11.029  20.349  0.00  0.00    +0.000 A 
ATOM     15  C   UNL     1       1.191  10.479  19.095  0.00  0.00    +0.000 A 
ATOM     16  C   UNL     1       1.453   9.109  18.979  0.00  0.00    +0.000 A 
BRANCH  14  17
ATOM     17  S   UNL     1       0.586  12.776  20.495  0.00  0.00    +0.000 S 
ATOM     18  O   UNL     1      -0.512  13.072  19.599  0.00  0.00    +0.000 OA
ATOM     19  O   UNL     1       0.481  13.067  21.914  0.00  0.00    +0.000 OA
BRANCH  17  20
ATOM     20  N   UNL     1       1.956  13.564  19.906  0.00  0.00    +0.000 NA
ATOM     21  C   UNL     1       2.964  14.123  20.839  0.00  0.00    +0.000 C 
ATOM     22  C   UNL     1       2.714  15.614  21.082  0.00  0.00    +0.000 C 
ATOM     23  O   UNL     1       2.641  16.357  19.856  0.00  0.00    +0.000 OA
ATOM     24  C   UNL     1       1.650  15.833  18.959  0.00  0.00    +0.000 C 
ATOM     25  C   UNL     1       1.892  14.354  18.652  0.00  0.00    +0.000 C 
ENDBRANCH  17  20
ENDBRANCH  14  17
ENDBRANCH   8  11
BRANCH   1  26
ATOM     26  N   UNL     1       4.421   5.515  16.725  0.00  0.00    +0.000 N 
ATOM     27  H   UNL     1       3.943   6.410  16.710  0.00  0.00    +0.000 HD
BRANCH  26  32
ATOM     28  N   UNL     1       6.783   5.438  16.218  0.00  0.00    +0.000 N 
ATOM     29  N   UNL     1       7.638   5.113  15.222  0.00  0.00    +0.000 NA
ATOM     30  C   UNL     1       6.839   4.684  14.245  0.00  0.00    +0.000 A 
ATOM     31  C   UNL     1       5.484   4.743  14.601  0.00  0.00    +0.000 A 
ATOM     32  C   UNL     1       5.457   5.256  15.881  0.00  0.00    +0.000 A 
BRANCH  28  34
ATOM     33  C   UNL     1       7.388   7.484  17.448  0.00  0.00    +0.000 C 
ATOM     34  C   UNL     1       7.342   5.967  17.448  0.00  0.00    +0.000 C 
ENDBRANCH  28  34
ENDBRANCH  26  32
ENDBRANCH   1  26
TORSDOF 6
ENDMDL
MODEL 4
REMARK VINA RESULT:      -9.1      1.750      2.631
REMARK  Name = 
REMARK  7 active torsions:
REMARK  status: ('A' for Active; 'I' for Inactive)
REMARK    1  A    between atoms: C_1  and  C_2
REMARK    2  A    between atoms: C_2  and  N_3
REMARK    3  A    between atoms: C_7  and  N_8
REMARK    4  A    between atoms: N_8  and  C_9
REMARK    5  A    between atoms: C_16  and  C_17
REMARK    6  A    between atoms: C_20  and  S_21
REMARK    7  A    between atoms: S_21  and  N_24
REMARK                            x       y       z     vdW  Elec       q    Type
REMARK                         _______ _______ _______ _____ _____    ______ ____
ROOT
ATOM      1  C   UNL     1       3.687   4.098  17.653  0.00  0.00    +0.000 A 
ATOM      2  C   UNL     1       3.993   2.734  17.622  0.00  0.00    +0.000 A 
ATOM      3  C   UNL     1       3.556   1.923  18.648  0.00  0.00    +0.000 A 
ATOM      4  N   UNL     1       2.853   2.370  19.705  0.00  0.00    +0.000 NA
ATOM      5  C   UNL     1       2.559   3.679  19.757  0.00  0.00    +0.000 A 
ATOM      6  C   UNL     1       1.870   4.144  20.869  0.00  0.00    +0.000 A 
ATOM      7  C   UNL     1       1.537   5.496  21.027  0.00  0.00    +0.000 A 
ATOM      8  C   UNL     1       1.882   6.434  20.051  0.00  0.00    +0.000 A 
ATOM      9  C   UNL     1       2.577   5.961  18.922  0.00  0.00    +0.000 A 
ATOM     10  C   UNL     1       2.935   4.597  18.753  0.00  0.00    +0.000 A 
ENDROOT
BRANCH   8  11
ATOM     11  C   UNL     1       1.593   7.875  20.196  0.00  0.00    +0.000 A 
ATOM     12  C   UNL     1       1.535   8.727  19.081  0.00  0.00    +0.000 A 
ATOM     13  C   UNL     1       1.146  10.069  19.205  0.00  0.00    +0.000 A 
ATOM     14  C   UNL     1       0.787  10.572  20.457  0.00  0.00    +0.000 A 
ATOM     15  C   UNL     1       0.920   9.771  21.593  0.00  0.00    +0.000 A 
ATOM     16  C   UNL     1       1.313   8.435  21.458  0.00  0.00    +0.000 A 
BRANCH  14  17
ATOM     17  S   UNL     1       0.279  12.274  20.630  0.00  0.00    +0.000 S 
ATOM     18  O   UNL     1      -1.167  12.274  20.698  0.00  0.00    +0.000 OA
ATOM     19  O   UNL     1       1.069  12.841  21.708  0.00  0.00    +0.000 OA
BRANCH  17  20
ATOM     20  N   UNL     1       0.726  13.047  19.199  0.00  0.00    +0.000 NA
ATOM     21  C   UNL     1       2.101  13.574  19.024  0.00  0.00    +0.000 C 
ATOM     22  C   UNL     1       2.160  15.065  19.367  0.00  0.00    +0.000 C 
ATOM     23  O   UNL     1       1.191  15.828  18.633  0.00  0.00    +0.000 OA
ATOM     24  C   UNL     1      -0.145  15.335  18.817  0.00  0.00    +0.000 C 
ATOM     25  C   UNL     1      -0.258  13.857  18.440  0.00  0.00    +0.000 C 
ENDBRANCH  17  20
ENDBRANCH  14  17
ENDBRANCH   8  11
BRANCH   1  26
ATOM     26  N   UNL     1       4.201   4.964  16.647  0.00  0.00    +0.000 N 
ATOM     27  H   UNL     1       3.574   5.085  15.859  0.00  0.00    +0.000 HD
BRANCH  26  32
ATOM     28  N   UNL     1       6.539   5.190  16.072  0.00  0.00    +0.000 N 
ATOM     29  N   UNL     1       7.599   6.004  16.271  0.00  0.00    +0.000 NA
ATOM     30  C   UNL     1       7.107   6.990  17.021  0.00  0.00    +0.000 A 
ATOM     31  C   UNL     1       5.748   6.809  17.313  0.00  0.00    +0.000 A 
ATOM     32  C   UNL     1       5.392   5.621  16.708  0.00  0.00    +0.000 A 
BRANCH  28  34
ATOM     33  C   UNL     1       6.225   4.131  13.871  0.00  0.00    +0.000 C 
ATOM     34  C   UNL     1       6.743   3.985  15.290  0.00  0.00    +0.000 C 
ENDBRANCH  28  34
ENDBRANCH  26  32
ENDBRANCH   1  26
TORSDOF 6
ENDMDL
MODEL 5
REMARK VINA RESULT:      -9.1      4.085      9.835
REMARK  Name = 
REMARK  7 active torsions:
REMARK  status: ('A' for Active; 'I' for Inactive)
REMARK    1  A    between atoms: C_1  and  C_2
REMARK    2  A    between atoms: C_2  and  N_3
REMARK    3  A    between atoms: C_7  and  N_8
REMARK    4  A    between atoms: N_8  and  C_9
REMARK    5  A    between atoms: C_16  and  C_17
REMARK    6  A    between atoms: C_20  and  S_21
REMARK    7  A    between atoms: S_21  and  N_24
REMARK                            x       y       z     vdW  Elec       q    Type
REMARK                         _______ _______ _______ _____ _____    ______ ____
ROOT
ATOM      1  C   UNL     1      -1.558  12.080  20.399  0.00  0.00    +0.000 A 
ATOM      2  C   UNL     1      -2.313  12.934  21.209  0.00  0.00    +0.000 A 
ATOM      3  C   UNL     1      -2.302  12.748  22.575  0.00  0.00    +0.000 A 
ATOM      4  N   UNL     1      -1.611  11.771  23.190  0.00  0.00    +0.000 NA
ATOM      5  C   UNL     1      -0.889  10.935  22.427  0.00  0.00    +0.000 A 
ATOM      6  C   UNL     1      -0.211   9.902  23.061  0.00  0.00    +0.000 A 
ATOM      7  C   UNL     1       0.551   8.965  22.350  0.00  0.00    +0.000 A 
ATOM      8  C   UNL     1       0.664   9.046  20.960  0.00  0.00    +0.000 A 
ATOM      9  C   UNL     1      -0.020  10.095  20.318  0.00  0.00    +0.000 A 
ATOM     10  C   UNL     1      -0.809  11.045  21.022  0.00  0.00    +0.000 A 
ENDROOT
BRANCH   8  11
ATOM     11  C   UNL     1       1.417   8.054  20.165  0.00  0.00    +0.000 A 
ATOM     12  C   UNL     1       1.924   8.367  18.893  0.00  0.00    +0.000 A 
ATOM     13  C   UNL     1       2.738   7.467  18.189  0.00  0.00    +0.000 A 
ATOM     14  C   UNL     1       3.073   6.240  18.765  0.00  0.00    +0.000 A 
ATOM     15  C   UNL     1       2.511   5.870  19.989  0.00  0.00    +0.000 A 
ATOM     16  C   UNL     1       1.697   6.774  20.681  0.00  0.00    +0.000 A 
BRANCH  14  17
ATOM     17  S   UNL     1       4.116   5.089  17.887  0.00  0.00    +0.000 S 
ATOM     18  O   UNL     1       5.078   4.583  18.843  0.00  0.00    +0.000 OA
ATOM     19  O   UNL     1       3.235   4.182  17.175  0.00  0.00    +0.000 OA
BRANCH  17  20
ATOM     20  N   UNL     1       4.960   5.997  16.742  0.00  0.00    +0.000 NA
ATOM     21  C   UNL     1       5.288   5.419  15.416  0.00  0.00    +0.000 C 
ATOM     22  C   UNL     1       6.709   4.848  15.409  0.00  0.00    +0.000 C 
ATOM     23  O   UNL     1       7.682   5.813  15.835  0.00  0.00    +0.000 OA
ATOM     24  C   UNL     1       7.380   6.358  17.128  0.00  0.00    +0.000 C 
ATOM     25  C   UNL     1       5.983   6.982  17.165  0.00  0.00    +0.000 C 
ENDBRANCH  17  20
ENDBRANCH  14  17
ENDBRANCH   8  11
BRANCH   1  26
ATOM     26  N   UNL     1      -1.624  12.204  18.982  0.00  0.00    +0.000 N 
ATOM     27  H   UNL     1      -1.121  13.009  18.623  0.00  0.00    +0.000 HD
BRANCH  26  32
ATOM     28  N   UNL     1      -3.618  11.300  17.956  0.00  0.00    +0.000 N 
ATOM     29  N   UNL     1      -4.015  10.355  17.075  0.00  0.00    +0.000 NA
ATOM     30  C   UNL     1      -2.872   9.800  16.669  0.00  0.00    +0.000 A 
ATOM     31  C   UNL     1      -1.752  10.372  17.290  0.00  0.00    +0.000 A 
ATOM     32  C   UNL     1      -2.251  11.334  18.144  0.00  0.00    +0.000 A 
BRANCH  28  34
ATOM     33  C   UNL     1      -5.825  12.361  17.697  0.00  0.00    +0.000 C 
ATOM     34  C   UNL     1      -4.642  12.094  18.609  0.00  0.00    +0.000 C 
ENDBRANCH  28  34
ENDBRANCH  26  32
ENDBRANCH   1  26
TORSDOF 6
ENDMDL
MODEL 6
REMARK VINA RESULT:      -9.1      4.313     10.043
REMARK  Name = 
REMARK  7 active torsions:
REMARK  status: ('A' for Active; 'I' for Inactive)
REMARK    1  A    between atoms: C_1  and  C_2
REMARK    2  A    between atoms: C_2  and  N_3
REMARK    3  A    between atoms: C_7  and  N_8
REMARK    4  A    between atoms: N_8  and  C_9
REMARK    5  A    between atoms: C_16  and  C_17
REMARK    6  A    between atoms: C_20  and  S_21
REMARK    7  A    between atoms: S_21  and  N_24
REMARK                            x       y       z     vdW  Elec       q    Type
REMARK                         _______ _______ _______ _____ _____    ______ ____
ROOT
ATOM      1  C   UNL     1      -1.612  11.609  20.431  0.00  0.00    +0.000 A 
ATOM      2  C   UNL     1      -2.272  12.526  21.254  0.00  0.00    +0.000 A 
ATOM      3  C   UNL     1      -2.014  12.521  22.608  0.00  0.00    +0.000 A 
ATOM      4  N   UNL     1      -1.163  11.665  23.203  0.00  0.00    +0.000 NA
ATOM      5  C   UNL     1      -0.529  10.770  22.430  0.00  0.00    +0.000 A 
ATOM      6  C   UNL     1       0.316   9.860  23.051  0.00  0.00    +0.000 A 
ATOM      7  C   UNL     1       1.006   8.873  22.335  0.00  0.00    +0.000 A 
ATOM      8  C   UNL     1       0.873   8.777  20.947  0.00  0.00    +0.000 A 
ATOM      9  C   UNL     1       0.019   9.702  20.317  0.00  0.00    +0.000 A 
ATOM     10  C   UNL     1      -0.698  10.698  21.030  0.00  0.00    +0.000 A 
ENDROOT
BRANCH   8  11
ATOM     11  C   UNL     1       1.543   7.724  20.156  0.00  0.00    +0.000 A 
ATOM     12  C   UNL     1       2.197   8.019  18.949  0.00  0.00    +0.000 A 
ATOM     13  C   UNL     1       2.933   7.045  18.258  0.00  0.00    +0.000 A 
ATOM     14  C   UNL     1       3.040   5.756  18.785  0.00  0.00    +0.000 A 
ATOM     15  C   UNL     1       2.327   5.415  19.937  0.00  0.00    +0.000 A 
ATOM     16  C   UNL     1       1.593   6.393  20.616  0.00  0.00    +0.000 A 
BRANCH  14  17
ATOM     17  S   UNL     1       3.980   4.508  17.925  0.00  0.00    +0.000 S 
ATOM     18  O   UNL     1       4.621   3.695  18.937  0.00  0.00    +0.000 OA
ATOM     19  O   UNL     1       3.088   3.907  16.950  0.00  0.00    +0.000 OA
BRANCH  17  20
ATOM     20  N   UNL     1       5.191   5.327  17.082  0.00  0.00    +0.000 NA
ATOM     21  C   UNL     1       5.439   5.038  15.649  0.00  0.00    +0.000 C 
ATOM     22  C   UNL     1       6.579   4.029  15.487  0.00  0.00    +0.000 C 
ATOM     23  O   UNL     1       7.771   4.444  16.170  0.00  0.00    +0.000 OA
ATOM     24  C   UNL     1       7.539   4.703  17.563  0.00  0.00    +0.000 C 
ATOM     25  C   UNL     1       6.437   5.744  17.768  0.00  0.00    +0.000 C 
ENDBRANCH  17  20
ENDBRANCH  14  17
ENDBRANCH   8  11
BRANCH   1  26
ATOM     26  N   UNL     1      -1.928  11.544  19.044  0.00  0.00    +0.000 N 
ATOM     27  H   UNL     1      -1.113  11.457  18.447  0.00  0.00    +0.000 HD
BRANCH  26  32
ATOM     28  N   UNL     1      -3.565  10.800  17.428  0.00  0.00    +0.000 N 
ATOM     29  N   UNL     1      -4.864  10.965  17.090  0.00  0.00    +0.000 NA
ATOM     30  C   UNL     1      -5.326  11.813  18.010  0.00  0.00    +0.000 A 
ATOM     31  C   UNL     1      -4.335  12.200  18.923  0.00  0.00    +0.000 A 
ATOM     32  C   UNL     1      -3.185  11.551  18.523  0.00  0.00    +0.000 A 
BRANCH  28  34
ATOM     33  C   UNL     1      -2.731  10.378  15.150  0.00  0.00    +0.000 C 
ATOM     34  C   UNL     1      -2.752   9.930  16.600  0.00  0.00    +0.000 C 
ENDBRANCH  28  34
ENDBRANCH  26  32
ENDBRANCH   1  26
TORSDOF 6
ENDMDL
MODEL 7
REMARK VINA RESULT:      -9.1      1.331      1.916
REMARK  Name = 
REMARK  7 active torsions:
REMARK  status: ('A' for Active; 'I' for Inactive)
REMARK    1  A    between atoms: C_1  and  C_2
REMARK    2  A    between atoms: C_2  and  N_3
REMARK    3  A    between atoms: C_7  and  N_8
REMARK    4  A    between atoms: N_8  and  C_9
REMARK    5  A    between atoms: C_16  and  C_17
REMARK    6  A    between atoms: C_20  and  S_21
REMARK    7  A    between atoms: S_21  and  N_24
REMARK                            x       y       z     vdW  Elec       q    Type
REMARK                         _______ _______ _______ _____ _____    ______ ____
ROOT
ATOM      1  C   UNL     1       3.856   4.536  17.609  0.00  0.00    +0.000 A 
ATOM      2  C   UNL     1       4.211   3.190  17.481  0.00  0.00    +0.000 A 
ATOM      3  C   UNL     1       3.733   2.278  18.398  0.00  0.00    +0.000 A 
ATOM      4  N   UNL     1       2.943   2.607  19.436  0.00  0.00    +0.000 NA
ATOM      5  C   UNL     1       2.600   3.897  19.581  0.00  0.00    +0.000 A 
ATOM      6  C   UNL     1       1.820   4.240  20.677  0.00  0.00    +0.000 A 
ATOM      7  C   UNL     1       1.429   5.562  20.929  0.00  0.00    +0.000 A 
ATOM      8  C   UNL     1       1.808   6.594  20.066  0.00  0.00    +0.000 A 
ATOM      9  C   UNL     1       2.596   6.245  18.953  0.00  0.00    +0.000 A 
ATOM     10  C   UNL     1       3.013   4.912  18.692  0.00  0.00    +0.000 A 
ENDROOT
BRANCH   8  11
ATOM     11  C   UNL     1       1.459   8.007  20.316  0.00  0.00    +0.000 A 
ATOM     12  C   UNL     1       1.136   8.465  21.605  0.00  0.00    +0.000 A 
ATOM     13  C   UNL     1       0.921   9.827  21.864  0.00  0.00    +0.000 A 
ATOM     14  C   UNL     1       1.049  10.757  20.830  0.00  0.00    +0.000 A 
ATOM     15  C   UNL     1       1.283  10.318  19.526  0.00  0.00    +0.000 A 
ATOM     16  C   UNL     1       1.492   8.957  19.277  0.00  0.00    +0.000 A 
BRANCH  14  17
ATOM     17  S   UNL     1       0.789  12.493  21.147  0.00  0.00    +0.000 S 
ATOM     18  O   UNL     1      -0.068  12.583  22.310  0.00  0.00    +0.000 OA
ATOM     19  O   UNL     1       2.098  13.122  21.144  0.00  0.00    +0.000 OA
BRANCH  17  20
ATOM     20  N   UNL     1      -0.074  13.089  19.825  0.00  0.00    +0.000 NA
ATOM     21  C   UNL     1       0.635  13.702  18.676  0.00  0.00    +0.000 C 
ATOM     22  C   UNL     1       0.679  15.227  18.814  0.00  0.00    +0.000 C 
ATOM     23  O   UNL     1      -0.627  15.790  19.007  0.00  0.00    +0.000 OA
ATOM     24  C   UNL     1      -1.308  15.215  20.133  0.00  0.00    +0.000 C 
ATOM     25  C   UNL     1      -1.415  13.694  20.010  0.00  0.00    +0.000 C 
ENDBRANCH  17  20
ENDBRANCH  14  17
ENDBRANCH   8  11
BRANCH   1  26
ATOM     26  N   UNL     1       4.408   5.503  16.723  0.00  0.00    +0.000 N 
ATOM     27  H   UNL     1       3.961   6.412  16.787  0.00  0.00    +0.000 HD
BRANCH  26  32
ATOM     28  N   UNL     1       6.775   5.512  16.231  0.00  0.00    +0.000 N 
ATOM     29  N   UNL     1       7.646   5.232  15.237  0.00  0.00    +0.000 NA
ATOM     30  C   UNL     1       6.868   4.793  14.247  0.00  0.00    +0.000 A 
ATOM     31  C   UNL     1       5.510   4.801  14.594  0.00  0.00    +0.000 A 
ATOM     32  C   UNL     1       5.458   5.293  15.882  0.00  0.00    +0.000 A 
BRANCH  28  34
ATOM     33  C   UNL     1       7.367   7.556  17.472  0.00  0.00    +0.000 C 
ATOM     34  C   UNL     1       7.307   6.039  17.474  0.00  0.00    +0.000 C 
ENDBRANCH  28  34
ENDBRANCH  26  32
ENDBRANCH   1  26
TORSDOF 6
ENDMDL
MODEL 8
REMARK VINA RESULT:      -9.0      0.773      1.266
REMARK  Name = 
REMARK  7 active torsions:
REMARK  status: ('A' for Active; 'I' for Inactive)
REMARK    1  A    between atoms: C_1  and  C_2
REMARK    2  A    between atoms: C_2  and  N_3
REMARK    3  A    between atoms: C_7  and  N_8
REMARK    4  A    between atoms: N_8  and  C_9
REMARK    5  A    between atoms: C_16  and  C_17
REMARK    6  A    between atoms: C_20  and  S_21
REMARK    7  A    between atoms: S_21  and  N_24
REMARK                            x       y       z     vdW  Elec       q    Type
REMARK                         _______ _______ _______ _____ _____    ______ ____
ROOT
ATOM      1  C   UNL     1       3.910   4.732  17.695  0.00  0.00    +0.000 A 
ATOM      2  C   UNL     1       4.308   3.392  17.707  0.00  0.00    +0.000 A 
ATOM      3  C   UNL     1       3.883   2.574  18.732  0.00  0.00    +0.000 A 
ATOM      4  N   UNL     1       3.107   2.992  19.748  0.00  0.00    +0.000 NA
ATOM      5  C   UNL     1       2.724   4.278  19.759  0.00  0.00    +0.000 A 
ATOM      6  C   UNL     1       1.958   4.716  20.831  0.00  0.00    +0.000 A 
ATOM      7  C   UNL     1       1.528   6.045  20.945  0.00  0.00    +0.000 A 
ATOM      8  C   UNL     1       1.851   6.985  19.964  0.00  0.00    +0.000 A 
ATOM      9  C   UNL     1       2.624   6.539  18.875  0.00  0.00    +0.000 A 
ATOM     10  C   UNL     1       3.080   5.200  18.752  0.00  0.00    +0.000 A 
ENDROOT
BRANCH   8  11
ATOM     11  C   UNL     1       1.460   8.406  20.066  0.00  0.00    +0.000 A 
ATOM     12  C   UNL     1       1.156   8.996  21.305  0.00  0.00    +0.000 A 
ATOM     13  C   UNL     1       0.900  10.371  21.417  0.00  0.00    +0.000 A 
ATOM     14  C   UNL     1       0.968  11.182  20.283  0.00  0.00    +0.000 A 
ATOM     15  C   UNL     1       1.182  10.607  19.029  0.00  0.00    +0.000 A 
ATOM     16  C   UNL     1       1.431   9.234  18.927  0.00  0.00    +0.000 A 
BRANCH  14  17
ATOM     17  S   UNL     1       0.656  12.934  20.412  0.00  0.00    +0.000 S 
ATOM     18  O   UNL     1       0.991  13.320  21.766  0.00  0.00    +0.000 OA
ATOM     19  O   UNL     1       1.314  13.562  19.280  0.00  0.00    +0.000 OA
BRANCH  17  20
ATOM     20  N   UNL     1      -1.008  13.132  20.218  0.00  0.00    +0.000 NA
ATOM     21  C   UNL     1      -1.617  14.483  20.269  0.00  0.00    +0.000 C 
ATOM     22  C   UNL     1      -2.158  14.784  21.669  0.00  0.00    +0.000 C 
ATOM     23  O   UNL     1      -3.059  13.767  22.131  0.00  0.00    +0.000 OA
ATOM     24  C   UNL     1      -2.465  12.460  22.105  0.00  0.00    +0.000 C 
ATOM     25  C   UNL     1      -1.953  12.101  20.709  0.00  0.00    +0.000 C 
ENDBRANCH  17  20
ENDBRANCH  14  17
ENDBRANCH   8  11
BRANCH   1  26
ATOM     26  N   UNL     1       4.408   5.612  16.693  0.00  0.00    +0.000 N 
ATOM     27  H   UNL     1       3.922   6.502  16.659  0.00  0.00    +0.000 HD
BRANCH  26  32
ATOM     28  N   UNL     1       6.755   5.734  16.126  0.00  0.00    +0.000 N 
ATOM     29  N   UNL     1       7.628   5.362  15.164  0.00  0.00    +0.000 NA
ATOM     30  C   UNL     1       6.872   4.697  14.289  0.00  0.00    +0.000 A 
ATOM     31  C   UNL     1       5.525   4.651  14.676  0.00  0.00    +0.000 A 
ATOM     32  C   UNL     1       5.455   5.349  15.865  0.00  0.00    +0.000 A 
BRANCH  28  34
ATOM     33  C   UNL     1       7.539   5.643  18.458  0.00  0.00    +0.000 C 
ATOM     34  C   UNL     1       7.263   6.508  17.243  0.00  0.00    +0.000 C 
ENDBRANCH  28  34
ENDBRANCH  26  32
ENDBRANCH   1  26
TORSDOF 6
ENDMDL
MODEL 9
REMARK VINA RESULT:      -9.0      2.084      2.835
REMARK  Name = 
REMARK  7 active torsions:
REMARK  status: ('A' for Active; 'I' for Inactive)
REMARK    1  A    between atoms: C_1  and  C_2
REMARK    2  A    between atoms: C_2  and  N_3
REMARK    3  A    between atoms: C_7  and  N_8
REMARK    4  A    between atoms: N_8  and  C_9
REMARK    5  A    between atoms: C_16  and  C_17
REMARK    6  A    between atoms: C_20  and  S_21
REMARK    7  A    between atoms: S_21  and  N_24
REMARK                            x       y       z     vdW  Elec       q    Type
REMARK                         _______ _______ _______ _____ _____    ______ ____
ROOT
ATOM      1  C   UNL     1       3.988   4.912  17.799  0.00  0.00    +0.000 A 
ATOM      2  C   UNL     1       4.473   3.609  17.952  0.00  0.00    +0.000 A 
ATOM      3  C   UNL     1       4.112   2.884  19.068  0.00  0.00    +0.000 A 
ATOM      4  N   UNL     1       3.320   3.363  20.045  0.00  0.00    +0.000 NA
ATOM      5  C   UNL     1       2.854   4.615  19.920  0.00  0.00    +0.000 A 
ATOM      6  C   UNL     1       2.072   5.121  20.950  0.00  0.00    +0.000 A 
ATOM      7  C   UNL     1       1.558   6.424  20.924  0.00  0.00    +0.000 A 
ATOM      8  C   UNL     1       1.809   7.268  19.840  0.00  0.00    +0.000 A 
ATOM      9  C   UNL     1       2.599   6.754  18.794  0.00  0.00    +0.000 A 
ATOM     10  C   UNL     1       3.140   5.440  18.812  0.00  0.00    +0.000 A 
ENDROOT
BRANCH   8  11
ATOM     11  C   UNL     1       1.328   8.664  19.791  0.00  0.00    +0.000 A 
ATOM     12  C   UNL     1       0.977   9.359  20.960  0.00  0.00    +0.000 A 
ATOM     13  C   UNL     1       0.633  10.719  20.927  0.00  0.00    +0.000 A 
ATOM     14  C   UNL     1       0.658  11.409  19.713  0.00  0.00    +0.000 A 
ATOM     15  C   UNL     1       0.917  10.720  18.527  0.00  0.00    +0.000 A 
ATOM     16  C   UNL     1       1.255   9.363  18.570  0.00  0.00    +0.000 A 
BRANCH  14  17
ATOM     17  S   UNL     1       0.234  13.141  19.656  0.00  0.00    +0.000 S 
ATOM     18  O   UNL     1      -0.114  13.441  18.283  0.00  0.00    +0.000 OA
ATOM     19  O   UNL     1      -0.717  13.377  20.728  0.00  0.00    +0.000 OA
BRANCH  17  20
ATOM     20  N   UNL     1       1.647  13.985  20.024  0.00  0.00    +0.000 NA
ATOM     21  C   UNL     1       1.592  15.414  20.415  0.00  0.00    +0.000 C 
ATOM     22  C   UNL     1       1.853  16.320  19.208  0.00  0.00    +0.000 C 
ATOM     23  O   UNL     1       3.079  15.989  18.539  0.00  0.00    +0.000 OA
ATOM     24  C   UNL     1       3.127  14.611  18.138  0.00  0.00    +0.000 C 
ATOM     25  C   UNL     1       2.917  13.671  19.326  0.00  0.00    +0.000 C 
ENDBRANCH  17  20
ENDBRANCH  14  17
ENDBRANCH   8  11
BRANCH   1  26
ATOM     26  N   UNL     1       4.418   5.704  16.698  0.00  0.00    +0.000 N 
ATOM     27  H   UNL     1       3.887   6.562  16.585  0.00  0.00    +0.000 HD
BRANCH  26  32
ATOM     28  N   UNL     1       6.768   5.759  16.133  0.00  0.00    +0.000 N 
ATOM     29  N   UNL     1       7.632   5.356  15.174  0.00  0.00    +0.000 NA
ATOM     30  C   UNL     1       6.859   4.705  14.304  0.00  0.00    +0.000 A 
ATOM     31  C   UNL     1       5.511   4.698  14.690  0.00  0.00    +0.000 A 
ATOM     32  C   UNL     1       5.459   5.407  15.873  0.00  0.00    +0.000 A 
BRANCH  28  34
ATOM     33  C   UNL     1       7.616   5.651  18.442  0.00  0.00    +0.000 C 
ATOM     34  C   UNL     1       7.296   6.527  17.245  0.00  0.00    +0.000 C 
ENDBRANCH  28  34
ENDBRANCH  26  32
ENDBRANCH   1  26
TORSDOF 6
ENDMDL
