MODEL 1
REMARK VINA RESULT:      -8.0      0.000      0.000
REMARK  Name = 
REMARK  10 active torsions:
REMARK  status: ('A' for Active; 'I' for Inactive)
REMARK    1  A    between atoms: C_1  and  C_2
REMARK    2  A    between atoms: C_2  and  N_3
REMARK    3  A    between atoms: C_2  and  C_20
REMARK    4  A    between atoms: N_3  and  S_4
REMARK    5  A    between atoms: S_4  and  C_7
REMARK    6  A    between atoms: C_7  and  C_8
REMARK    7  A    between atoms: C_8  and  C_9
REMARK    8  A    between atoms: C_9  and  O_10
REMARK    9  A    between atoms: O_10  and  C_11
REMARK   10  A    between atoms: C_11  and  N_12
REMARK                            x       y       z     vdW  Elec       q    Type
REMARK                         _______ _______ _______ _____ _____    ______ ____
ROOT
ATOM      1  S   UNL     1       7.031   5.398  17.010  0.00  0.00    +0.000 S 
ATOM      2  O   UNL     1       8.027   4.360  16.866  0.00  0.00    +0.000 OA
ATOM      3  O   UNL     1       6.567   6.162  15.876  0.00  0.00    +0.000 OA
ENDROOT
BRANCH   1   4
ATOM      4  N   UNL     1       5.688   4.664  17.715  0.00  0.00    +0.000 NA
ATOM      5  H   UNL     1       5.715   3.652  17.579  0.00  0.00    +0.000 HD
BRANCH   4   7
ATOM      6  C   UNL     1       4.201   6.689  17.468  0.00  0.00    +0.000 C 
ATOM      7  C   UNL     1       4.373   5.186  17.237  0.00  0.00    +0.000 C 
BRANCH   7   8
ATOM      8  C   UNL     1       3.247   4.425  17.915  0.00  0.00    +0.000 A 
ATOM      9  C   UNL     1       2.833   3.178  17.415  0.00  0.00    +0.000 A 
ATOM     10  C   UNL     1       1.785   2.478  18.016  0.00  0.00    +0.000 A 
ATOM     11  C   UNL     1       1.138   3.018  19.125  0.00  0.00    +0.000 A 
ATOM     12  C   UNL     1       1.546   4.248  19.627  0.00  0.00    +0.000 A 
ATOM     13  F   UNL     1       0.921   4.765  20.693  0.00  0.00    +0.000 F 
ATOM     14  C   UNL     1       2.591   4.951  19.039  0.00  0.00    +0.000 A 
ENDBRANCH   7   8
ENDBRANCH   4   7
ENDBRANCH   1   4
BRANCH   1  15
ATOM     15  C   UNL     1       7.589   6.530  18.278  0.00  0.00    +0.000 C 
BRANCH  15  16
ATOM     16  C   UNL     1       7.687   7.951  17.716  0.00  0.00    +0.000 C 
BRANCH  16  17
ATOM     17  C   UNL     1       8.608   8.866  18.530  0.00  0.00    +0.000 C 
BRANCH  17  18
ATOM     18  O   UNL     1       8.740  10.158  17.936  0.00  0.00    +0.000 OA
BRANCH  18  19
ATOM     19  C   UNL     1       9.330  11.095  18.830  0.00  0.00    +0.000 C 
BRANCH  19  20
ATOM     20  N   UNL     1       9.984  12.171  18.116  0.00  0.00    +0.000 N 
ATOM     21  C   UNL     1      11.328  12.130  17.812  0.00  0.00    +0.000 A 
ATOM     22  C   UNL     1      11.961  13.182  17.284  0.00  0.00    +0.000 A 
ATOM     23  C   UNL     1      11.204  14.418  17.048  0.00  0.00    +0.000 A 
ATOM     24  O   UNL     1      11.761  15.441  16.668  0.00  0.00    +0.000 OA
ATOM     25  N   UNL     1       9.867  14.353  17.300  0.00  0.00    +0.000 N 
ATOM     26  C   UNL     1       9.220  13.308  17.899  0.00  0.00    +0.000 A 
ATOM     27  O   UNL     1       8.040  13.419  18.230  0.00  0.00    +0.000 OA
ATOM     28  H   UNL     1       9.332  15.198  17.174  0.00  0.00    +0.000 HD
ENDBRANCH  19  20
ENDBRANCH  18  19
ENDBRANCH  17  18
ENDBRANCH  16  17
ENDBRANCH  15  16
ENDBRANCH   1  15
TORSDOF 9
ENDMDL
MODEL 2
REMARK VINA RESULT:      -7.9      1.798      2.086
REMARK  Name = 
REMARK  10 active torsions:
REMARK  status: ('A' for Active; 'I' for Inactive)
REMARK    1  A    between atoms: C_1  and  C_2
REMARK    2  A    between atoms: C_2  and  N_3
REMARK    3  A    between atoms: C_2  and  C_20
REMARK    4  A    between atoms: N_3  and  S_4
REMARK    5  A    between atoms: S_4  and  C_7
REMARK    6  A    between atoms: C_7  and  C_8
REMARK    7  A    between atoms: C_8  and  C_9
REMARK    8  A    between atoms: C_9  and  O_10
REMARK    9  A    between atoms: O_10  and  C_11
REMARK   10  A    between atoms: C_11  and  N_12
REMARK                            x       y       z     vdW  Elec       q    Type
REMARK                         _______ _______ _______ _____ _____    ______ ____
ROOT
ATOM      1  S   UNL     1       6.289   4.973  17.892  0.00  0.00    +0.000 S 
ATOM      2  O   UNL     1       7.372   4.763  18.828  0.00  0.00    +0.000 OA
ATOM      3  O   UNL     1       5.694   3.875  17.167  0.00  0.00    +0.000 OA
ENDROOT
BRANCH   1   4
ATOM      4  N   UNL     1       5.063   5.736  18.760  0.00  0.00    +0.000 NA
ATOM      5  H   UNL     1       4.988   5.346  19.702  0.00  0.00    +0.000 HD
BRANCH   4   7
ATOM      6  C   UNL     1       3.111   7.082  17.892  0.00  0.00    +0.000 C 
ATOM      7  C   UNL     1       3.720   5.695  18.107  0.00  0.00    +0.000 C 
BRANCH   7   8
ATOM      8  C   UNL     1       2.778   4.837  18.932  0.00  0.00    +0.000 A 
ATOM      9  C   UNL     1       2.754   4.958  20.333  0.00  0.00    +0.000 A 
ATOM     10  C   UNL     1       1.908   4.159  21.105  0.00  0.00    +0.000 A 
ATOM     11  C   UNL     1       1.075   3.231  20.485  0.00  0.00    +0.000 A 
ATOM     12  C   UNL     1       1.090   3.112  19.101  0.00  0.00    +0.000 A 
ATOM     13  F   UNL     1       0.289   2.217  18.507  0.00  0.00    +0.000 F 
ATOM     14  C   UNL     1       1.926   3.904  18.322  0.00  0.00    +0.000 A 
ENDBRANCH   7   8
ENDBRANCH   4   7
ENDBRANCH   1   4
BRANCH   1  15
ATOM     15  C   UNL     1       6.802   6.226  16.724  0.00  0.00    +0.000 C 
BRANCH  15  16
ATOM     16  C   UNL     1       6.827   7.601  17.396  0.00  0.00    +0.000 C 
BRANCH  16  17
ATOM     17  C   UNL     1       8.184   7.952  18.016  0.00  0.00    +0.000 C 
BRANCH  17  18
ATOM     18  O   UNL     1       8.459   9.351  17.947  0.00  0.00    +0.000 OA
BRANCH  18  19
ATOM     19  C   UNL     1       9.005   9.846  19.164  0.00  0.00    +0.000 C 
BRANCH  19  20
ATOM     20  N   UNL     1       9.677  11.113  18.968  0.00  0.00    +0.000 N 
ATOM     21  C   UNL     1      10.354  11.404  17.804  0.00  0.00    +0.000 A 
ATOM     22  C   UNL     1      11.094  12.510  17.679  0.00  0.00    +0.000 A 
ATOM     23  C   UNL     1      11.203  13.422  18.826  0.00  0.00    +0.000 A 
ATOM     24  O   UNL     1      11.952  14.390  18.798  0.00  0.00    +0.000 OA
ATOM     25  N   UNL     1      10.442  13.105  19.909  0.00  0.00    +0.000 N 
ATOM     26  C   UNL     1       9.733  11.948  20.075  0.00  0.00    +0.000 A 
ATOM     27  O   UNL     1       9.215  11.689  21.160  0.00  0.00    +0.000 OA
ATOM     28  H   UNL     1      10.523  13.700  20.720  0.00  0.00    +0.000 HD
ENDBRANCH  19  20
ENDBRANCH  18  19
ENDBRANCH  17  18
ENDBRANCH  16  17
ENDBRANCH  15  16
ENDBRANCH   1  15
TORSDOF 9
ENDMDL
MODEL 3
REMARK VINA RESULT:      -7.8      1.303      1.670
REMARK  Name = 
REMARK  10 active torsions:
REMARK  status: ('A' for Active; 'I' for Inactive)
REMARK    1  A    between atoms: C_1  and  C_2
REMARK    2  A    between atoms: C_2  and  N_3
REMARK    3  A    between atoms: C_2  and  C_20
REMARK    4  A    between atoms: N_3  and  S_4
REMARK    5  A    between atoms: S_4  and  C_7
REMARK    6  A    between atoms: C_7  and  C_8
REMARK    7  A    between atoms: C_8  and  C_9
REMARK    8  A    between atoms: C_9  and  O_10
REMARK    9  A    between atoms: O_10  and  C_11
REMARK   10  A    between atoms: C_11  and  N_12
REMARK                            x       y       z     vdW  Elec       q    Type
REMARK                         _______ _______ _______ _____ _____    ______ ____
ROOT
ATOM      1  S   UNL     1       7.360   5.680  17.573  0.00  0.00    +0.000 S 
ATOM      2  O   UNL     1       7.928   4.537  18.253  0.00  0.00    +0.000 OA
ATOM      3  O   UNL     1       7.489   5.850  16.145  0.00  0.00    +0.000 OA
ENDROOT
BRANCH   1   4
ATOM      4  N   UNL     1       5.715   5.674  17.941  0.00  0.00    +0.000 NA
ATOM      5  H   UNL     1       5.553   6.031  18.884  0.00  0.00    +0.000 HD
BRANCH   4   7
ATOM      6  C   UNL     1       4.794   3.948  16.346  0.00  0.00    +0.000 C 
ATOM      7  C   UNL     1       5.052   4.343  17.801  0.00  0.00    +0.000 C 
BRANCH   7   8
ATOM      8  C   UNL     1       3.748   4.340  18.579  0.00  0.00    +0.000 A 
ATOM      9  C   UNL     1       3.571   5.211  19.668  0.00  0.00    +0.000 A 
ATOM     10  C   UNL     1       2.384   5.203  20.404  0.00  0.00    +0.000 A 
ATOM     11  C   UNL     1       1.361   4.324  20.059  0.00  0.00    +0.000 A 
ATOM     12  C   UNL     1       1.529   3.464  18.980  0.00  0.00    +0.000 A 
ATOM     13  F   UNL     1       0.543   2.619  18.651  0.00  0.00    +0.000 F 
ATOM     14  C   UNL     1       2.704   3.467  18.238  0.00  0.00    +0.000 A 
ENDBRANCH   7   8
ENDBRANCH   4   7
ENDBRANCH   1   4
BRANCH   1  15
ATOM     15  C   UNL     1       7.954   7.159  18.386  0.00  0.00    +0.000 C 
BRANCH  15  16
ATOM     16  C   UNL     1       7.524   8.403  17.604  0.00  0.00    +0.000 C 
BRANCH  16  17
ATOM     17  C   UNL     1       8.293   9.668  18.002  0.00  0.00    +0.000 C 
BRANCH  17  18
ATOM     18  O   UNL     1       9.185   9.432  19.091  0.00  0.00    +0.000 OA
BRANCH  18  19
ATOM     19  C   UNL     1       9.392  10.605  19.871  0.00  0.00    +0.000 C 
BRANCH  19  20
ATOM     20  N   UNL     1      10.025  11.652  19.098  0.00  0.00    +0.000 N 
ATOM     21  C   UNL     1      11.166  11.422  18.360  0.00  0.00    +0.000 A 
ATOM     22  C   UNL     1      11.831  12.417  17.767  0.00  0.00    +0.000 A 
ATOM     23  C   UNL     1      11.341  13.792  17.930  0.00  0.00    +0.000 A 
ATOM     24  O   UNL     1      11.974  14.747  17.496  0.00  0.00    +0.000 OA
ATOM     25  N   UNL     1      10.166  13.927  18.605  0.00  0.00    +0.000 N 
ATOM     26  C   UNL     1       9.511  12.929  19.270  0.00  0.00    +0.000 A 
ATOM     27  O   UNL     1       8.546  13.192  19.987  0.00  0.00    +0.000 OA
ATOM     28  H   UNL     1       9.826  14.864  18.755  0.00  0.00    +0.000 HD
ENDBRANCH  19  20
ENDBRANCH  18  19
ENDBRANCH  17  18
ENDBRANCH  16  17
ENDBRANCH  15  16
ENDBRANCH   1  15
TORSDOF 9
ENDMDL
MODEL 4
REMARK VINA RESULT:      -7.8      1.895      2.201
REMARK  Name = 
REMARK  10 active torsions:
REMARK  status: ('A' for Active; 'I' for Inactive)
REMARK    1  A    between atoms: C_1  and  C_2
REMARK    2  A    between atoms: C_2  and  N_3
REMARK    3  A    between atoms: C_2  and  C_20
REMARK    4  A    between atoms: N_3  and  S_4
REMARK    5  A    between atoms: S_4  and  C_7
REMARK    6  A    between atoms: C_7  and  C_8
REMARK    7  A    between atoms: C_8  and  C_9
REMARK    8  A    between atoms: C_9  and  O_10
REMARK    9  A    between atoms: O_10  and  C_11
REMARK   10  A    between atoms: C_11  and  N_12
REMARK                            x       y       z     vdW  Elec       q    Type
REMARK                         _______ _______ _______ _____ _____    ______ ____
ROOT
ATOM      1  S   UNL     1       7.112   5.905  17.490  0.00  0.00    +0.000 S 
ATOM      2  O   UNL     1       7.685   4.590  17.679  0.00  0.00    +0.000 OA
ATOM      3  O   UNL     1       6.881   6.445  16.171  0.00  0.00    +0.000 OA
ENDROOT
BRANCH   1   4
ATOM      4  N   UNL     1       5.635   5.893  18.302  0.00  0.00    +0.000 NA
ATOM      5  H   UNL     1       5.564   5.076  18.912  0.00  0.00    +0.000 HD
BRANCH   4   7
ATOM      6  C   UNL     1       3.611   7.221  17.588  0.00  0.00    +0.000 C 
ATOM      7  C   UNL     1       4.437   5.945  17.412  0.00  0.00    +0.000 C 
BRANCH   7   8
ATOM      8  C   UNL     1       3.566   4.726  17.660  0.00  0.00    +0.000 A 
ATOM      9  C   UNL     1       2.181   4.873  17.858  0.00  0.00    +0.000 A 
ATOM     10  C   UNL     1       1.373   3.762  18.108  0.00  0.00    +0.000 A 
ATOM     11  C   UNL     1       1.940   2.491  18.162  0.00  0.00    +0.000 A 
ATOM     12  C   UNL     1       3.306   2.339  17.962  0.00  0.00    +0.000 A 
ATOM     13  F   UNL     1       3.849   1.115  18.015  0.00  0.00    +0.000 F 
ATOM     14  C   UNL     1       4.120   3.437  17.708  0.00  0.00    +0.000 A 
ENDBRANCH   7   8
ENDBRANCH   4   7
ENDBRANCH   1   4
BRANCH   1  15
ATOM     15  C   UNL     1       8.085   7.074  18.430  0.00  0.00    +0.000 C 
BRANCH  15  16
ATOM     16  C   UNL     1       8.030   8.457  17.776  0.00  0.00    +0.000 C 
BRANCH  16  17
ATOM     17  C   UNL     1       8.633   9.567  18.645  0.00  0.00    +0.000 C 
BRANCH  17  18
ATOM     18  O   UNL     1       9.415  10.482  17.877  0.00  0.00    +0.000 OA
BRANCH  18  19
ATOM     19  C   UNL     1       8.875  11.799  17.910  0.00  0.00    +0.000 C 
BRANCH  19  20
ATOM     20  N   UNL     1       9.708  12.695  18.684  0.00  0.00    +0.000 N 
ATOM     21  C   UNL     1       9.458  12.953  20.014  0.00  0.00    +0.000 A 
ATOM     22  C   UNL     1      10.134  13.888  20.688  0.00  0.00    +0.000 A 
ATOM     23  C   UNL     1      11.154  14.673  19.979  0.00  0.00    +0.000 A 
ATOM     24  O   UNL     1      11.724  15.611  20.523  0.00  0.00    +0.000 OA
ATOM     25  N   UNL     1      11.396  14.304  18.691  0.00  0.00    +0.000 N 
ATOM     26  C   UNL     1      10.670  13.397  17.972  0.00  0.00    +0.000 A 
ATOM     27  O   UNL     1      10.871  13.259  16.766  0.00  0.00    +0.000 OA
ATOM     28  H   UNL     1      12.071  14.848  18.175  0.00  0.00    +0.000 HD
ENDBRANCH  19  20
ENDBRANCH  18  19
ENDBRANCH  17  18
ENDBRANCH  16  17
ENDBRANCH  15  16
ENDBRANCH   1  15
TORSDOF 9
ENDMDL
MODEL 5
REMARK VINA RESULT:      -7.8      1.051      1.433
REMARK  Name = 
REMARK  10 active torsions:
REMARK  status: ('A' for Active; 'I' for Inactive)
REMARK    1  A    between atoms: C_1  and  C_2
REMARK    2  A    between atoms: C_2  and  N_3
REMARK    3  A    between atoms: C_2  and  C_20
REMARK    4  A    between atoms: N_3  and  S_4
REMARK    5  A    between atoms: S_4  and  C_7
REMARK    6  A    between atoms: C_7  and  C_8
REMARK    7  A    between atoms: C_8  and  C_9
REMARK    8  A    between atoms: C_9  and  O_10
REMARK    9  A    between atoms: O_10  and  C_11
REMARK   10  A    between atoms: C_11  and  N_12
REMARK                            x       y       z     vdW  Elec       q    Type
REMARK                         _______ _______ _______ _____ _____    ______ ____
ROOT
ATOM      1  S   UNL     1       6.280   5.493  16.661  0.00  0.00    +0.000 S 
ATOM      2  O   UNL     1       7.009   4.356  16.145  0.00  0.00    +0.000 OA
ATOM      3  O   UNL     1       5.643   6.444  15.781  0.00  0.00    +0.000 OA
ENDROOT
BRANCH   1   4
ATOM      4  N   UNL     1       5.093   4.866  17.680  0.00  0.00    +0.000 NA
ATOM      5  H   UNL     1       4.995   3.858  17.543  0.00  0.00    +0.000 HD
BRANCH   4   7
ATOM      6  C   UNL     1       3.780   7.018  17.801  0.00  0.00    +0.000 C 
ATOM      7  C   UNL     1       3.753   5.510  17.543  0.00  0.00    +0.000 C 
BRANCH   7   8
ATOM      8  C   UNL     1       2.767   4.841  18.484  0.00  0.00    +0.000 A 
ATOM      9  C   UNL     1       2.629   5.297  19.807  0.00  0.00    +0.000 A 
ATOM     10  C   UNL     1       1.742   4.676  20.688  0.00  0.00    +0.000 A 
ATOM     11  C   UNL     1       0.982   3.591  20.257  0.00  0.00    +0.000 A 
ATOM     12  C   UNL     1       1.111   3.140  18.949  0.00  0.00    +0.000 A 
ATOM     13  F   UNL     1       0.379   2.095  18.538  0.00  0.00    +0.000 F 
ATOM     14  C   UNL     1       1.988   3.753  18.062  0.00  0.00    +0.000 A 
ENDBRANCH   7   8
ENDBRANCH   4   7
ENDBRANCH   1   4
BRANCH   1  15
ATOM     15  C   UNL     1       7.355   6.377  17.785  0.00  0.00    +0.000 C 
BRANCH  15  16
ATOM     16  C   UNL     1       7.522   7.829  17.327  0.00  0.00    +0.000 C 
BRANCH  16  17
ATOM     17  C   UNL     1       8.472   8.642  18.214  0.00  0.00    +0.000 C 
BRANCH  17  18
ATOM     18  O   UNL     1       8.298  10.048  18.038  0.00  0.00    +0.000 OA
BRANCH  18  19
ATOM     19  C   UNL     1       8.994  10.797  19.028  0.00  0.00    +0.000 C 
BRANCH  19  20
ATOM     20  N   UNL     1       9.937  11.719  18.430  0.00  0.00    +0.000 N 
ATOM     21  C   UNL     1      11.289  11.642  18.685  0.00  0.00    +0.000 A 
ATOM     22  C   UNL     1      12.140  12.578  18.253  0.00  0.00    +0.000 A 
ATOM     23  C   UNL     1      11.609  13.727  17.507  0.00  0.00    +0.000 A 
ATOM     24  O   UNL     1      12.331  14.661  17.183  0.00  0.00    +0.000 OA
ATOM     25  N   UNL     1      10.277  13.688  17.228  0.00  0.00    +0.000 N 
ATOM     26  C   UNL     1       9.386  12.774  17.718  0.00  0.00    +0.000 A 
ATOM     27  O   UNL     1       8.179  12.928  17.537  0.00  0.00    +0.000 OA
ATOM     28  H   UNL     1       9.884  14.481  16.743  0.00  0.00    +0.000 HD
ENDBRANCH  19  20
ENDBRANCH  18  19
ENDBRANCH  17  18
ENDBRANCH  16  17
ENDBRANCH  15  16
ENDBRANCH   1  15
TORSDOF 9
ENDMDL
MODEL 6
REMARK VINA RESULT:      -7.7      1.789      2.150
REMARK  Name = 
REMARK  10 active torsions:
REMARK  status: ('A' for Active; 'I' for Inactive)
REMARK    1  A    between atoms: C_1  and  C_2
REMARK    2  A    between atoms: C_2  and  N_3
REMARK    3  A    between atoms: C_2  and  C_20
REMARK    4  A    between atoms: N_3  and  S_4
REMARK    5  A    between atoms: S_4  and  C_7
REMARK    6  A    between atoms: C_7  and  C_8
REMARK    7  A    between atoms: C_8  and  C_9
REMARK    8  A    between atoms: C_9  and  O_10
REMARK    9  A    between atoms: O_10  and  C_11
REMARK   10  A    between atoms: C_11  and  N_12
REMARK                            x       y       z     vdW  Elec       q    Type
REMARK                         _______ _______ _______ _____ _____    ______ ____
ROOT
ATOM      1  S   UNL     1       5.413   4.850  17.406  0.00  0.00    +0.000 S 
ATOM      2  O   UNL     1       5.454   3.778  18.376  0.00  0.00    +0.000 OA
ATOM      3  O   UNL     1       4.816   4.667  16.104  0.00  0.00    +0.000 OA
ENDROOT
BRANCH   1   4
ATOM      4  N   UNL     1       4.616   6.131  18.158  0.00  0.00    +0.000 NA
ATOM      5  H   UNL     1       4.770   6.111  19.167  0.00  0.00    +0.000 HD
BRANCH   4   7
ATOM      6  C   UNL     1       2.554   7.586  18.104  0.00  0.00    +0.000 C 
ATOM      7  C   UNL     1       3.148   6.193  17.889  0.00  0.00    +0.000 C 
BRANCH   7   8
ATOM      8  C   UNL     1       2.427   5.181  18.763  0.00  0.00    +0.000 A 
ATOM      9  C   UNL     1       2.493   5.282  20.164  0.00  0.00    +0.000 A 
ATOM     10  C   UNL     1       1.853   4.346  20.979  0.00  0.00    +0.000 A 
ATOM     11  C   UNL     1       1.139   3.299  20.402  0.00  0.00    +0.000 A 
ATOM     12  C   UNL     1       1.065   3.198  19.018  0.00  0.00    +0.000 A 
ATOM     13  F   UNL     1       0.378   2.189  18.465  0.00  0.00    +0.000 F 
ATOM     14  C   UNL     1       1.695   4.126  18.197  0.00  0.00    +0.000 A 
ENDBRANCH   7   8
ENDBRANCH   4   7
ENDBRANCH   1   4
BRANCH   1  15
ATOM     15  C   UNL     1       7.076   5.472  17.196  0.00  0.00    +0.000 C 
BRANCH  15  16
ATOM     16  C   UNL     1       7.071   7.003  17.167  0.00  0.00    +0.000 C 
BRANCH  16  17
ATOM     17  C   UNL     1       7.977   7.635  18.229  0.00  0.00    +0.000 C 
BRANCH  17  18
ATOM     18  O   UNL     1       8.705   8.751  17.716  0.00  0.00    +0.000 OA
BRANCH  18  19
ATOM     19  C   UNL     1       8.067   9.986  18.021  0.00  0.00    +0.000 C 
BRANCH  19  20
ATOM     20  N   UNL     1       9.032  11.025  18.313  0.00  0.00    +0.000 N 
ATOM     21  C   UNL     1      10.085  10.816  19.176  0.00  0.00    +0.000 A 
ATOM     22  C   UNL     1      10.889  11.813  19.559  0.00  0.00    +0.000 A 
ATOM     23  C   UNL     1      10.621  13.169  19.060  0.00  0.00    +0.000 A 
ATOM     24  O   UNL     1      11.261  14.131  19.465  0.00  0.00    +0.000 OA
ATOM     25  N   UNL     1       9.613  13.278  18.152  0.00  0.00    +0.000 N 
ATOM     26  C   UNL     1       8.744  12.282  17.802  0.00  0.00    +0.000 A 
ATOM     27  O   UNL     1       7.767  12.532  17.097  0.00  0.00    +0.000 OA
ATOM     28  H   UNL     1       9.391  14.204  17.818  0.00  0.00    +0.000 HD
ENDBRANCH  19  20
ENDBRANCH  18  19
ENDBRANCH  17  18
ENDBRANCH  16  17
ENDBRANCH  15  16
ENDBRANCH   1  15
TORSDOF 9
ENDMDL
MODEL 7
REMARK VINA RESULT:      -7.6      5.556      7.772
REMARK  Name = 
REMARK  10 active torsions:
REMARK  status: ('A' for Active; 'I' for Inactive)
REMARK    1  A    between atoms: C_1  and  C_2
REMARK    2  A    between atoms: C_2  and  N_3
REMARK    3  A    between atoms: C_2  and  C_20
REMARK    4  A    between atoms: N_3  and  S_4
REMARK    5  A    between atoms: S_4  and  C_7
REMARK    6  A    between atoms: C_7  and  C_8
REMARK    7  A    between atoms: C_8  and  C_9
REMARK    8  A    between atoms: C_9  and  O_10
REMARK    9  A    between atoms: O_10  and  C_11
REMARK   10  A    between atoms: C_11  and  N_12
REMARK                            x       y       z     vdW  Elec       q    Type
REMARK                         _______ _______ _______ _____ _____    ______ ____
ROOT
ATOM      1  S   UNL     1       3.523   2.966  17.869  0.00  0.00    +0.000 S 
ATOM      2  O   UNL     1       2.629   3.917  17.245  0.00  0.00    +0.000 OA
ATOM      3  O   UNL     1       3.252   1.548  17.845  0.00  0.00    +0.000 OA
ENDROOT
BRANCH   1   4
ATOM      4  N   UNL     1       5.033   3.209  17.161  0.00  0.00    +0.000 NA
ATOM      5  H   UNL     1       5.777   3.116  17.855  0.00  0.00    +0.000 HD
BRANCH   4   7
ATOM      6  C   UNL     1       5.593   4.364  14.988  0.00  0.00    +0.000 C 
ATOM      7  C   UNL     1       5.185   4.516  16.454  0.00  0.00    +0.000 C 
BRANCH   7   8
ATOM      8  C   UNL     1       6.198   5.377  17.188  0.00  0.00    +0.000 A 
ATOM      9  C   UNL     1       6.990   4.824  18.210  0.00  0.00    +0.000 A 
ATOM     10  C   UNL     1       7.909   5.610  18.907  0.00  0.00    +0.000 A 
ATOM     11  C   UNL     1       8.048   6.960  18.590  0.00  0.00    +0.000 A 
ATOM     12  C   UNL     1       7.272   7.510  17.577  0.00  0.00    +0.000 A 
ATOM     13  F   UNL     1       7.406   8.808  17.275  0.00  0.00    +0.000 F 
ATOM     14  C   UNL     1       6.356   6.736  16.874  0.00  0.00    +0.000 A 
ENDBRANCH   7   8
ENDBRANCH   4   7
ENDBRANCH   1   4
BRANCH   1  15
ATOM     15  C   UNL     1       3.779   3.476  19.563  0.00  0.00    +0.000 C 
BRANCH  15  16
ATOM     16  C   UNL     1       2.492   3.298  20.372  0.00  0.00    +0.000 C 
BRANCH  16  17
ATOM     17  C   UNL     1       1.396   4.303  20.003  0.00  0.00    +0.000 C 
BRANCH  17  18
ATOM     18  O   UNL     1       1.519   5.523  20.734  0.00  0.00    +0.000 OA
BRANCH  18  19
ATOM     19  C   UNL     1       2.551   6.353  20.211  0.00  0.00    +0.000 C 
BRANCH  19  20
ATOM     20  N   UNL     1       2.047   7.661  19.848  0.00  0.00    +0.000 N 
ATOM     21  C   UNL     1       1.249   8.393  20.699  0.00  0.00    +0.000 A 
ATOM     22  C   UNL     1       0.665   9.531  20.309  0.00  0.00    +0.000 A 
ATOM     23  C   UNL     1       0.866   9.993  18.929  0.00  0.00    +0.000 A 
ATOM     24  O   UNL     1       0.268  10.969  18.494  0.00  0.00    +0.000 OA
ATOM     25  N   UNL     1       1.730   9.257  18.178  0.00  0.00    +0.000 N 
ATOM     26  C   UNL     1       2.282   8.060  18.540  0.00  0.00    +0.000 A 
ATOM     27  O   UNL     1       2.917   7.397  17.721  0.00  0.00    +0.000 OA
ATOM     28  H   UNL     1       1.861   9.537  17.218  0.00  0.00    +0.000 HD
ENDBRANCH  19  20
ENDBRANCH  18  19
ENDBRANCH  17  18
ENDBRANCH  16  17
ENDBRANCH  15  16
ENDBRANCH   1  15
TORSDOF 9
ENDMDL
MODEL 8
REMARK VINA RESULT:      -7.6      5.991      9.555
REMARK  Name = 
REMARK  10 active torsions:
REMARK  status: ('A' for Active; 'I' for Inactive)
REMARK    1  A    between atoms: C_1  and  C_2
REMARK    2  A    between atoms: C_2  and  N_3
REMARK    3  A    between atoms: C_2  and  C_20
REMARK    4  A    between atoms: N_3  and  S_4
REMARK    5  A    between atoms: S_4  and  C_7
REMARK    6  A    between atoms: C_7  and  C_8
REMARK    7  A    between atoms: C_8  and  C_9
REMARK    8  A    between atoms: C_9  and  O_10
REMARK    9  A    between atoms: O_10  and  C_11
REMARK   10  A    between atoms: C_11  and  N_12
REMARK                            x       y       z     vdW  Elec       q    Type
REMARK                         _______ _______ _______ _____ _____    ______ ____
ROOT
ATOM      1  S   UNL     1       6.367   5.103  15.576  0.00  0.00    +0.000 S 
ATOM      2  O   UNL     1       5.656   3.847  15.665  0.00  0.00    +0.000 OA
ATOM      3  O   UNL     1       7.712   5.246  16.080  0.00  0.00    +0.000 OA
ENDROOT
BRANCH   1   4
ATOM      4  N   UNL     1       6.387   5.514  13.941  0.00  0.00    +0.000 NA
ATOM      5  H   UNL     1       5.456   5.418  13.532  0.00  0.00    +0.000 HD
BRANCH   4   7
ATOM      6  C   UNL     1       8.167   5.617  12.154  0.00  0.00    +0.000 C 
ATOM      7  C   UNL     1       7.365   4.741  13.119  0.00  0.00    +0.000 C 
BRANCH   7   8
ATOM      8  C   UNL     1       6.636   3.655  12.348  0.00  0.00    +0.000 A 
ATOM      9  C   UNL     1       7.348   2.569  11.808  0.00  0.00    +0.000 A 
ATOM     10  C   UNL     1       6.692   1.575  11.079  0.00  0.00    +0.000 A 
ATOM     11  C   UNL     1       5.316   1.655  10.882  0.00  0.00    +0.000 A 
ATOM     12  C   UNL     1       4.606   2.723  11.417  0.00  0.00    +0.000 A 
ATOM     13  F   UNL     1       3.282   2.798  11.225  0.00  0.00    +0.000 F 
ATOM     14  C   UNL     1       5.248   3.716  12.148  0.00  0.00    +0.000 A 
ENDBRANCH   7   8
ENDBRANCH   4   7
ENDBRANCH   1   4
BRANCH   1  15
ATOM     15  C   UNL     1       5.340   6.374  16.303  0.00  0.00    +0.000 C 
BRANCH  15  16
ATOM     16  C   UNL     1       5.156   6.115  17.801  0.00  0.00    +0.000 C 
BRANCH  16  17
ATOM     17  C   UNL     1       3.691   6.161  18.251  0.00  0.00    +0.000 C 
BRANCH  17  18
ATOM     18  O   UNL     1       2.879   5.237  17.528  0.00  0.00    +0.000 OA
BRANCH  18  19
ATOM     19  C   UNL     1       3.263   3.888  17.772  0.00  0.00    +0.000 C 
BRANCH  19  20
ATOM     20  N   UNL     1       2.643   3.369  18.972  0.00  0.00    +0.000 N 
ATOM     21  C   UNL     1       1.291   3.492  19.203  0.00  0.00    +0.000 A 
ATOM     22  C   UNL     1       0.743   3.146  20.372  0.00  0.00    +0.000 A 
ATOM     23  C   UNL     1       1.615   2.644  21.441  0.00  0.00    +0.000 A 
ATOM     24  O   UNL     1       1.178   2.415  22.563  0.00  0.00    +0.000 OA
ATOM     25  N   UNL     1       2.925   2.477  21.109  0.00  0.00    +0.000 N 
ATOM     26  C   UNL     1       3.509   2.886  19.943  0.00  0.00    +0.000 A 
ATOM     27  O   UNL     1       4.732   2.837  19.812  0.00  0.00    +0.000 OA
ATOM     28  H   UNL     1       3.549   2.162  21.836  0.00  0.00    +0.000 HD
ENDBRANCH  19  20
ENDBRANCH  18  19
ENDBRANCH  17  18
ENDBRANCH  16  17
ENDBRANCH  15  16
ENDBRANCH   1  15
TORSDOF 9
ENDMDL
MODEL 9
REMARK VINA RESULT:      -7.6      5.799      9.415
REMARK  Name = 
REMARK  10 active torsions:
REMARK  status: ('A' for Active; 'I' for Inactive)
REMARK    1  A    between atoms: C_1  and  C_2
REMARK    2  A    between atoms: C_2  and  N_3
REMARK    3  A    between atoms: C_2  and  C_20
REMARK    4  A    between atoms: N_3  and  S_4
REMARK    5  A    between atoms: S_4  and  C_7
REMARK    6  A    between atoms: C_7  and  C_8
REMARK    7  A    between atoms: C_8  and  C_9
REMARK    8  A    between atoms: C_9  and  O_10
REMARK    9  A    between atoms: O_10  and  C_11
REMARK   10  A    between atoms: C_11  and  N_12
REMARK                            x       y       z     vdW  Elec       q    Type
REMARK                         _______ _______ _______ _____ _____    ______ ____
ROOT
ATOM      1  S   UNL     1       7.272   5.272  18.002  0.00  0.00    +0.000 S 
ATOM      2  O   UNL     1       8.276   4.365  18.512  0.00  0.00    +0.000 OA
ATOM      3  O   UNL     1       7.556   6.671  17.788  0.00  0.00    +0.000 OA
ENDROOT
BRANCH   1   4
ATOM      4  N   UNL     1       6.760   4.624  16.532  0.00  0.00    +0.000 NA
ATOM      5  H   UNL     1       7.409   3.905  16.208  0.00  0.00    +0.000 HD
BRANCH   4   7
ATOM      6  C   UNL     1       5.215   6.348  15.526  0.00  0.00    +0.000 C 
ATOM      7  C   UNL     1       6.563   5.630  15.445  0.00  0.00    +0.000 C 
BRANCH   7   8
ATOM      8  C   UNL     1       6.710   4.953  14.094  0.00  0.00    +0.000 A 
ATOM      9  C   UNL     1       7.698   5.384  13.190  0.00  0.00    +0.000 A 
ATOM     10  C   UNL     1       7.829   4.784  11.936  0.00  0.00    +0.000 A 
ATOM     11  C   UNL     1       6.974   3.747  11.571  0.00  0.00    +0.000 A 
ATOM     12  C   UNL     1       6.000   3.314  12.462  0.00  0.00    +0.000 A 
ATOM     13  F   UNL     1       5.179   2.316  12.108  0.00  0.00    +0.000 F 
ATOM     14  C   UNL     1       5.863   3.901  13.715  0.00  0.00    +0.000 A 
ENDBRANCH   7   8
ENDBRANCH   4   7
ENDBRANCH   1   4
BRANCH   1  15
ATOM     15  C   UNL     1       5.820   5.131  19.037  0.00  0.00    +0.000 C 
BRANCH  15  16
ATOM     16  C   UNL     1       5.208   3.733  18.905  0.00  0.00    +0.000 C 
BRANCH  16  17
ATOM     17  C   UNL     1       4.081   3.657  17.869  0.00  0.00    +0.000 C 
BRANCH  17  18
ATOM     18  O   UNL     1       3.498   4.936  17.616  0.00  0.00    +0.000 OA
BRANCH  18  19
ATOM     19  C   UNL     1       2.095   4.936  17.852  0.00  0.00    +0.000 C 
BRANCH  19  20
ATOM     20  N   UNL     1       1.773   4.350  19.136  0.00  0.00    +0.000 N 
ATOM     21  C   UNL     1       2.260   4.872  20.315  0.00  0.00    +0.000 A 
ATOM     22  C   UNL     1       2.085   4.248  21.485  0.00  0.00    +0.000 A 
ATOM     23  C   UNL     1       1.374   2.962  21.502  0.00  0.00    +0.000 A 
ATOM     24  O   UNL     1       1.282   2.302  22.529  0.00  0.00    +0.000 OA
ATOM     25  N   UNL     1       0.857   2.555  20.310  0.00  0.00    +0.000 N 
ATOM     26  C   UNL     1       1.083   3.147  19.099  0.00  0.00    +0.000 A 
ATOM     27  O   UNL     1       0.703   2.603  18.063  0.00  0.00    +0.000 OA
ATOM     28  H   UNL     1       0.391   1.661  20.291  0.00  0.00    +0.000 HD
ENDBRANCH  19  20
ENDBRANCH  18  19
ENDBRANCH  17  18
ENDBRANCH  16  17
ENDBRANCH  15  16
ENDBRANCH   1  15
TORSDOF 9
ENDMDL
