MODEL 1
REMARK VINA RESULT:      -8.5      0.000      0.000
REMARK  Name = 
REMARK  8 active torsions:
REMARK  status: ('A' for Active; 'I' for Inactive)
REMARK    1  A    between atoms: N_2  and  C_4
REMARK    2  A    between atoms: C_11  and  N_12
REMARK    3  A    between atoms: N_12  and  C_13
REMARK    4  A    between atoms: C_13  and  C_14
REMARK    5  A    between atoms: C_17  and  O_18
REMARK    6  A    between atoms: O_18  and  C_19
REMARK    7  A    between atoms: C_24  and  O_25
REMARK    8  A    between atoms: O_25  and  C_26
REMARK                            x       y       z     vdW  Elec       q    Type
REMARK                         _______ _______ _______ _____ _____    ______ ____
ROOT
ATOM      1  C   UNL     1       3.509   6.347  17.592  0.00  0.00    +0.000 C 
ENDROOT
BRANCH   1   2
ATOM      2  C   UNL     1       2.634   7.168  18.532  0.00  0.00    +0.000 A 
ATOM      3  C   UNL     1       2.223   8.466  18.138  0.00  0.00    +0.000 A 
ATOM      4  C   UNL     1       1.469   9.298  18.966  0.00  0.00    +0.000 A 
ATOM      5  C   UNL     1       1.073   8.862  20.215  0.00  0.00    +0.000 A 
ATOM      6  C   UNL     1       1.480   7.603  20.644  0.00  0.00    +0.000 A 
ATOM      7  C   UNL     1       2.261   6.759  19.823  0.00  0.00    +0.000 A 
BRANCH   5   8
ATOM      8  O   UNL     1       0.405   9.791  20.948  0.00  0.00    +0.000 OA
BRANCH   8   9
ATOM      9  C   UNL     1       0.161   9.555  22.327  0.00  0.00    +0.000 C 
ATOM     10  F   UNL     1       1.253   9.194  23.028  0.00  0.00    +0.000 F 
ATOM     11  F   UNL     1      -0.372  10.666  22.880  0.00  0.00    +0.000 F 
ATOM     12  F   UNL     1      -0.746   8.557  22.426  0.00  0.00    +0.000 F 
ENDBRANCH   8   9
ENDBRANCH   5   8
BRANCH   7  13
ATOM     13  O   UNL     1       2.744   5.700  20.542  0.00  0.00    +0.000 OA
BRANCH  13  14
ATOM     14  C   UNL     1       1.904   4.742  21.189  0.00  0.00    +0.000 C 
ATOM     15  C   UNL     1       1.023   3.912  20.295  0.00  0.00    +0.000 C 
ATOM     16  C   UNL     1       2.310   3.335  20.786  0.00  0.00    +0.000 C 
ENDBRANCH  13  14
ENDBRANCH   7  13
ENDBRANCH   1   2
BRANCH   1  17
ATOM     17  N   UNL     1       3.362   4.900  17.846  0.00  0.00    +0.000 NA
ATOM     18  H   UNL     1       2.998   4.797  18.795  0.00  0.00    +0.000 HD
BRANCH  17  26
ATOM     19  C   UNL     1       7.210   4.961  14.139  0.00  0.00    +0.000 A 
ATOM     20  C   UNL     1       6.107   4.136  14.282  0.00  0.00    +0.000 A 
ATOM     21  N   UNL     1       5.812   4.203  15.611  0.00  0.00    +0.000 N 
ATOM     22  C   UNL     1       6.685   5.073  16.199  0.00  0.00    +0.000 A 
ATOM     23  N   UNL     1       7.548   5.551  15.340  0.00  0.00    +0.000 NA
ATOM     24  O   UNL     1       6.629   5.450  17.473  0.00  0.00    +0.000 OA
ATOM     25  C   UNL     1       5.820   4.667  18.347  0.00  0.00    +0.000 C 
ATOM     26  C   UNL     1       4.552   4.050  17.726  0.00  0.00    +0.000 C 
ATOM     27  C   UNL     1       4.786   3.487  16.316  0.00  0.00    +0.000 C 
BRANCH  19  29
ATOM     28  O   UNL     1       7.575   4.654  11.903  0.00  0.00    +0.000 OA
ATOM     29  N   UNL     1       7.953   5.240  12.931  0.00  0.00    +0.000 N 
ATOM     30  O   UNL     1       8.906   6.023  13.005  0.00  0.00    +0.000 OA
ENDBRANCH  19  29
ENDBRANCH  17  26
ENDBRANCH   1  17
TORSDOF 8
ENDMDL
MODEL 2
REMARK VINA RESULT:      -8.2      1.722      2.027
REMARK  Name = 
REMARK  8 active torsions:
REMARK  status: ('A' for Active; 'I' for Inactive)
REMARK    1  A    between atoms: N_2  and  C_4
REMARK    2  A    between atoms: C_11  and  N_12
REMARK    3  A    between atoms: N_12  and  C_13
REMARK    4  A    between atoms: C_13  and  C_14
REMARK    5  A    between atoms: C_17  and  O_18
REMARK    6  A    between atoms: O_18  and  C_19
REMARK    7  A    between atoms: C_24  and  O_25
REMARK    8  A    between atoms: O_25  and  C_26
REMARK                            x       y       z     vdW  Elec       q    Type
REMARK                         _______ _______ _______ _____ _____    ______ ____
ROOT
ATOM      1  C   UNL     1       3.821   6.295  17.814  0.00  0.00    +0.000 C 
ENDROOT
BRANCH   1   2
ATOM      2  C   UNL     1       2.865   7.374  18.309  0.00  0.00    +0.000 A 
ATOM      3  C   UNL     1       2.745   8.582  17.578  0.00  0.00    +0.000 A 
ATOM      4  C   UNL     1       1.934   9.636  17.997  0.00  0.00    +0.000 A 
ATOM      5  C   UNL     1       1.187   9.522  19.155  0.00  0.00    +0.000 A 
ATOM      6  C   UNL     1       1.300   8.360  19.910  0.00  0.00    +0.000 A 
ATOM      7  C   UNL     1       2.134   7.293  19.506  0.00  0.00    +0.000 A 
BRANCH   5   8
ATOM      8  O   UNL     1       0.495  10.642  19.489  0.00  0.00    +0.000 OA
BRANCH   8   9
ATOM      9  C   UNL     1      -0.761  10.901  18.880  0.00  0.00    +0.000 C 
ATOM     10  F   UNL     1      -0.744  11.910  17.987  0.00  0.00    +0.000 F 
ATOM     11  F   UNL     1      -1.199   9.779  18.270  0.00  0.00    +0.000 F 
ATOM     12  F   UNL     1      -1.640  11.222  19.855  0.00  0.00    +0.000 F 
ENDBRANCH   8   9
ENDBRANCH   5   8
BRANCH   7  13
ATOM     13  O   UNL     1       2.276   6.383  20.518  0.00  0.00    +0.000 OA
BRANCH  13  14
ATOM     14  C   UNL     1       1.383   5.284  20.716  0.00  0.00    +0.000 C 
ATOM     15  C   UNL     1       1.567   4.099  19.806  0.00  0.00    +0.000 C 
ATOM     16  C   UNL     1       2.156   4.061  21.178  0.00  0.00    +0.000 C 
ENDBRANCH  13  14
ENDBRANCH   7  13
ENDBRANCH   1   2
BRANCH   1  17
ATOM     17  N   UNL     1       4.632   5.746  18.918  0.00  0.00    +0.000 NA
ATOM     18  H   UNL     1       5.082   6.537  19.382  0.00  0.00    +0.000 HD
BRANCH  17  26
ATOM     19  C   UNL     1       6.747   4.492  14.175  0.00  0.00    +0.000 A 
ATOM     20  C   UNL     1       5.774   3.854  14.926  0.00  0.00    +0.000 A 
ATOM     21  N   UNL     1       6.017   4.267  16.203  0.00  0.00    +0.000 N 
ATOM     22  C   UNL     1       7.061   5.147  16.175  0.00  0.00    +0.000 A 
ATOM     23  N   UNL     1       7.530   5.307  14.965  0.00  0.00    +0.000 NA
ATOM     24  O   UNL     1       7.506   5.819  17.232  0.00  0.00    +0.000 OA
ATOM     25  C   UNL     1       7.088   5.362  18.516  0.00  0.00    +0.000 C 
ATOM     26  C   UNL     1       5.672   4.763  18.594  0.00  0.00    +0.000 C 
ATOM     27  C   UNL     1       5.335   3.859  17.398  0.00  0.00    +0.000 C 
BRANCH  19  29
ATOM     28  O   UNL     1       6.351   3.490  12.158  0.00  0.00    +0.000 OA
ATOM     29  N   UNL     1       6.968   4.391  12.749  0.00  0.00    +0.000 N 
ATOM     30  O   UNL     1       7.753   5.190  12.227  0.00  0.00    +0.000 OA
ENDBRANCH  19  29
ENDBRANCH  17  26
ENDBRANCH   1  17
TORSDOF 8
ENDMDL
MODEL 3
REMARK VINA RESULT:      -8.2      1.422      1.704
REMARK  Name = 
REMARK  8 active torsions:
REMARK  status: ('A' for Active; 'I' for Inactive)
REMARK    1  A    between atoms: N_2  and  C_4
REMARK    2  A    between atoms: C_11  and  N_12
REMARK    3  A    between atoms: N_12  and  C_13
REMARK    4  A    between atoms: C_13  and  C_14
REMARK    5  A    between atoms: C_17  and  O_18
REMARK    6  A    between atoms: O_18  and  C_19
REMARK    7  A    between atoms: C_24  and  O_25
REMARK    8  A    between atoms: O_25  and  C_26
REMARK                            x       y       z     vdW  Elec       q    Type
REMARK                         _______ _______ _______ _____ _____    ______ ____
ROOT
ATOM      1  C   UNL     1       3.591   5.905  17.471  0.00  0.00    +0.000 C 
ENDROOT
BRANCH   1   2
ATOM      2  C   UNL     1       2.808   7.022  18.150  0.00  0.00    +0.000 A 
ATOM      3  C   UNL     1       2.712   8.285  17.516  0.00  0.00    +0.000 A 
ATOM      4  C   UNL     1       2.060   9.371  18.100  0.00  0.00    +0.000 A 
ATOM      5  C   UNL     1       1.455   9.238  19.334  0.00  0.00    +0.000 A 
ATOM      6  C   UNL     1       1.551   8.019  19.997  0.00  0.00    +0.000 A 
ATOM      7  C   UNL     1       2.226   6.917  19.425  0.00  0.00    +0.000 A 
BRANCH   5   8
ATOM      8  O   UNL     1       0.917  10.385  19.823  0.00  0.00    +0.000 OA
BRANCH   8   9
ATOM      9  C   UNL     1      -0.367  10.804  19.382  0.00  0.00    +0.000 C 
ATOM     10  F   UNL     1      -1.111  11.400  20.334  0.00  0.00    +0.000 F 
ATOM     11  F   UNL     1      -0.224  11.648  18.339  0.00  0.00    +0.000 F 
ATOM     12  F   UNL     1      -1.037   9.712  18.953  0.00  0.00    +0.000 F 
ENDBRANCH   8   9
ENDBRANCH   5   8
BRANCH   7  13
ATOM     13  O   UNL     1       2.407   5.928  20.353  0.00  0.00    +0.000 OA
BRANCH  13  14
ATOM     14  C   UNL     1       1.349   5.087  20.819  0.00  0.00    +0.000 C 
ATOM     15  C   UNL     1       1.034   3.878  19.981  0.00  0.00    +0.000 C 
ATOM     16  C   UNL     1       1.895   3.719  21.191  0.00  0.00    +0.000 C 
ENDBRANCH  13  14
ENDBRANCH   7  13
ENDBRANCH   1   2
BRANCH   1  17
ATOM     17  N   UNL     1       4.009   4.873  18.441  0.00  0.00    +0.000 NA
ATOM     18  H   UNL     1       4.086   5.330  19.351  0.00  0.00    +0.000 HD
BRANCH  17  26
ATOM     19  C   UNL     1       7.121   4.893  14.099  0.00  0.00    +0.000 A 
ATOM     20  C   UNL     1       6.178   3.976  14.528  0.00  0.00    +0.000 A 
ATOM     21  N   UNL     1       6.109   4.176  15.875  0.00  0.00    +0.000 N 
ATOM     22  C   UNL     1       6.948   5.204  16.197  0.00  0.00    +0.000 A 
ATOM     23  N   UNL     1       7.580   5.663  15.148  0.00  0.00    +0.000 NA
ATOM     24  O   UNL     1       7.061   5.730  17.413  0.00  0.00    +0.000 OA
ATOM     25  C   UNL     1       6.524   4.978  18.498  0.00  0.00    +0.000 C 
ATOM     26  C   UNL     1       5.262   4.151  18.191  0.00  0.00    +0.000 C 
ATOM     27  C   UNL     1       5.322   3.445  16.828  0.00  0.00    +0.000 C 
BRANCH  19  29
ATOM     28  O   UNL     1       8.382   6.051  12.582  0.00  0.00    +0.000 OA
ATOM     29  N   UNL     1       7.603   5.099  12.751  0.00  0.00    +0.000 N 
ATOM     30  O   UNL     1       7.203   4.330  11.870  0.00  0.00    +0.000 OA
ENDBRANCH  19  29
ENDBRANCH  17  26
ENDBRANCH   1  17
TORSDOF 8
ENDMDL
MODEL 4
REMARK VINA RESULT:      -8.0      1.044      1.236
REMARK  Name = 
REMARK  8 active torsions:
REMARK  status: ('A' for Active; 'I' for Inactive)
REMARK    1  A    between atoms: N_2  and  C_4
REMARK    2  A    between atoms: C_11  and  N_12
REMARK    3  A    between atoms: N_12  and  C_13
REMARK    4  A    between atoms: C_13  and  C_14
REMARK    5  A    between atoms: C_17  and  O_18
REMARK    6  A    between atoms: O_18  and  C_19
REMARK    7  A    between atoms: C_24  and  O_25
REMARK    8  A    between atoms: O_25  and  C_26
REMARK                            x       y       z     vdW  Elec       q    Type
REMARK                         _______ _______ _______ _____ _____    ______ ____
ROOT
ATOM      1  C   UNL     1       3.468   5.848  18.215  0.00  0.00    +0.000 C 
ENDROOT
BRANCH   1   2
ATOM      2  C   UNL     1       2.570   6.785  19.014  0.00  0.00    +0.000 A 
ATOM      3  C   UNL     1       2.394   8.120  18.572  0.00  0.00    +0.000 A 
ATOM      4  C   UNL     1       1.634   9.052  19.278  0.00  0.00    +0.000 A 
ATOM      5  C   UNL     1       0.995   8.685  20.448  0.00  0.00    +0.000 A 
ATOM      6  C   UNL     1       1.166   7.390  20.925  0.00  0.00    +0.000 A 
ATOM      7  C   UNL     1       1.951   6.443  20.228  0.00  0.00    +0.000 A 
BRANCH   5   8
ATOM      8  O   UNL     1       0.346   9.700  21.075  0.00  0.00    +0.000 OA
BRANCH   8   9
ATOM      9  C   UNL     1      -0.236   9.480  22.352  0.00  0.00    +0.000 C 
ATOM     10  F   UNL     1       0.659   9.344  23.350  0.00  0.00    +0.000 F 
ATOM     11  F   UNL     1      -1.070  10.500  22.642  0.00  0.00    +0.000 F 
ATOM     12  F   UNL     1      -0.964   8.343  22.288  0.00  0.00    +0.000 F 
ENDBRANCH   8   9
ENDBRANCH   5   8
BRANCH   7  13
ATOM     13  O   UNL     1       2.177   5.340  21.005  0.00  0.00    +0.000 OA
BRANCH  13  14
ATOM     14  C   UNL     1       1.423   4.132  20.891  0.00  0.00    +0.000 C 
ATOM     15  C   UNL     1       2.131   2.954  20.277  0.00  0.00    +0.000 C 
ATOM     16  C   UNL     1       2.034   3.050  21.764  0.00  0.00    +0.000 C 
ENDBRANCH  13  14
ENDBRANCH   7  13
ENDBRANCH   1   2
BRANCH   1  17
ATOM     17  N   UNL     1       4.883   6.263  18.291  0.00  0.00    +0.000 NA
ATOM     18  H   UNL     1       5.014   7.010  17.607  0.00  0.00    +0.000 HD
BRANCH  17  26
ATOM     19  C   UNL     1       6.591   4.177  13.679  0.00  0.00    +0.000 A 
ATOM     20  C   UNL     1       5.710   3.678  14.624  0.00  0.00    +0.000 A 
ATOM     21  N   UNL     1       6.057   4.323  15.774  0.00  0.00    +0.000 N 
ATOM     22  C   UNL     1       7.067   5.195  15.486  0.00  0.00    +0.000 A 
ATOM     23  N   UNL     1       7.419   5.134  14.228  0.00  0.00    +0.000 NA
ATOM     24  O   UNL     1       7.587   6.057  16.355  0.00  0.00    +0.000 OA
ATOM     25  C   UNL     1       7.302   5.841  17.734  0.00  0.00    +0.000 C 
ATOM     26  C   UNL     1       5.917   5.249  18.055  0.00  0.00    +0.000 C 
ATOM     27  C   UNL     1       5.499   4.135  17.083  0.00  0.00    +0.000 C 
BRANCH  19  29
ATOM     28  O   UNL     1       5.978   2.864  11.910  0.00  0.00    +0.000 OA
ATOM     29  N   UNL     1       6.684   3.816  12.282  0.00  0.00    +0.000 N 
ATOM     30  O   UNL     1       7.457   4.463  11.567  0.00  0.00    +0.000 OA
ENDBRANCH  19  29
ENDBRANCH  17  26
ENDBRANCH   1  17
TORSDOF 8
ENDMDL
MODEL 5
REMARK VINA RESULT:      -7.9      1.882      2.262
REMARK  Name = 
REMARK  8 active torsions:
REMARK  status: ('A' for Active; 'I' for Inactive)
REMARK    1  A    between atoms: N_2  and  C_4
REMARK    2  A    between atoms: C_11  and  N_12
REMARK    3  A    between atoms: N_12  and  C_13
REMARK    4  A    between atoms: C_13  and  C_14
REMARK    5  A    between atoms: C_17  and  O_18
REMARK    6  A    between atoms: O_18  and  C_19
REMARK    7  A    between atoms: C_24  and  O_25
REMARK    8  A    between atoms: O_25  and  C_26
REMARK                            x       y       z     vdW  Elec       q    Type
REMARK                         _______ _______ _______ _____ _____    ______ ____
ROOT
ATOM      1  C   UNL     1       3.988   6.140  17.849  0.00  0.00    +0.000 C 
ENDROOT
BRANCH   1   2
ATOM      2  C   UNL     1       2.994   7.195  18.320  0.00  0.00    +0.000 A 
ATOM      3  C   UNL     1       2.897   8.420  17.612  0.00  0.00    +0.000 A 
ATOM      4  C   UNL     1       2.053   9.455  18.015  0.00  0.00    +0.000 A 
ATOM      5  C   UNL     1       1.250   9.304  19.129  0.00  0.00    +0.000 A 
ATOM      6  C   UNL     1       1.338   8.125  19.862  0.00  0.00    +0.000 A 
ATOM      7  C   UNL     1       2.205   7.078  19.476  0.00  0.00    +0.000 A 
BRANCH   5   8
ATOM      8  O   UNL     1       0.528  10.408  19.455  0.00  0.00    +0.000 OA
BRANCH   8   9
ATOM      9  C   UNL     1      -0.660  10.708  18.737  0.00  0.00    +0.000 C 
ATOM     10  F   UNL     1      -1.753  10.849  19.512  0.00  0.00    +0.000 F 
ATOM     11  F   UNL     1      -0.475  11.839  18.024  0.00  0.00    +0.000 F 
ATOM     12  F   UNL     1      -0.892   9.696  17.872  0.00  0.00    +0.000 F 
ENDBRANCH   8   9
ENDBRANCH   5   8
BRANCH   7  13
ATOM     13  O   UNL     1       2.306   6.145  20.472  0.00  0.00    +0.000 OA
BRANCH  13  14
ATOM     14  C   UNL     1       2.355   4.738  20.228  0.00  0.00    +0.000 C 
ATOM     15  C   UNL     1       2.115   3.843  21.413  0.00  0.00    +0.000 C 
ATOM     16  C   UNL     1       0.990   4.118  20.471  0.00  0.00    +0.000 C 
ENDBRANCH  13  14
ENDBRANCH   7  13
ENDBRANCH   1   2
BRANCH   1  17
ATOM     17  N   UNL     1       5.152   6.054  18.753  0.00  0.00    +0.000 NA
ATOM     18  H   UNL     1       5.525   7.000  18.852  0.00  0.00    +0.000 HD
BRANCH  17  26
ATOM     19  C   UNL     1       6.517   4.201  13.931  0.00  0.00    +0.000 A 
ATOM     20  C   UNL     1       5.821   3.599  14.966  0.00  0.00    +0.000 A 
ATOM     21  N   UNL     1       6.228   4.275  16.077  0.00  0.00    +0.000 N 
ATOM     22  C   UNL     1       7.088   5.262  15.686  0.00  0.00    +0.000 A 
ATOM     23  N   UNL     1       7.289   5.247  14.394  0.00  0.00    +0.000 NA
ATOM     24  O   UNL     1       7.606   6.175  16.501  0.00  0.00    +0.000 OA
ATOM     25  C   UNL     1       7.518   5.922  17.901  0.00  0.00    +0.000 C 
ATOM     26  C   UNL     1       6.260   5.170  18.376  0.00  0.00    +0.000 C 
ATOM     27  C   UNL     1       5.859   4.019  17.441  0.00  0.00    +0.000 C 
BRANCH  19  29
ATOM     28  O   UNL     1       7.378   4.343  11.818  0.00  0.00    +0.000 OA
ATOM     29  N   UNL     1       6.480   3.859  12.527  0.00  0.00    +0.000 N 
ATOM     30  O   UNL     1       5.565   3.128  12.132  0.00  0.00    +0.000 OA
ENDBRANCH  19  29
ENDBRANCH  17  26
ENDBRANCH   1  17
TORSDOF 8
ENDMDL
MODEL 6
REMARK VINA RESULT:      -7.8      1.325      1.618
REMARK  Name = 
REMARK  8 active torsions:
REMARK  status: ('A' for Active; 'I' for Inactive)
REMARK    1  A    between atoms: N_2  and  C_4
REMARK    2  A    between atoms: C_11  and  N_12
REMARK    3  A    between atoms: N_12  and  C_13
REMARK    4  A    between atoms: C_13  and  C_14
REMARK    5  A    between atoms: C_17  and  O_18
REMARK    6  A    between atoms: O_18  and  C_19
REMARK    7  A    between atoms: C_24  and  O_25
REMARK    8  A    between atoms: O_25  and  C_26
REMARK                            x       y       z     vdW  Elec       q    Type
REMARK                         _______ _______ _______ _____ _____    ______ ____
ROOT
ATOM      1  C   UNL     1       3.944   6.147  17.874  0.00  0.00    +0.000 C 
ENDROOT
BRANCH   1   2
ATOM      2  C   UNL     1       2.929   7.173  18.364  0.00  0.00    +0.000 A 
ATOM      3  C   UNL     1       2.803   8.406  17.676  0.00  0.00    +0.000 A 
ATOM      4  C   UNL     1       1.938   9.416  18.097  0.00  0.00    +0.000 A 
ATOM      5  C   UNL     1       1.142   9.231  19.211  0.00  0.00    +0.000 A 
ATOM      6  C   UNL     1       1.258   8.043  19.925  0.00  0.00    +0.000 A 
ATOM      7  C   UNL     1       2.146   7.020  19.520  0.00  0.00    +0.000 A 
BRANCH   5   8
ATOM      8  O   UNL     1       0.397  10.313  19.555  0.00  0.00    +0.000 OA
BRANCH   8   9
ATOM      9  C   UNL     1       0.588  10.923  20.824  0.00  0.00    +0.000 C 
ATOM     10  F   UNL     1       1.429  10.255  21.637  0.00  0.00    +0.000 F 
ATOM     11  F   UNL     1       1.047  12.180  20.647  0.00  0.00    +0.000 F 
ATOM     12  F   UNL     1      -0.614  10.994  21.437  0.00  0.00    +0.000 F 
ENDBRANCH   8   9
ENDBRANCH   5   8
BRANCH   7  13
ATOM     13  O   UNL     1       2.271   6.075  20.501  0.00  0.00    +0.000 OA
BRANCH  13  14
ATOM     14  C   UNL     1       1.425   4.927  20.597  0.00  0.00    +0.000 C 
ATOM     15  C   UNL     1       1.774   3.761  19.712  0.00  0.00    +0.000 C 
ATOM     16  C   UNL     1       2.208   3.745  21.141  0.00  0.00    +0.000 C 
ENDBRANCH  13  14
ENDBRANCH   7  13
ENDBRANCH   1   2
BRANCH   1  17
ATOM     17  N   UNL     1       5.003   5.915  18.876  0.00  0.00    +0.000 NA
ATOM     18  H   UNL     1       5.366   6.831  19.146  0.00  0.00    +0.000 HD
BRANCH  17  26
ATOM     19  C   UNL     1       6.534   4.256  14.033  0.00  0.00    +0.000 A 
ATOM     20  C   UNL     1       5.830   3.602  15.031  0.00  0.00    +0.000 A 
ATOM     21  N   UNL     1       6.191   4.253  16.173  0.00  0.00    +0.000 N 
ATOM     22  C   UNL     1       7.034   5.273  15.835  0.00  0.00    +0.000 A 
ATOM     23  N   UNL     1       7.267   5.305  14.549  0.00  0.00    +0.000 NA
ATOM     24  O   UNL     1       7.508   6.172  16.692  0.00  0.00    +0.000 OA
ATOM     25  C   UNL     1       7.392   5.871  18.080  0.00  0.00    +0.000 C 
ATOM     26  C   UNL     1       6.143   5.073  18.499  0.00  0.00    +0.000 C 
ATOM     27  C   UNL     1       5.796   3.942  17.518  0.00  0.00    +0.000 C 
BRANCH  19  29
ATOM     28  O   UNL     1       7.417   4.521  11.941  0.00  0.00    +0.000 OA
ATOM     29  N   UNL     1       6.541   3.959  12.619  0.00  0.00    +0.000 N 
ATOM     30  O   UNL     1       5.680   3.186  12.185  0.00  0.00    +0.000 OA
ENDBRANCH  19  29
ENDBRANCH  17  26
ENDBRANCH   1  17
TORSDOF 8
ENDMDL
MODEL 7
REMARK VINA RESULT:      -7.8      2.364      4.538
REMARK  Name = 
REMARK  8 active torsions:
REMARK  status: ('A' for Active; 'I' for Inactive)
REMARK    1  A    between atoms: N_2  and  C_4
REMARK    2  A    between atoms: C_11  and  N_12
REMARK    3  A    between atoms: N_12  and  C_13
REMARK    4  A    between atoms: C_13  and  C_14
REMARK    5  A    between atoms: C_17  and  O_18
REMARK    6  A    between atoms: O_18  and  C_19
REMARK    7  A    between atoms: C_24  and  O_25
REMARK    8  A    between atoms: O_25  and  C_26
REMARK                            x       y       z     vdW  Elec       q    Type
REMARK                         _______ _______ _______ _____ _____    ______ ____
ROOT
ATOM      1  C   UNL     1       1.827   8.172  19.830  0.00  0.00    +0.000 C 
ENDROOT
BRANCH   1   2
ATOM      2  C   UNL     1       0.931   9.056  20.690  0.00  0.00    +0.000 A 
ATOM      3  C   UNL     1       0.926   8.879  22.096  0.00  0.00    +0.000 A 
ATOM      4  C   UNL     1       0.093   9.610  22.942  0.00  0.00    +0.000 A 
ATOM      5  C   UNL     1      -0.756  10.569  22.424  0.00  0.00    +0.000 A 
ATOM      6  C   UNL     1      -0.795  10.752  21.046  0.00  0.00    +0.000 A 
ATOM      7  C   UNL     1       0.029  10.003  20.176  0.00  0.00    +0.000 A 
BRANCH   5   8
ATOM      8  O   UNL     1      -1.563  11.160  23.343  0.00  0.00    +0.000 OA
BRANCH   8   9
ATOM      9  C   UNL     1      -2.088  12.455  23.088  0.00  0.00    +0.000 C 
ATOM     10  F   UNL     1      -2.648  13.045  24.162  0.00  0.00    +0.000 F 
ATOM     11  F   UNL     1      -1.104  13.247  22.611  0.00  0.00    +0.000 F 
ATOM     12  F   UNL     1      -3.038  12.340  22.134  0.00  0.00    +0.000 F 
ENDBRANCH   8   9
ENDBRANCH   5   8
BRANCH   7  13
ATOM     13  O   UNL     1      -0.362  10.173  18.876  0.00  0.00    +0.000 OA
BRANCH  13  14
ATOM     14  C   UNL     1      -1.726  10.336  18.483  0.00  0.00    +0.000 C 
ATOM     15  C   UNL     1      -2.004  11.389  17.444  0.00  0.00    +0.000 C 
ATOM     16  C   UNL     1      -1.896   9.961  17.021  0.00  0.00    +0.000 C 
ENDBRANCH  13  14
ENDBRANCH   7  13
ENDBRANCH   1   2
BRANCH   1  17
ATOM     17  N   UNL     1       2.060   6.860  20.466  0.00  0.00    +0.000 NA
ATOM     18  H   UNL     1       2.951   6.921  20.962  0.00  0.00    +0.000 HD
BRANCH  17  26
ATOM     19  C   UNL     1       6.052   5.001  17.441  0.00  0.00    +0.000 A 
ATOM     20  C   UNL     1       4.928   5.735  17.101  0.00  0.00    +0.000 A 
ATOM     21  N   UNL     1       4.039   5.463  18.098  0.00  0.00    +0.000 N 
ATOM     22  C   UNL     1       4.650   4.641  19.002  0.00  0.00    +0.000 A 
ATOM     23  N   UNL     1       5.868   4.338  18.637  0.00  0.00    +0.000 NA
ATOM     24  O   UNL     1       4.106   4.249  20.150  0.00  0.00    +0.000 OA
ATOM     25  C   UNL     1       2.700   4.431  20.298  0.00  0.00    +0.000 C 
ATOM     26  C   UNL     1       2.100   5.670  19.609  0.00  0.00    +0.000 C 
ATOM     27  C   UNL     1       2.683   5.921  18.209  0.00  0.00    +0.000 C 
BRANCH  19  29
ATOM     28  O   UNL     1       7.365   5.544  15.650  0.00  0.00    +0.000 OA
ATOM     29  N   UNL     1       7.296   4.904  16.712  0.00  0.00    +0.000 N 
ATOM     30  O   UNL     1       8.190   4.192  17.183  0.00  0.00    +0.000 OA
ENDBRANCH  19  29
ENDBRANCH  17  26
ENDBRANCH   1  17
TORSDOF 8
ENDMDL
MODEL 8
REMARK VINA RESULT:      -7.8      1.212      1.497
REMARK  Name = 
REMARK  8 active torsions:
REMARK  status: ('A' for Active; 'I' for Inactive)
REMARK    1  A    between atoms: N_2  and  C_4
REMARK    2  A    between atoms: C_11  and  N_12
REMARK    3  A    between atoms: N_12  and  C_13
REMARK    4  A    between atoms: C_13  and  C_14
REMARK    5  A    between atoms: C_17  and  O_18
REMARK    6  A    between atoms: O_18  and  C_19
REMARK    7  A    between atoms: C_24  and  O_25
REMARK    8  A    between atoms: O_25  and  C_26
REMARK                            x       y       z     vdW  Elec       q    Type
REMARK                         _______ _______ _______ _____ _____    ______ ____
ROOT
ATOM      1  C   UNL     1       3.417   7.102  17.623  0.00  0.00    +0.000 C 
ENDROOT
BRANCH   1   2
ATOM      2  C   UNL     1       2.404   7.929  18.406  0.00  0.00    +0.000 A 
ATOM      3  C   UNL     1       1.981   9.178  17.887  0.00  0.00    +0.000 A 
ATOM      4  C   UNL     1       1.100  10.016  18.571  0.00  0.00    +0.000 A 
ATOM      5  C   UNL     1       0.585   9.634  19.794  0.00  0.00    +0.000 A 
ATOM      6  C   UNL     1       0.998   8.425  20.345  0.00  0.00    +0.000 A 
ATOM      7  C   UNL     1       1.905   7.577  19.671  0.00  0.00    +0.000 A 
BRANCH   5   8
ATOM      8  O   UNL     1      -0.204  10.567  20.388  0.00  0.00    +0.000 OA
BRANCH   8   9
ATOM      9  C   UNL     1       0.375  11.765  20.884  0.00  0.00    +0.000 C 
ATOM     10  F   UNL     1       1.716  11.721  21.005  0.00  0.00    +0.000 F 
ATOM     11  F   UNL     1       0.037  12.790  20.074  0.00  0.00    +0.000 F 
ATOM     12  F   UNL     1      -0.145  12.004  22.108  0.00  0.00    +0.000 F 
ENDBRANCH   8   9
ENDBRANCH   5   8
BRANCH   7  13
ATOM     13  O   UNL     1       2.351   6.589  20.506  0.00  0.00    +0.000 OA
BRANCH  13  14
ATOM     14  C   UNL     1       1.506   5.562  21.029  0.00  0.00    +0.000 C 
ATOM     15  C   UNL     1       1.169   4.431  20.096  0.00  0.00    +0.000 C 
ATOM     16  C   UNL     1       2.262   4.247  21.097  0.00  0.00    +0.000 C 
ENDBRANCH  13  14
ENDBRANCH   7  13
ENDBRANCH   1   2
BRANCH   1  17
ATOM     17  N   UNL     1       3.120   5.659  17.716  0.00  0.00    +0.000 NA
ATOM     18  H   UNL     1       2.579   5.517  18.570  0.00  0.00    +0.000 HD
BRANCH  17  26
ATOM     19  C   UNL     1       7.106   5.075  14.206  0.00  0.00    +0.000 A 
ATOM     20  C   UNL     1       5.939   4.349  14.375  0.00  0.00    +0.000 A 
ATOM     21  N   UNL     1       5.597   4.569  15.677  0.00  0.00    +0.000 N 
ATOM     22  C   UNL     1       6.510   5.429  16.218  0.00  0.00    +0.000 A 
ATOM     23  N   UNL     1       7.439   5.755  15.359  0.00  0.00    +0.000 NA
ATOM     24  O   UNL     1       6.431   5.934  17.445  0.00  0.00    +0.000 OA
ATOM     25  C   UNL     1       5.531   5.302  18.352  0.00  0.00    +0.000 C 
ATOM     26  C   UNL     1       4.246   4.718  17.735  0.00  0.00    +0.000 C 
ATOM     27  C   UNL     1       4.493   4.002  16.398  0.00  0.00    +0.000 C 
BRANCH  19  29
ATOM     28  O   UNL     1       8.895   5.938  13.074  0.00  0.00    +0.000 OA
ATOM     29  N   UNL     1       7.916   5.178  13.013  0.00  0.00    +0.000 N 
ATOM     30  O   UNL     1       7.576   4.519  12.023  0.00  0.00    +0.000 OA
ENDBRANCH  19  29
ENDBRANCH  17  26
ENDBRANCH   1  17
TORSDOF 8
ENDMDL
MODEL 9
REMARK VINA RESULT:      -7.8      1.288      1.632
REMARK  Name = 
REMARK  8 active torsions:
REMARK  status: ('A' for Active; 'I' for Inactive)
REMARK    1  A    between atoms: N_2  and  C_4
REMARK    2  A    between atoms: C_11  and  N_12
REMARK    3  A    between atoms: N_12  and  C_13
REMARK    4  A    between atoms: C_13  and  C_14
REMARK    5  A    between atoms: C_17  and  O_18
REMARK    6  A    between atoms: O_18  and  C_19
REMARK    7  A    between atoms: C_24  and  O_25
REMARK    8  A    between atoms: O_25  and  C_26
REMARK                            x       y       z     vdW  Elec       q    Type
REMARK                         _______ _______ _______ _____ _____    ______ ____
ROOT
ATOM      1  C   UNL     1       3.802   6.520  17.606  0.00  0.00    +0.000 C 
ENDROOT
BRANCH   1   2
ATOM      2  C   UNL     1       2.793   7.457  18.261  0.00  0.00    +0.000 A 
ATOM      3  C   UNL     1       2.546   8.725  17.679  0.00  0.00    +0.000 A 
ATOM      4  C   UNL     1       1.680   9.658  18.250  0.00  0.00    +0.000 A 
ATOM      5  C   UNL     1       1.003   9.356  19.416  0.00  0.00    +0.000 A 
ATOM      6  C   UNL     1       1.241   8.130  20.028  0.00  0.00    +0.000 A 
ATOM      7  C   UNL     1       2.131   7.185  19.470  0.00  0.00    +0.000 A 
BRANCH   5   8
ATOM      8  O   UNL     1       0.247  10.372  19.905  0.00  0.00    +0.000 OA
BRANCH   8   9
ATOM      9  C   UNL     1       0.744  11.170  20.970  0.00  0.00    +0.000 C 
ATOM     10  F   UNL     1      -0.202  11.880  21.616  0.00  0.00    +0.000 F 
ATOM     11  F   UNL     1       1.385  10.378  21.856  0.00  0.00    +0.000 F 
ATOM     12  F   UNL     1       1.640  12.041  20.456  0.00  0.00    +0.000 F 
ENDBRANCH   8   9
ENDBRANCH   5   8
BRANCH   7  13
ATOM     13  O   UNL     1       2.391   6.182  20.364  0.00  0.00    +0.000 OA
BRANCH  13  14
ATOM     14  C   UNL     1       1.595   5.000  20.472  0.00  0.00    +0.000 C 
ATOM     15  C   UNL     1       2.211   3.727  19.958  0.00  0.00    +0.000 C 
ATOM     16  C   UNL     1       2.250   4.014  21.423  0.00  0.00    +0.000 C 
ENDBRANCH  13  14
ENDBRANCH   7  13
ENDBRANCH   1   2
BRANCH   1  17
ATOM     17  N   UNL     1       4.819   6.063  18.573  0.00  0.00    +0.000 NA
ATOM     18  H   UNL     1       5.508   6.812  18.661  0.00  0.00    +0.000 HD
BRANCH  17  26
ATOM     19  C   UNL     1       6.510   4.132  13.888  0.00  0.00    +0.000 A 
ATOM     20  C   UNL     1       5.394   3.815  14.645  0.00  0.00    +0.000 A 
ATOM     21  N   UNL     1       5.740   4.178  15.913  0.00  0.00    +0.000 N 
ATOM     22  C   UNL     1       6.989   4.728  15.874  0.00  0.00    +0.000 A 
ATOM     23  N   UNL     1       7.489   4.715  14.666  0.00  0.00    +0.000 NA
ATOM     24  O   UNL     1       7.603   5.276  16.918  0.00  0.00    +0.000 OA
ATOM     25  C   UNL     1       7.068   4.991  18.209  0.00  0.00    +0.000 C 
ATOM     26  C   UNL     1       5.540   4.818  18.286  0.00  0.00    +0.000 C 
ATOM     27  C   UNL     1       4.966   4.013  17.111  0.00  0.00    +0.000 C 
BRANCH  19  29
ATOM     28  O   UNL     1       6.057   3.003  11.952  0.00  0.00    +0.000 OA
ATOM     29  N   UNL     1       6.699   3.932  12.468  0.00  0.00    +0.000 N 
ATOM     30  O   UNL     1       7.482   4.683  11.877  0.00  0.00    +0.000 OA
ENDBRANCH  19  29
ENDBRANCH  17  26
ENDBRANCH   1  17
TORSDOF 8
ENDMDL
