MODEL 1
REMARK VINA RESULT:      -8.2      0.000      0.000
REMARK  Name = 
REMARK  13 active torsions:
REMARK  status: ('A' for Active; 'I' for Inactive)
REMARK    1  A    between atoms: C_1  and  C_2
REMARK    2  A    between atoms: C_4  and  C_5
REMARK    3  A    between atoms: C_5  and  C_6
REMARK    4  A    between atoms: C_6  and  C_7
REMARK    5  A    between atoms: C_7  and  C_9
REMARK    6  A    between atoms: C_11  and  C_12
REMARK    7  A    between atoms: C_18  and  C_19
REMARK    8  A    between atoms: C_18  and  C_20
REMARK    9  A    between atoms: C_22  and  C_23
REMARK   10  A    between atoms: C_24  and  O_25
REMARK   11  A    between atoms: O_25  and  C_26
REMARK   12  A    between atoms: C_26  and  C_27
REMARK   13  A    between atoms: C_27  and  O_29
REMARK                            x       y       z     vdW  Elec       q    Type
REMARK                         _______ _______ _______ _____ _____    ______ ____
ROOT
ATOM      1  C   UNL     1       1.413  10.059  18.712  0.00  0.00    +0.000 C 
ENDROOT
BRANCH   1   5
ATOM      2  C   UNL     1      -2.898   9.741  16.183  0.00  0.00    +0.000 C 
ATOM      3  C   UNL     1      -2.188  10.351  17.362  0.00  0.00    +0.000 A 
ATOM      4  C   UNL     1      -0.843   9.956  17.550  0.00  0.00    +0.000 A 
ATOM      5  C   UNL     1      -0.031  10.503  18.551  0.00  0.00    +0.000 A 
ATOM      6  C   UNL     1      -0.590  11.459  19.399  0.00  0.00    +0.000 A 
ATOM      7  C   UNL     1      -1.932  11.862  19.256  0.00  0.00    +0.000 A 
ATOM      8  C   UNL     1      -2.478  12.903  20.199  0.00  0.00    +0.000 C 
ATOM      9  C   UNL     1      -2.746  11.296  18.246  0.00  0.00    +0.000 A 
BRANCH   9  10
ATOM     10  O   UNL     1      -4.022  11.807  18.214  0.00  0.00    +0.000 OA
BRANCH  10  11
ATOM     11  C   UNL     1      -5.055  11.094  18.893  0.00  0.00    +0.000 C 
BRANCH  11  12
ATOM     12  C   UNL     1      -6.387  11.282  18.184  0.00  0.00    +0.000 C 
ATOM     13  O   UNL     1      -6.607  12.171  17.371  0.00  0.00    +0.000 OA
BRANCH  12  14
ATOM     14  O   UNL     1      -7.317  10.357  18.522  0.00  0.00    +0.000 OA
ATOM     15  H   UNL     1      -7.679   9.948  17.707  0.00  0.00    +0.000 HD
ENDBRANCH  12  14
ENDBRANCH  11  12
ENDBRANCH  10  11
ENDBRANCH   9  10
ENDBRANCH   1   5
BRANCH   1  16
ATOM     16  C   UNL     1       1.671   8.680  18.101  0.00  0.00    +0.000 C 
BRANCH  16  17
ATOM     17  C   UNL     1       2.121   7.619  19.111  0.00  0.00    +0.000 C 
ATOM     18  O   UNL     1       2.022   7.826  20.322  0.00  0.00    +0.000 OA
BRANCH  17  19
ATOM     19  C   UNL     1       2.669   6.368  18.581  0.00  0.00    +0.000 A 
ATOM     20  S   UNL     1       2.004   4.827  19.035  0.00  0.00    +0.000 S 
ATOM     21  C   UNL     1       3.004   3.947  17.957  0.00  0.00    +0.000 A 
ATOM     22  C   UNL     1       2.897   2.472  17.823  0.00  0.00    +0.000 C 
ATOM     23  C   UNL     1       3.860   4.810  17.345  0.00  0.00    +0.000 A 
ATOM     24  C   UNL     1       3.693   6.174  17.676  0.00  0.00    +0.000 A 
ATOM     25  C   UNL     1       4.580   7.056  16.853  0.00  0.00    +0.000 C 
ATOM     26  C   UNL     1       5.235   6.079  15.854  0.00  0.00    +0.000 C 
ATOM     27  C   UNL     1       4.850   4.623  16.223  0.00  0.00    +0.000 C 
ATOM     28  C   UNL     1       6.297   5.074  16.239  0.00  0.00    +0.000 C 
ATOM     29  C   UNL     1       7.160   4.518  15.126  0.00  0.00    +0.000 C 
ATOM     30  C   UNL     1       7.033   5.177  17.551  0.00  0.00    +0.000 C 
ENDBRANCH  17  19
ENDBRANCH  16  17
ENDBRANCH   1  16
TORSDOF 8
ENDMDL
MODEL 2
REMARK VINA RESULT:      -8.2      0.557      1.789
REMARK  Name = 
REMARK  13 active torsions:
REMARK  status: ('A' for Active; 'I' for Inactive)
REMARK    1  A    between atoms: C_1  and  C_2
REMARK    2  A    between atoms: C_4  and  C_5
REMARK    3  A    between atoms: C_5  and  C_6
REMARK    4  A    between atoms: C_6  and  C_7
REMARK    5  A    between atoms: C_7  and  C_9
REMARK    6  A    between atoms: C_11  and  C_12
REMARK    7  A    between atoms: C_18  and  C_19
REMARK    8  A    between atoms: C_18  and  C_20
REMARK    9  A    between atoms: C_22  and  C_23
REMARK   10  A    between atoms: C_24  and  O_25
REMARK   11  A    between atoms: O_25  and  C_26
REMARK   12  A    between atoms: C_26  and  C_27
REMARK   13  A    between atoms: C_27  and  O_29
REMARK                            x       y       z     vdW  Elec       q    Type
REMARK                         _______ _______ _______ _____ _____    ______ ____
ROOT
ATOM      1  C   UNL     1       1.292   9.843  19.331  0.00  0.00    +0.000 C 
ENDROOT
BRANCH   1   5
ATOM      2  C   UNL     1      -2.644  12.797  20.257  0.00  0.00    +0.000 C 
ATOM      3  C   UNL     1      -2.017  11.823  19.296  0.00  0.00    +0.000 A 
ATOM      4  C   UNL     1      -0.742  11.330  19.655  0.00  0.00    +0.000 A 
ATOM      5  C   UNL     1      -0.073  10.354  18.905  0.00  0.00    +0.000 A 
ATOM      6  C   UNL     1      -0.694   9.875  17.751  0.00  0.00    +0.000 A 
ATOM      7  C   UNL     1      -1.955  10.358  17.351  0.00  0.00    +0.000 A 
ATOM      8  C   UNL     1      -2.578   9.798  16.097  0.00  0.00    +0.000 C 
ATOM      9  C   UNL     1      -2.617  11.350  18.112  0.00  0.00    +0.000 A 
BRANCH   9  10
ATOM     10  O   UNL     1      -3.848  11.701  17.611  0.00  0.00    +0.000 OA
BRANCH  10  11
ATOM     11  C   UNL     1      -5.014  11.204  18.266  0.00  0.00    +0.000 C 
BRANCH  11  12
ATOM     12  C   UNL     1      -6.116  12.252  18.261  0.00  0.00    +0.000 C 
ATOM     13  O   UNL     1      -7.286  12.009  17.990  0.00  0.00    +0.000 OA
BRANCH  12  14
ATOM     14  O   UNL     1      -5.689  13.491  18.605  0.00  0.00    +0.000 OA
ATOM     15  H   UNL     1      -5.290  13.460  19.500  0.00  0.00    +0.000 HD
ENDBRANCH  12  14
ENDBRANCH  11  12
ENDBRANCH  10  11
ENDBRANCH   9  10
ENDBRANCH   1   5
BRANCH   1  16
ATOM     16  C   UNL     1       1.710   8.585  18.564  0.00  0.00    +0.000 C 
BRANCH  16  17
ATOM     17  C   UNL     1       2.083   7.399  19.457  0.00  0.00    +0.000 C 
ATOM     18  O   UNL     1       1.947   7.469  20.681  0.00  0.00    +0.000 OA
BRANCH  17  19
ATOM     19  C   UNL     1       2.604   6.195  18.804  0.00  0.00    +0.000 A 
ATOM     20  S   UNL     1       1.909   4.631  19.106  0.00  0.00    +0.000 S 
ATOM     21  C   UNL     1       2.888   3.841  17.942  0.00  0.00    +0.000 A 
ATOM     22  C   UNL     1       2.751   2.389  17.664  0.00  0.00    +0.000 C 
ATOM     23  C   UNL     1       3.760   4.744  17.415  0.00  0.00    +0.000 A 
ATOM     24  C   UNL     1       3.622   6.072  17.880  0.00  0.00    +0.000 A 
ATOM     25  C   UNL     1       4.525   7.013  17.145  0.00  0.00    +0.000 C 
ATOM     26  C   UNL     1       5.158   6.126  16.051  0.00  0.00    +0.000 C 
ATOM     27  C   UNL     1       4.744   4.649  16.275  0.00  0.00    +0.000 C 
ATOM     28  C   UNL     1       6.200   5.067  16.330  0.00  0.00    +0.000 C 
ATOM     29  C   UNL     1       7.049   4.607  15.164  0.00  0.00    +0.000 C 
ATOM     30  C   UNL     1       6.941   5.024  17.642  0.00  0.00    +0.000 C 
ENDBRANCH  17  19
ENDBRANCH  16  17
ENDBRANCH   1  16
TORSDOF 8
ENDMDL
MODEL 3
REMARK VINA RESULT:      -8.0      4.381     10.257
REMARK  Name = 
REMARK  13 active torsions:
REMARK  status: ('A' for Active; 'I' for Inactive)
REMARK    1  A    between atoms: C_1  and  C_2
REMARK    2  A    between atoms: C_4  and  C_5
REMARK    3  A    between atoms: C_5  and  C_6
REMARK    4  A    between atoms: C_6  and  C_7
REMARK    5  A    between atoms: C_7  and  C_9
REMARK    6  A    between atoms: C_11  and  C_12
REMARK    7  A    between atoms: C_18  and  C_19
REMARK    8  A    between atoms: C_18  and  C_20
REMARK    9  A    between atoms: C_22  and  C_23
REMARK   10  A    between atoms: C_24  and  O_25
REMARK   11  A    between atoms: O_25  and  C_26
REMARK   12  A    between atoms: C_26  and  C_27
REMARK   13  A    between atoms: C_27  and  O_29
REMARK                            x       y       z     vdW  Elec       q    Type
REMARK                         _______ _______ _______ _____ _____    ______ ____
ROOT
ATOM      1  C   UNL     1       1.992   7.795  20.138  0.00  0.00    +0.000 C 
ENDROOT
BRANCH   1   5
ATOM      2  C   UNL     1       3.005   4.110  16.903  0.00  0.00    +0.000 C 
ATOM      3  C   UNL     1       2.604   4.454  18.312  0.00  0.00    +0.000 A 
ATOM      4  C   UNL     1       2.520   5.833  18.615  0.00  0.00    +0.000 A 
ATOM      5  C   UNL     1       2.077   6.306  19.856  0.00  0.00    +0.000 A 
ATOM      6  C   UNL     1       1.728   5.367  20.828  0.00  0.00    +0.000 A 
ATOM      7  C   UNL     1       1.818   3.986  20.569  0.00  0.00    +0.000 A 
ATOM      8  C   UNL     1       1.420   3.020  21.656  0.00  0.00    +0.000 C 
ATOM      9  C   UNL     1       2.275   3.520  19.313  0.00  0.00    +0.000 A 
BRANCH   9  10
ATOM     10  O   UNL     1       2.283   2.149  19.203  0.00  0.00    +0.000 OA
BRANCH  10  11
ATOM     11  C   UNL     1       3.536   1.492  19.021  0.00  0.00    +0.000 C 
BRANCH  11  12
ATOM     12  C   UNL     1       4.591   2.089  19.940  0.00  0.00    +0.000 C 
ATOM     13  O   UNL     1       4.699   1.806  21.126  0.00  0.00    +0.000 OA
BRANCH  12  14
ATOM     14  O   UNL     1       5.422   2.960  19.319  0.00  0.00    +0.000 OA
ATOM     15  H   UNL     1       6.285   2.524  19.155  0.00  0.00    +0.000 HD
ENDBRANCH  12  14
ENDBRANCH  11  12
ENDBRANCH  10  11
ENDBRANCH   9  10
ENDBRANCH   1   5
BRANCH   1  16
ATOM     16  C   UNL     1       0.891   8.136  21.146  0.00  0.00    +0.000 C 
BRANCH  16  17
ATOM     17  C   UNL     1       1.127   9.437  21.918  0.00  0.00    +0.000 C 
ATOM     18  O   UNL     1       1.876   9.457  22.898  0.00  0.00    +0.000 OA
BRANCH  17  19
ATOM     19  C   UNL     1       0.432  10.640  21.451  0.00  0.00    +0.000 A 
ATOM     20  S   UNL     1       0.868  11.412  19.955  0.00  0.00    +0.000 S 
ATOM     21  C   UNL     1      -0.408  12.552  20.036  0.00  0.00    +0.000 A 
ATOM     22  C   UNL     1      -0.631  13.550  18.960  0.00  0.00    +0.000 C 
ATOM     23  C   UNL     1      -1.079  12.381  21.208  0.00  0.00    +0.000 A 
ATOM     24  C   UNL     1      -0.629  11.314  22.020  0.00  0.00    +0.000 A 
ATOM     25  C   UNL     1      -1.511  11.118  23.214  0.00  0.00    +0.000 C 
ATOM     26  C   UNL     1      -2.665  12.115  22.980  0.00  0.00    +0.000 C 
ATOM     27  C   UNL     1      -2.349  12.995  21.743  0.00  0.00    +0.000 C 
ATOM     28  C   UNL     1      -2.518  13.613  23.116  0.00  0.00    +0.000 C 
ATOM     29  C   UNL     1      -3.786  14.419  23.310  0.00  0.00    +0.000 C 
ATOM     30  C   UNL     1      -1.330  14.224  23.813  0.00  0.00    +0.000 C 
ENDBRANCH  17  19
ENDBRANCH  16  17
ENDBRANCH   1  16
TORSDOF 8
ENDMDL
MODEL 4
REMARK VINA RESULT:      -7.8      4.266     10.063
REMARK  Name = 
REMARK  13 active torsions:
REMARK  status: ('A' for Active; 'I' for Inactive)
REMARK    1  A    between atoms: C_1  and  C_2
REMARK    2  A    between atoms: C_4  and  C_5
REMARK    3  A    between atoms: C_5  and  C_6
REMARK    4  A    between atoms: C_6  and  C_7
REMARK    5  A    between atoms: C_7  and  C_9
REMARK    6  A    between atoms: C_11  and  C_12
REMARK    7  A    between atoms: C_18  and  C_19
REMARK    8  A    between atoms: C_18  and  C_20
REMARK    9  A    between atoms: C_22  and  C_23
REMARK   10  A    between atoms: C_24  and  O_25
REMARK   11  A    between atoms: O_25  and  C_26
REMARK   12  A    between atoms: C_26  and  C_27
REMARK   13  A    between atoms: C_27  and  O_29
REMARK                            x       y       z     vdW  Elec       q    Type
REMARK                         _______ _______ _______ _____ _____    ______ ____
ROOT
ATOM      1  C   UNL     1       1.936   7.877  19.999  0.00  0.00    +0.000 C 
ENDROOT
BRANCH   1   5
ATOM      2  C   UNL     1       1.392   3.124  21.481  0.00  0.00    +0.000 C 
ATOM      3  C   UNL     1       2.184   4.081  20.631  0.00  0.00    +0.000 A 
ATOM      4  C   UNL     1       1.746   5.425  20.634  0.00  0.00    +0.000 A 
ATOM      5  C   UNL     1       2.434   6.442  19.961  0.00  0.00    +0.000 A 
ATOM      6  C   UNL     1       3.581   6.097  19.247  0.00  0.00    +0.000 A 
ATOM      7  C   UNL     1       4.036   4.764  19.204  0.00  0.00    +0.000 A 
ATOM      8  C   UNL     1       5.287   4.453  18.421  0.00  0.00    +0.000 C 
ATOM      9  C   UNL     1       3.328   3.743  19.882  0.00  0.00    +0.000 A 
BRANCH   9  10
ATOM     10  O   UNL     1       3.908   2.501  19.768  0.00  0.00    +0.000 OA
BRANCH  10  11
ATOM     11  C   UNL     1       3.674   1.750  18.578  0.00  0.00    +0.000 C 
BRANCH  11  12
ATOM     12  C   UNL     1       2.328   2.116  17.972  0.00  0.00    +0.000 C 
ATOM     13  O   UNL     1       2.188   2.915  17.054  0.00  0.00    +0.000 OA
BRANCH  12  14
ATOM     14  O   UNL     1       1.284   1.459  18.531  0.00  0.00    +0.000 OA
ATOM     15  H   UNL     1       0.447   1.779  18.132  0.00  0.00    +0.000 HD
ENDBRANCH  12  14
ENDBRANCH  11  12
ENDBRANCH  10  11
ENDBRANCH   9  10
ENDBRANCH   1   5
BRANCH   1  16
ATOM     16  C   UNL     1       0.941   8.119  21.137  0.00  0.00    +0.000 C 
BRANCH  16  17
ATOM     17  C   UNL     1       1.163   9.430  21.897  0.00  0.00    +0.000 C 
ATOM     18  O   UNL     1       1.912   9.467  22.876  0.00  0.00    +0.000 OA
BRANCH  17  19
ATOM     19  C   UNL     1       0.453  10.620  21.419  0.00  0.00    +0.000 A 
ATOM     20  S   UNL     1       0.860  11.365  19.902  0.00  0.00    +0.000 S 
ATOM     21  C   UNL     1      -0.420  12.500  19.982  0.00  0.00    +0.000 A 
ATOM     22  C   UNL     1      -0.666  13.477  18.892  0.00  0.00    +0.000 C 
ATOM     23  C   UNL     1      -1.070  12.349  21.169  0.00  0.00    +0.000 A 
ATOM     24  C   UNL     1      -0.600  11.301  21.993  0.00  0.00    +0.000 A 
ATOM     25  C   UNL     1      -1.460  11.123  23.206  0.00  0.00    +0.000 C 
ATOM     26  C   UNL     1      -2.624  12.110  22.973  0.00  0.00    +0.000 C 
ATOM     27  C   UNL     1      -2.333  12.967  21.714  0.00  0.00    +0.000 C 
ATOM     28  C   UNL     1      -2.482  13.611  23.078  0.00  0.00    +0.000 C 
ATOM     29  C   UNL     1      -3.750  14.414  23.279  0.00  0.00    +0.000 C 
ATOM     30  C   UNL     1      -1.284  14.240  23.743  0.00  0.00    +0.000 C 
ENDBRANCH  17  19
ENDBRANCH  16  17
ENDBRANCH   1  16
TORSDOF 8
ENDMDL
MODEL 5
REMARK VINA RESULT:      -7.8      3.867      9.445
REMARK  Name = 
REMARK  13 active torsions:
REMARK  status: ('A' for Active; 'I' for Inactive)
REMARK    1  A    between atoms: C_1  and  C_2
REMARK    2  A    between atoms: C_4  and  C_5
REMARK    3  A    between atoms: C_5  and  C_6
REMARK    4  A    between atoms: C_6  and  C_7
REMARK    5  A    between atoms: C_7  and  C_9
REMARK    6  A    between atoms: C_11  and  C_12
REMARK    7  A    between atoms: C_18  and  C_19
REMARK    8  A    between atoms: C_18  and  C_20
REMARK    9  A    between atoms: C_22  and  C_23
REMARK   10  A    between atoms: C_24  and  O_25
REMARK   11  A    between atoms: O_25  and  C_26
REMARK   12  A    between atoms: C_26  and  C_27
REMARK   13  A    between atoms: C_27  and  O_29
REMARK                            x       y       z     vdW  Elec       q    Type
REMARK                         _______ _______ _______ _____ _____    ______ ____
ROOT
ATOM      1  C   UNL     1       1.813   7.776  20.055  0.00  0.00    +0.000 C 
ENDROOT
BRANCH   1   5
ATOM      2  C   UNL     1       3.144   4.117  16.906  0.00  0.00    +0.000 C 
ATOM      3  C   UNL     1       2.678   4.454  18.297  0.00  0.00    +0.000 A 
ATOM      4  C   UNL     1       2.504   5.829  18.577  0.00  0.00    +0.000 A 
ATOM      5  C   UNL     1       1.994   6.290  19.797  0.00  0.00    +0.000 A 
ATOM      6  C   UNL     1       1.668   5.345  20.770  0.00  0.00    +0.000 A 
ATOM      7  C   UNL     1       1.846   3.968  20.534  0.00  0.00    +0.000 A 
ATOM      8  C   UNL     1       1.470   2.994  21.621  0.00  0.00    +0.000 C 
ATOM      9  C   UNL     1       2.371   3.514  19.300  0.00  0.00    +0.000 A 
BRANCH   9  10
ATOM     10  O   UNL     1       2.462   2.146  19.209  0.00  0.00    +0.000 OA
BRANCH  10  11
ATOM     11  C   UNL     1       3.755   1.562  19.051  0.00  0.00    +0.000 C 
BRANCH  11  12
ATOM     12  C   UNL     1       4.761   2.238  19.969  0.00  0.00    +0.000 C 
ATOM     13  O   UNL     1       5.399   3.238  19.662  0.00  0.00    +0.000 OA
BRANCH  12  14
ATOM     14  O   UNL     1       4.880   1.640  21.178  0.00  0.00    +0.000 OA
ATOM     15  H   UNL     1       4.135   1.919  21.752  0.00  0.00    +0.000 HD
ENDBRANCH  12  14
ENDBRANCH  11  12
ENDBRANCH  10  11
ENDBRANCH   9  10
ENDBRANCH   1   5
BRANCH   1  16
ATOM     16  C   UNL     1       0.869   8.054  21.228  0.00  0.00    +0.000 C 
BRANCH  16  17
ATOM     17  C   UNL     1       0.835   9.518  21.673  0.00  0.00    +0.000 C 
ATOM     18  O   UNL     1       1.668   9.950  22.472  0.00  0.00    +0.000 OA
BRANCH  17  19
ATOM     19  C   UNL     1      -0.221  10.371  21.119  0.00  0.00    +0.000 A 
ATOM     20  S   UNL     1      -1.087  11.500  22.117  0.00  0.00    +0.000 S 
ATOM     21  C   UNL     1      -1.960  12.170  20.804  0.00  0.00    +0.000 A 
ATOM     22  C   UNL     1      -2.917  13.290  20.994  0.00  0.00    +0.000 C 
ATOM     23  C   UNL     1      -1.644  11.488  19.670  0.00  0.00    +0.000 A 
ATOM     24  C   UNL     1      -0.670  10.474  19.818  0.00  0.00    +0.000 A 
ATOM     25  C   UNL     1      -0.287   9.877  18.499  0.00  0.00    +0.000 C 
ATOM     26  C   UNL     1      -1.048  10.745  17.474  0.00  0.00    +0.000 C 
ATOM     27  C   UNL     1      -1.994  11.720  18.221  0.00  0.00    +0.000 C 
ATOM     28  C   UNL     1      -2.544  10.678  17.269  0.00  0.00    +0.000 C 
ATOM     29  C   UNL     1      -3.089  11.219  15.963  0.00  0.00    +0.000 C 
ATOM     30  C   UNL     1      -3.359   9.529  17.807  0.00  0.00    +0.000 C 
ENDBRANCH  17  19
ENDBRANCH  16  17
ENDBRANCH   1  16
TORSDOF 8
ENDMDL
MODEL 6
REMARK VINA RESULT:      -7.8      3.622      9.329
REMARK  Name = 
REMARK  13 active torsions:
REMARK  status: ('A' for Active; 'I' for Inactive)
REMARK    1  A    between atoms: C_1  and  C_2
REMARK    2  A    between atoms: C_4  and  C_5
REMARK    3  A    between atoms: C_5  and  C_6
REMARK    4  A    between atoms: C_6  and  C_7
REMARK    5  A    between atoms: C_7  and  C_9
REMARK    6  A    between atoms: C_11  and  C_12
REMARK    7  A    between atoms: C_18  and  C_19
REMARK    8  A    between atoms: C_18  and  C_20
REMARK    9  A    between atoms: C_22  and  C_23
REMARK   10  A    between atoms: C_24  and  O_25
REMARK   11  A    between atoms: O_25  and  C_26
REMARK   12  A    between atoms: C_26  and  C_27
REMARK   13  A    between atoms: C_27  and  O_29
REMARK                            x       y       z     vdW  Elec       q    Type
REMARK                         _______ _______ _______ _____ _____    ______ ____
ROOT
ATOM      1  C   UNL     1       0.749   7.603  21.569  0.00  0.00    +0.000 C 
ENDROOT
BRANCH   1   5
ATOM      2  C   UNL     1       3.589   7.569  17.445  0.00  0.00    +0.000 C 
ATOM      3  C   UNL     1       2.964   6.738  18.533  0.00  0.00    +0.000 A 
ATOM      4  C   UNL     1       2.236   7.447  19.516  0.00  0.00    +0.000 A 
ATOM      5  C   UNL     1       1.528   6.804  20.539  0.00  0.00    +0.000 A 
ATOM      6  C   UNL     1       1.570   5.411  20.589  0.00  0.00    +0.000 A 
ATOM      7  C   UNL     1       2.302   4.671  19.640  0.00  0.00    +0.000 A 
ATOM      8  C   UNL     1       2.305   3.167  19.742  0.00  0.00    +0.000 C 
ATOM      9  C   UNL     1       3.020   5.333  18.615  0.00  0.00    +0.000 A 
BRANCH   9  10
ATOM     10  O   UNL     1       3.663   4.478  17.751  0.00  0.00    +0.000 OA
BRANCH  10  11
ATOM     11  C   UNL     1       4.982   4.812  17.323  0.00  0.00    +0.000 C 
BRANCH  11  12
ATOM     12  C   UNL     1       6.013   4.293  18.314  0.00  0.00    +0.000 C 
ATOM     13  O   UNL     1       7.134   4.768  18.442  0.00  0.00    +0.000 OA
BRANCH  12  14
ATOM     14  O   UNL     1       5.569   3.257  19.065  0.00  0.00    +0.000 OA
ATOM     15  H   UNL     1       4.823   2.818  18.603  0.00  0.00    +0.000 HD
ENDBRANCH  12  14
ENDBRANCH  11  12
ENDBRANCH  10  11
ENDBRANCH   9  10
ENDBRANCH   1   5
BRANCH   1  16
ATOM     16  C   UNL     1       1.193   9.067  21.630  0.00  0.00    +0.000 C 
BRANCH  16  17
ATOM     17  C   UNL     1       0.213   9.991  22.359  0.00  0.00    +0.000 C 
ATOM     18  O   UNL     1       0.203  10.048  23.590  0.00  0.00    +0.000 OA
BRANCH  17  19
ATOM     19  C   UNL     1      -0.702  10.791  21.539  0.00  0.00    +0.000 A 
ATOM     20  S   UNL     1      -1.665  12.059  22.238  0.00  0.00    +0.000 S 
ATOM     21  C   UNL     1      -2.288  12.577  20.728  0.00  0.00    +0.000 A 
ATOM     22  C   UNL     1      -3.212  13.735  20.622  0.00  0.00    +0.000 C 
ATOM     23  C   UNL     1      -1.826  11.748  19.753  0.00  0.00    +0.000 A 
ATOM     24  C   UNL     1      -0.933  10.738  20.181  0.00  0.00    +0.000 A 
ATOM     25  C   UNL     1      -0.373   9.969  19.024  0.00  0.00    +0.000 C 
ATOM     26  C   UNL     1      -0.923  10.717  17.791  0.00  0.00    +0.000 C 
ATOM     27  C   UNL     1      -1.931  11.803  18.249  0.00  0.00    +0.000 C 
ATOM     28  C   UNL     1      -2.369  10.661  17.354  0.00  0.00    +0.000 C 
ATOM     29  C   UNL     1      -2.674  11.043  15.920  0.00  0.00    +0.000 C 
ATOM     30  C   UNL     1      -3.308   9.610  17.887  0.00  0.00    +0.000 C 
ENDBRANCH  17  19
ENDBRANCH  16  17
ENDBRANCH   1  16
TORSDOF 8
ENDMDL
MODEL 7
REMARK VINA RESULT:      -7.7      3.516      9.470
REMARK  Name = 
REMARK  13 active torsions:
REMARK  status: ('A' for Active; 'I' for Inactive)
REMARK    1  A    between atoms: C_1  and  C_2
REMARK    2  A    between atoms: C_4  and  C_5
REMARK    3  A    between atoms: C_5  and  C_6
REMARK    4  A    between atoms: C_6  and  C_7
REMARK    5  A    between atoms: C_7  and  C_9
REMARK    6  A    between atoms: C_11  and  C_12
REMARK    7  A    between atoms: C_18  and  C_19
REMARK    8  A    between atoms: C_18  and  C_20
REMARK    9  A    between atoms: C_22  and  C_23
REMARK   10  A    between atoms: C_24  and  O_25
REMARK   11  A    between atoms: O_25  and  C_26
REMARK   12  A    between atoms: C_26  and  C_27
REMARK   13  A    between atoms: C_27  and  O_29
REMARK                            x       y       z     vdW  Elec       q    Type
REMARK                         _______ _______ _______ _____ _____    ______ ____
ROOT
ATOM      1  C   UNL     1       0.446   8.061  21.307  0.00  0.00    +0.000 C 
ENDROOT
BRANCH   1   5
ATOM      2  C   UNL     1       2.630   3.572  20.909  0.00  0.00    +0.000 C 
ATOM      3  C   UNL     1       2.486   4.944  20.308  0.00  0.00    +0.000 A 
ATOM      4  C   UNL     1       1.587   5.818  20.962  0.00  0.00    +0.000 A 
ATOM      5  C   UNL     1       1.414   7.152  20.570  0.00  0.00    +0.000 A 
ATOM      6  C   UNL     1       2.149   7.614  19.479  0.00  0.00    +0.000 A 
ATOM      7  C   UNL     1       3.039   6.767  18.790  0.00  0.00    +0.000 A 
ATOM      8  C   UNL     1       3.810   7.326  17.621  0.00  0.00    +0.000 C 
ATOM      9  C   UNL     1       3.199   5.419  19.189  0.00  0.00    +0.000 A 
BRANCH   9  10
ATOM     10  O   UNL     1       4.119   4.726  18.438  0.00  0.00    +0.000 OA
BRANCH  10  11
ATOM     11  C   UNL     1       5.448   4.599  18.942  0.00  0.00    +0.000 C 
BRANCH  11  12
ATOM     12  C   UNL     1       6.419   4.288  17.814  0.00  0.00    +0.000 C 
ATOM     13  O   UNL     1       7.635   4.393  17.913  0.00  0.00    +0.000 OA
BRANCH  12  14
ATOM     14  O   UNL     1       5.814   3.862  16.679  0.00  0.00    +0.000 OA
ATOM     15  H   UNL     1       5.652   4.630  16.090  0.00  0.00    +0.000 HD
ENDBRANCH  12  14
ENDBRANCH  11  12
ENDBRANCH  10  11
ENDBRANCH   9  10
ENDBRANCH   1   5
BRANCH   1  16
ATOM     16  C   UNL     1       1.114   9.347  21.799  0.00  0.00    +0.000 C 
BRANCH  16  17
ATOM     17  C   UNL     1       0.136  10.484  22.109  0.00  0.00    +0.000 C 
ATOM     18  O   UNL     1      -0.322  10.625  23.245  0.00  0.00    +0.000 OA
BRANCH  17  19
ATOM     19  C   UNL     1      -0.228  11.384  21.010  0.00  0.00    +0.000 A 
ATOM     20  S   UNL     1       0.113  13.087  21.087  0.00  0.00    +0.000 S 
ATOM     21  C   UNL     1      -0.427  13.386  19.489  0.00  0.00    +0.000 A 
ATOM     22  C   UNL     1      -0.360  14.740  18.884  0.00  0.00    +0.000 C 
ATOM     23  C   UNL     1      -0.918  12.229  18.966  0.00  0.00    +0.000 A 
ATOM     24  C   UNL     1      -0.818  11.091  19.799  0.00  0.00    +0.000 A 
ATOM     25  C   UNL     1      -1.254   9.846  19.089  0.00  0.00    +0.000 C 
ATOM     26  C   UNL     1      -1.514  10.325  17.645  0.00  0.00    +0.000 C 
ATOM     27  C   UNL     1      -1.392  11.869  17.579  0.00  0.00    +0.000 C 
ATOM     28  C   UNL     1      -2.698  11.177  17.246  0.00  0.00    +0.000 C 
ATOM     29  C   UNL     1      -3.079  11.189  15.780  0.00  0.00    +0.000 C 
ATOM     30  C   UNL     1      -3.886  11.343  18.157  0.00  0.00    +0.000 C 
ENDBRANCH  17  19
ENDBRANCH  16  17
ENDBRANCH   1  16
TORSDOF 8
ENDMDL
MODEL 8
REMARK VINA RESULT:      -7.7      1.107      1.990
REMARK  Name = 
REMARK  13 active torsions:
REMARK  status: ('A' for Active; 'I' for Inactive)
REMARK    1  A    between atoms: C_1  and  C_2
REMARK    2  A    between atoms: C_4  and  C_5
REMARK    3  A    between atoms: C_5  and  C_6
REMARK    4  A    between atoms: C_6  and  C_7
REMARK    5  A    between atoms: C_7  and  C_9
REMARK    6  A    between atoms: C_11  and  C_12
REMARK    7  A    between atoms: C_18  and  C_19
REMARK    8  A    between atoms: C_18  and  C_20
REMARK    9  A    between atoms: C_22  and  C_23
REMARK   10  A    between atoms: C_24  and  O_25
REMARK   11  A    between atoms: O_25  and  C_26
REMARK   12  A    between atoms: C_26  and  C_27
REMARK   13  A    between atoms: C_27  and  O_29
REMARK                            x       y       z     vdW  Elec       q    Type
REMARK                         _______ _______ _______ _____ _____    ______ ____
ROOT
ATOM      1  C   UNL     1       0.906  10.425  19.757  0.00  0.00    +0.000 C 
ENDROOT
BRANCH   1   5
ATOM      2  C   UNL     1      -2.979  13.446  20.682  0.00  0.00    +0.000 C 
ATOM      3  C   UNL     1      -2.432  12.356  19.800  0.00  0.00    +0.000 A 
ATOM      4  C   UNL     1      -1.116  11.926  20.088  0.00  0.00    +0.000 A 
ATOM      5  C   UNL     1      -0.506  10.863  19.410  0.00  0.00    +0.000 A 
ATOM      6  C   UNL     1      -1.231  10.228  18.401  0.00  0.00    +0.000 A 
ATOM      7  C   UNL     1      -2.536  10.642  18.072  0.00  0.00    +0.000 A 
ATOM      8  C   UNL     1      -3.271   9.913  16.977  0.00  0.00    +0.000 C 
ATOM      9  C   UNL     1      -3.139  11.723  18.759  0.00  0.00    +0.000 A 
BRANCH   9  10
ATOM     10  O   UNL     1      -4.422  11.993  18.345  0.00  0.00    +0.000 OA
BRANCH  10  11
ATOM     11  C   UNL     1      -5.501  11.645  19.211  0.00  0.00    +0.000 C 
BRANCH  11  12
ATOM     12  C   UNL     1      -6.751  11.327  18.405  0.00  0.00    +0.000 C 
ATOM     13  O   UNL     1      -7.236  12.083  17.573  0.00  0.00    +0.000 OA
BRANCH  12  14
ATOM     14  O   UNL     1      -7.277  10.109  18.678  0.00  0.00    +0.000 OA
ATOM     15  H   UNL     1      -6.818   9.429  18.140  0.00  0.00    +0.000 HD
ENDBRANCH  12  14
ENDBRANCH  11  12
ENDBRANCH  10  11
ENDBRANCH   9  10
ENDBRANCH   1   5
BRANCH   1  16
ATOM     16  C   UNL     1       1.109   8.918  19.578  0.00  0.00    +0.000 C 
BRANCH  16  17
ATOM     17  C   UNL     1       2.039   8.543  18.420  0.00  0.00    +0.000 C 
ATOM     18  O   UNL     1       2.169   9.296  17.452  0.00  0.00    +0.000 OA
BRANCH  17  19
ATOM     19  C   UNL     1       2.753   7.266  18.510  0.00  0.00    +0.000 A 
ATOM     20  S   UNL     1       2.370   6.102  19.742  0.00  0.00    +0.000 S 
ATOM     21  C   UNL     1       3.441   4.918  19.121  0.00  0.00    +0.000 A 
ATOM     22  C   UNL     1       3.566   3.576  19.744  0.00  0.00    +0.000 C 
ATOM     23  C   UNL     1       4.113   5.444  18.061  0.00  0.00    +0.000 A 
ATOM     24  C   UNL     1       3.746   6.760  17.696  0.00  0.00    +0.000 A 
ATOM     25  C   UNL     1       4.435   7.199  16.441  0.00  0.00    +0.000 C 
ATOM     26  C   UNL     1       5.185   5.932  15.978  0.00  0.00    +0.000 C 
ATOM     27  C   UNL     1       5.060   4.829  17.060  0.00  0.00    +0.000 C 
ATOM     28  C   UNL     1       6.414   5.388  16.670  0.00  0.00    +0.000 C 
ATOM     29  C   UNL     1       7.296   4.447  15.875  0.00  0.00    +0.000 C 
ATOM     30  C   UNL     1       7.192   6.221  17.656  0.00  0.00    +0.000 C 
ENDBRANCH  17  19
ENDBRANCH  16  17
ENDBRANCH   1  16
TORSDOF 8
ENDMDL
MODEL 9
REMARK VINA RESULT:      -7.6      3.434      9.901
REMARK  Name = 
REMARK  13 active torsions:
REMARK  status: ('A' for Active; 'I' for Inactive)
REMARK    1  A    between atoms: C_1  and  C_2
REMARK    2  A    between atoms: C_4  and  C_5
REMARK    3  A    between atoms: C_5  and  C_6
REMARK    4  A    between atoms: C_6  and  C_7
REMARK    5  A    between atoms: C_7  and  C_9
REMARK    6  A    between atoms: C_11  and  C_12
REMARK    7  A    between atoms: C_18  and  C_19
REMARK    8  A    between atoms: C_18  and  C_20
REMARK    9  A    between atoms: C_22  and  C_23
REMARK   10  A    between atoms: C_24  and  O_25
REMARK   11  A    between atoms: O_25  and  C_26
REMARK   12  A    between atoms: C_26  and  C_27
REMARK   13  A    between atoms: C_27  and  O_29
REMARK                            x       y       z     vdW  Elec       q    Type
REMARK                         _______ _______ _______ _____ _____    ______ ____
ROOT
ATOM      1  C   UNL     1       1.889   9.449  17.953  0.00  0.00    +0.000 C 
ENDROOT
BRANCH   1   5
ATOM      2  C   UNL     1       5.208   6.016  16.444  0.00  0.00    +0.000 C 
ATOM      3  C   UNL     1       4.179   6.383  17.480  0.00  0.00    +0.000 A 
ATOM      4  C   UNL     1       3.564   7.647  17.325  0.00  0.00    +0.000 A 
ATOM      5  C   UNL     1       2.530   8.088  18.159  0.00  0.00    +0.000 A 
ATOM      6  C   UNL     1       2.114   7.245  19.190  0.00  0.00    +0.000 A 
ATOM      7  C   UNL     1       2.716   5.987  19.387  0.00  0.00    +0.000 A 
ATOM      8  C   UNL     1       2.220   5.117  20.514  0.00  0.00    +0.000 C 
ATOM      9  C   UNL     1       3.767   5.555  18.543  0.00  0.00    +0.000 A 
BRANCH   9  10
ATOM     10  O   UNL     1       4.236   4.298  18.843  0.00  0.00    +0.000 OA
BRANCH  10  11
ATOM     11  C   UNL     1       4.176   3.293  17.832  0.00  0.00    +0.000 C 
BRANCH  11  12
ATOM     12  C   UNL     1       2.835   2.576  17.872  0.00  0.00    +0.000 C 
ATOM     13  O   UNL     1       1.798   3.045  17.418  0.00  0.00    +0.000 OA
BRANCH  12  14
ATOM     14  O   UNL     1       2.891   1.350  18.444  0.00  0.00    +0.000 OA
ATOM     15  H   UNL     1       3.769   0.949  18.266  0.00  0.00    +0.000 HD
ENDBRANCH  12  14
ENDBRANCH  11  12
ENDBRANCH  10  11
ENDBRANCH   9  10
ENDBRANCH   1   5
BRANCH   1  16
ATOM     16  C   UNL     1       1.124   9.928  19.189  0.00  0.00    +0.000 C 
BRANCH  16  17
ATOM     17  C   UNL     1       0.772  11.418  19.174  0.00  0.00    +0.000 C 
ATOM     18  O   UNL     1       1.614  12.257  18.845  0.00  0.00    +0.000 OA
BRANCH  17  19
ATOM     19  C   UNL     1      -0.588  11.799  19.564  0.00  0.00    +0.000 A 
ATOM     20  S   UNL     1      -1.885  11.828  18.407  0.00  0.00    +0.000 S 
ATOM     21  C   UNL     1      -3.081  12.184  19.581  0.00  0.00    +0.000 A 
ATOM     22  C   UNL     1      -4.515  12.311  19.219  0.00  0.00    +0.000 C 
ATOM     23  C   UNL     1      -2.477  12.349  20.789  0.00  0.00    +0.000 A 
ATOM     24  C   UNL     1      -1.079  12.138  20.808  0.00  0.00    +0.000 A 
ATOM     25  C   UNL     1      -0.528  12.204  22.199  0.00  0.00    +0.000 C 
ATOM     26  C   UNL     1      -1.787  12.348  23.081  0.00  0.00    +0.000 C 
ATOM     27  C   UNL     1      -3.034  12.536  22.179  0.00  0.00    +0.000 C 
ATOM     28  C   UNL     1      -2.613  13.612  23.160  0.00  0.00    +0.000 C 
ATOM     29  C   UNL     1      -3.514  13.775  24.366  0.00  0.00    +0.000 C 
ATOM     30  C   UNL     1      -2.084  14.927  22.647  0.00  0.00    +0.000 C 
ENDBRANCH  17  19
ENDBRANCH  16  17
ENDBRANCH   1  16
TORSDOF 8
ENDMDL
