MODEL 1
REMARK VINA RESULT:      -7.2      0.000      0.000
REMARK  Name = 
REMARK  5 active torsions:
REMARK  status: ('A' for Active; 'I' for Inactive)
REMARK    1  A    between atoms: C_1  and  C_2
REMARK    2  A    between atoms: C_2  and  C_3
REMARK    3  A    between atoms: C_3  and  C_4
REMARK    4  A    between atoms: N_8  and  N_9
REMARK    5  A    between atoms: N_9  and  C_10
REMARK                            x       y       z     vdW  Elec       q    Type
REMARK                         _______ _______ _______ _____ _____    ______ ____
ROOT
ATOM      1  C   UNL     1       2.113   3.480  19.391  0.00  0.00    +0.000 C 
ATOM      2  C   UNL     1       1.837   3.146  17.913  0.00  0.00    +0.000 C 
ATOM      3  C   UNL     1       1.569   4.876  19.733  0.00  0.00    +0.000 C 
ATOM      4  C   UNL     1       2.766   5.770  19.592  0.00  0.00    +0.000 C 
ATOM      5  O   UNL     1       2.730   6.983  19.438  0.00  0.00    +0.000 OA
ATOM      6  N   UNL     1       3.886   4.984  19.677  0.00  0.00    +0.000 N 
ATOM      7  C   UNL     1       3.621   3.635  19.511  0.00  0.00    +0.000 C 
ATOM      8  O   UNL     1       4.409   2.708  19.387  0.00  0.00    +0.000 OA
ENDROOT
BRANCH   1  10
ATOM      9  C   UNL     1       1.510   2.638  21.773  0.00  0.00    +0.000 C 
ATOM     10  C   UNL     1       1.565   2.346  20.278  0.00  0.00    +0.000 C 
ENDBRANCH   1  10
BRANCH   6  11
ATOM     11  N   UNL     1       5.131   5.549  19.336  0.00  0.00    +0.000 N 
ATOM     12  H   UNL     1       5.859   5.199  19.968  0.00  0.00    +0.000 HD
BRANCH  11  13
ATOM     13  C   UNL     1       5.551   5.391  17.991  0.00  0.00    +0.000 A 
ATOM     14  C   UNL     1       6.748   4.695  17.766  0.00  0.00    +0.000 A 
ATOM     15  C   UNL     1       7.263   4.551  16.475  0.00  0.00    +0.000 A 
ATOM     16  C   UNL     1       6.566   5.085  15.393  0.00  0.00    +0.000 A 
ATOM     17 CL   UNL     1       7.220   4.960  13.807  0.00  0.00    +0.000 Cl
ATOM     18  C   UNL     1       5.345   5.723  15.590  0.00  0.00    +0.000 A 
ATOM     19  C   UNL     1       4.831   5.857  16.884  0.00  0.00    +0.000 A 
ENDBRANCH  11  13
ENDBRANCH   6  11
TORSDOF 3
ENDMDL
MODEL 2
REMARK VINA RESULT:      -7.2      0.151      1.146
REMARK  Name = 
REMARK  5 active torsions:
REMARK  status: ('A' for Active; 'I' for Inactive)
REMARK    1  A    between atoms: C_1  and  C_2
REMARK    2  A    between atoms: C_2  and  C_3
REMARK    3  A    between atoms: C_3  and  C_4
REMARK    4  A    between atoms: N_8  and  N_9
REMARK    5  A    between atoms: N_9  and  C_10
REMARK                            x       y       z     vdW  Elec       q    Type
REMARK                         _______ _______ _______ _____ _____    ______ ____
ROOT
ATOM      1  C   UNL     1       2.129   3.550  19.339  0.00  0.00    +0.000 C 
ATOM      2  C   UNL     1       1.887   3.263  17.845  0.00  0.00    +0.000 C 
ATOM      3  C   UNL     1       1.560   4.926  19.717  0.00  0.00    +0.000 C 
ATOM      4  C   UNL     1       2.747   5.840  19.631  0.00  0.00    +0.000 C 
ATOM      5  O   UNL     1       2.698   7.057  19.518  0.00  0.00    +0.000 OA
ATOM      6  N   UNL     1       3.876   5.065  19.712  0.00  0.00    +0.000 N 
ATOM      7  C   UNL     1       3.632   3.719  19.496  0.00  0.00    +0.000 C 
ATOM      8  O   UNL     1       4.435   2.807  19.356  0.00  0.00    +0.000 OA
ENDROOT
BRANCH   1  10
ATOM      9  C   UNL     1       1.476   2.624  21.677  0.00  0.00    +0.000 C 
ATOM     10  C   UNL     1       1.579   2.379  20.176  0.00  0.00    +0.000 C 
ENDBRANCH   1  10
BRANCH   6  11
ATOM     11  N   UNL     1       5.120   5.657  19.415  0.00  0.00    +0.000 N 
ATOM     12  H   UNL     1       5.818   5.369  20.109  0.00  0.00    +0.000 HD
BRANCH  11  13
ATOM     13  C   UNL     1       5.627   5.444  18.110  0.00  0.00    +0.000 A 
ATOM     14  C   UNL     1       4.918   6.013  17.040  0.00  0.00    +0.000 A 
ATOM     15  C   UNL     1       5.317   5.796  15.719  0.00  0.00    +0.000 A 
ATOM     16  C   UNL     1       6.448   5.027  15.459  0.00  0.00    +0.000 A 
ATOM     17 CL   UNL     1       6.915   4.710  13.834  0.00  0.00    +0.000 Cl
ATOM     18  C   UNL     1       7.201   4.508  16.508  0.00  0.00    +0.000 A 
ATOM     19  C   UNL     1       6.801   4.734  17.829  0.00  0.00    +0.000 A 
ENDBRANCH  11  13
ENDBRANCH   6  11
TORSDOF 3
ENDMDL
MODEL 3
REMARK VINA RESULT:      -7.0      1.387      2.509
REMARK  Name = 
REMARK  5 active torsions:
REMARK  status: ('A' for Active; 'I' for Inactive)
REMARK    1  A    between atoms: C_1  and  C_2
REMARK    2  A    between atoms: C_2  and  C_3
REMARK    3  A    between atoms: C_3  and  C_4
REMARK    4  A    between atoms: N_8  and  N_9
REMARK    5  A    between atoms: N_9  and  C_10
REMARK                            x       y       z     vdW  Elec       q    Type
REMARK                         _______ _______ _______ _____ _____    ______ ____
ROOT
ATOM      1  C   UNL     1       2.271   3.607  20.304  0.00  0.00    +0.000 C 
ATOM      2  C   UNL     1       2.263   4.350  21.653  0.00  0.00    +0.000 C 
ATOM      3  C   UNL     1       2.906   2.217  20.464  0.00  0.00    +0.000 C 
ATOM      4  C   UNL     1       4.332   2.425  20.046  0.00  0.00    +0.000 C 
ATOM      5  O   UNL     1       5.269   1.692  20.331  0.00  0.00    +0.000 OA
ATOM      6  N   UNL     1       4.382   3.568  19.290  0.00  0.00    +0.000 N 
ATOM      7  C   UNL     1       3.252   4.358  19.418  0.00  0.00    +0.000 C 
ATOM      8  O   UNL     1       3.055   5.490  18.998  0.00  0.00    +0.000 OA
ENDROOT
BRANCH   1  10
ATOM      9  C   UNL     1       0.540   2.481  18.728  0.00  0.00    +0.000 C 
ATOM     10  C   UNL     1       0.844   3.595  19.723  0.00  0.00    +0.000 C 
ENDBRANCH   1  10
BRANCH   6  11
ATOM     11  N   UNL     1       5.644   4.113  18.977  0.00  0.00    +0.000 N 
ATOM     12  H   UNL     1       6.381   3.587  19.460  0.00  0.00    +0.000 HD
BRANCH  11  13
ATOM     13  C   UNL     1       5.961   4.225  17.600  0.00  0.00    +0.000 A 
ATOM     14  C   UNL     1       7.241   4.694  17.269  0.00  0.00    +0.000 A 
ATOM     15  C   UNL     1       7.610   4.894  15.936  0.00  0.00    +0.000 A 
ATOM     16  C   UNL     1       6.704   4.600  14.921  0.00  0.00    +0.000 A 
ATOM     17 CL   UNL     1       7.130   4.893  13.280  0.00  0.00    +0.000 Cl
ATOM     18  C   UNL     1       5.452   4.073  15.227  0.00  0.00    +0.000 A 
ATOM     19  C   UNL     1       5.091   3.868  16.562  0.00  0.00    +0.000 A 
ENDBRANCH  11  13
ENDBRANCH   6  11
TORSDOF 3
ENDMDL
MODEL 4
REMARK VINA RESULT:      -7.0      1.875      2.974
REMARK  Name = 
REMARK  5 active torsions:
REMARK  status: ('A' for Active; 'I' for Inactive)
REMARK    1  A    between atoms: C_1  and  C_2
REMARK    2  A    between atoms: C_2  and  C_3
REMARK    3  A    between atoms: C_3  and  C_4
REMARK    4  A    between atoms: N_8  and  N_9
REMARK    5  A    between atoms: N_9  and  C_10
REMARK                            x       y       z     vdW  Elec       q    Type
REMARK                         _______ _______ _______ _____ _____    ______ ____
ROOT
ATOM      1  C   UNL     1       2.562   5.454  19.416  0.00  0.00    +0.000 C 
ATOM      2  C   UNL     1       2.420   4.677  20.738  0.00  0.00    +0.000 C 
ATOM      3  C   UNL     1       1.660   4.838  18.335  0.00  0.00    +0.000 C 
ATOM      4  C   UNL     1       2.580   3.925  17.579  0.00  0.00    +0.000 C 
ATOM      5  O   UNL     1       2.228   2.994  16.868  0.00  0.00    +0.000 OA
ATOM      6  N   UNL     1       3.866   4.331  17.827  0.00  0.00    +0.000 N 
ATOM      7  C   UNL     1       3.972   5.178  18.917  0.00  0.00    +0.000 C 
ATOM      8  O   UNL     1       4.980   5.588  19.475  0.00  0.00    +0.000 OA
ENDROOT
BRANCH   1  10
ATOM      9  C   UNL     1       2.394   7.864  18.459  0.00  0.00    +0.000 C 
ATOM     10  C   UNL     1       2.314   6.952  19.678  0.00  0.00    +0.000 C 
ENDBRANCH   1  10
BRANCH   6  11
ATOM     11  N   UNL     1       4.925   3.491  17.427  0.00  0.00    +0.000 N 
ATOM     12  H   UNL     1       4.584   2.531  17.308  0.00  0.00    +0.000 HD
BRANCH  11  13
ATOM     13  C   UNL     1       5.647   3.888  16.274  0.00  0.00    +0.000 A 
ATOM     14  C   UNL     1       6.837   4.604  16.473  0.00  0.00    +0.000 A 
ATOM     15  C   UNL     1       7.575   5.086  15.388  0.00  0.00    +0.000 A 
ATOM     16  C   UNL     1       7.136   4.832  14.091  0.00  0.00    +0.000 A 
ATOM     17 CL   UNL     1       8.008   5.467  12.751  0.00  0.00    +0.000 Cl
ATOM     18  C   UNL     1       5.993   4.068  13.873  0.00  0.00    +0.000 A 
ATOM     19  C   UNL     1       5.263   3.582  14.962  0.00  0.00    +0.000 A 
ENDBRANCH  11  13
ENDBRANCH   6  11
TORSDOF 3
ENDMDL
MODEL 5
REMARK VINA RESULT:      -6.9      1.770      2.943
REMARK  Name = 
REMARK  5 active torsions:
REMARK  status: ('A' for Active; 'I' for Inactive)
REMARK    1  A    between atoms: C_1  and  C_2
REMARK    2  A    between atoms: C_2  and  C_3
REMARK    3  A    between atoms: C_3  and  C_4
REMARK    4  A    between atoms: N_8  and  N_9
REMARK    5  A    between atoms: N_9  and  C_10
REMARK                            x       y       z     vdW  Elec       q    Type
REMARK                         _______ _______ _______ _____ _____    ______ ____
ROOT
ATOM      1  C   UNL     1       2.538   5.162  19.668  0.00  0.00    +0.000 C 
ATOM      2  C   UNL     1       2.437   4.291  20.934  0.00  0.00    +0.000 C 
ATOM      3  C   UNL     1       1.661   4.581  18.548  0.00  0.00    +0.000 C 
ATOM      4  C   UNL     1       2.619   3.765  17.731  0.00  0.00    +0.000 C 
ATOM      5  O   UNL     1       2.308   2.870  16.958  0.00  0.00    +0.000 OA
ATOM      6  N   UNL     1       3.886   4.212  18.005  0.00  0.00    +0.000 N 
ATOM      7  C   UNL     1       3.957   4.987  19.151  0.00  0.00    +0.000 C 
ATOM      8  O   UNL     1       4.948   5.403  19.735  0.00  0.00    +0.000 OA
ENDROOT
BRANCH   1  10
ATOM      9  C   UNL     1       2.343   7.635  18.898  0.00  0.00    +0.000 C 
ATOM     10  C   UNL     1       2.223   6.626  20.033  0.00  0.00    +0.000 C 
ENDBRANCH   1  10
BRANCH   6  11
ATOM     11  N   UNL     1       4.981   3.451  17.547  0.00  0.00    +0.000 N 
ATOM     12  H   UNL     1       4.677   2.495  17.334  0.00  0.00    +0.000 HD
BRANCH  11  13
ATOM     13  C   UNL     1       5.704   3.980  16.449  0.00  0.00    +0.000 A 
ATOM     14  C   UNL     1       5.239   3.671  15.161  0.00  0.00    +0.000 A 
ATOM     15  C   UNL     1       5.932   4.100  14.026  0.00  0.00    +0.000 A 
ATOM     16  C   UNL     1       7.085   4.867  14.173  0.00  0.00    +0.000 A 
ATOM     17 CL   UNL     1       7.974   5.353  12.783  0.00  0.00    +0.000 Cl
ATOM     18  C   UNL     1       7.526   5.237  15.440  0.00  0.00    +0.000 A 
ATOM     19  C   UNL     1       6.825   4.811  16.573  0.00  0.00    +0.000 A 
ENDBRANCH  11  13
ENDBRANCH   6  11
TORSDOF 3
ENDMDL
MODEL 6
REMARK VINA RESULT:      -6.9      2.076      3.076
REMARK  Name = 
REMARK  5 active torsions:
REMARK  status: ('A' for Active; 'I' for Inactive)
REMARK    1  A    between atoms: C_1  and  C_2
REMARK    2  A    between atoms: C_2  and  C_3
REMARK    3  A    between atoms: C_3  and  C_4
REMARK    4  A    between atoms: N_8  and  N_9
REMARK    5  A    between atoms: N_9  and  C_10
REMARK                            x       y       z     vdW  Elec       q    Type
REMARK                         _______ _______ _______ _____ _____    ______ ____
ROOT
ATOM      1  C   UNL     1       2.239   3.888  19.831  0.00  0.00    +0.000 C 
ATOM      2  C   UNL     1       2.482   5.272  20.462  0.00  0.00    +0.000 C 
ATOM      3  C   UNL     1       3.023   2.809  20.595  0.00  0.00    +0.000 C 
ATOM      4  C   UNL     1       4.282   2.649  19.795  0.00  0.00    +0.000 C 
ATOM      5  O   UNL     1       5.325   2.158  20.206  0.00  0.00    +0.000 OA
ATOM      6  N   UNL     1       4.043   3.140  18.538  0.00  0.00    +0.000 N 
ATOM      7  C   UNL     1       2.906   3.927  18.465  0.00  0.00    +0.000 C 
ATOM      8  O   UNL     1       2.510   4.618  17.538  0.00  0.00    +0.000 OA
ENDROOT
BRANCH   1  10
ATOM      9  C   UNL     1       0.304   2.397  18.948  0.00  0.00    +0.000 C 
ATOM     10  C   UNL     1       0.723   3.632  19.738  0.00  0.00    +0.000 C 
ENDBRANCH   1  10
BRANCH   6  11
ATOM     11  N   UNL     1       5.137   3.324  17.669  0.00  0.00    +0.000 N 
ATOM     12  H   UNL     1       4.844   3.164  16.699  0.00  0.00    +0.000 HD
BRANCH  11  13
ATOM     13  C   UNL     1       5.819   4.562  17.763  0.00  0.00    +0.000 A 
ATOM     14  C   UNL     1       5.432   5.582  16.880  0.00  0.00    +0.000 A 
ATOM     15  C   UNL     1       6.097   6.811  16.867  0.00  0.00    +0.000 A 
ATOM     16  C   UNL     1       7.143   7.037  17.758  0.00  0.00    +0.000 A 
ATOM     17 CL   UNL     1       8.002   8.526  17.711  0.00  0.00    +0.000 Cl
ATOM     18  C   UNL     1       7.499   6.061  18.685  0.00  0.00    +0.000 A 
ATOM     19  C   UNL     1       6.826   4.836  18.699  0.00  0.00    +0.000 A 
ENDBRANCH  11  13
ENDBRANCH   6  11
TORSDOF 3
ENDMDL
MODEL 7
REMARK VINA RESULT:      -6.9      1.216      1.253
REMARK  Name = 
REMARK  5 active torsions:
REMARK  status: ('A' for Active; 'I' for Inactive)
REMARK    1  A    between atoms: C_1  and  C_2
REMARK    2  A    between atoms: C_2  and  C_3
REMARK    3  A    between atoms: C_3  and  C_4
REMARK    4  A    between atoms: N_8  and  N_9
REMARK    5  A    between atoms: N_9  and  C_10
REMARK                            x       y       z     vdW  Elec       q    Type
REMARK                         _______ _______ _______ _____ _____    ______ ____
ROOT
ATOM      1  C   UNL     1       1.948   3.897  19.080  0.00  0.00    +0.000 C 
ATOM      2  C   UNL     1       1.487   3.926  17.611  0.00  0.00    +0.000 C 
ATOM      3  C   UNL     1       2.368   5.303  19.535  0.00  0.00    +0.000 C 
ATOM      4  C   UNL     1       3.858   5.308  19.353  0.00  0.00    +0.000 C 
ATOM      5  O   UNL     1       4.558   6.307  19.267  0.00  0.00    +0.000 OA
ATOM      6  N   UNL     1       4.277   4.004  19.312  0.00  0.00    +0.000 N 
ATOM      7  C   UNL     1       3.246   3.104  19.095  0.00  0.00    +0.000 C 
ATOM      8  O   UNL     1       3.310   1.905  18.863  0.00  0.00    +0.000 OA
ENDROOT
BRANCH   1  10
ATOM      9  C   UNL     1       1.244   2.914  21.379  0.00  0.00    +0.000 C 
ATOM     10  C   UNL     1       0.852   3.246  19.944  0.00  0.00    +0.000 C 
ENDBRANCH   1  10
BRANCH   6  11
ATOM     11  N   UNL     1       5.601   3.735  18.909  0.00  0.00    +0.000 N 
ATOM     12  H   UNL     1       5.847   2.767  19.141  0.00  0.00    +0.000 HD
BRANCH  11  13
ATOM     13  C   UNL     1       5.914   3.996  17.552  0.00  0.00    +0.000 A 
ATOM     14  C   UNL     1       7.178   4.540  17.274  0.00  0.00    +0.000 A 
ATOM     15  C   UNL     1       7.540   4.884  15.969  0.00  0.00    +0.000 A 
ATOM     16  C   UNL     1       6.645   4.661  14.925  0.00  0.00    +0.000 A 
ATOM     17 CL   UNL     1       7.061   5.132  13.324  0.00  0.00    +0.000 Cl
ATOM     18  C   UNL     1       5.413   4.063  15.172  0.00  0.00    +0.000 A 
ATOM     19  C   UNL     1       5.058   3.714  16.479  0.00  0.00    +0.000 A 
ENDBRANCH  11  13
ENDBRANCH   6  11
TORSDOF 3
ENDMDL
MODEL 8
REMARK VINA RESULT:      -6.9      1.455      2.580
REMARK  Name = 
REMARK  5 active torsions:
REMARK  status: ('A' for Active; 'I' for Inactive)
REMARK    1  A    between atoms: C_1  and  C_2
REMARK    2  A    between atoms: C_2  and  C_3
REMARK    3  A    between atoms: C_3  and  C_4
REMARK    4  A    between atoms: N_8  and  N_9
REMARK    5  A    between atoms: N_9  and  C_10
REMARK                            x       y       z     vdW  Elec       q    Type
REMARK                         _______ _______ _______ _____ _____    ______ ____
ROOT
ATOM      1  C   UNL     1       2.329   3.741  19.981  0.00  0.00    +0.000 C 
ATOM      2  C   UNL     1       2.206   4.604  21.251  0.00  0.00    +0.000 C 
ATOM      3  C   UNL     1       2.907   2.360  20.327  0.00  0.00    +0.000 C 
ATOM      4  C   UNL     1       4.373   2.505  20.040  0.00  0.00    +0.000 C 
ATOM      5  O   UNL     1       5.256   1.784  20.484  0.00  0.00    +0.000 OA
ATOM      6  N   UNL     1       4.529   3.573  19.196  0.00  0.00    +0.000 N 
ATOM      7  C   UNL     1       3.413   4.391  19.136  0.00  0.00    +0.000 C 
ATOM      8  O   UNL     1       3.291   5.484  18.600  0.00  0.00    +0.000 OA
ENDROOT
BRANCH   1  10
ATOM      9  C   UNL     1       0.550   2.348  18.699  0.00  0.00    +0.000 C 
ATOM     10  C   UNL     1       0.967   3.702  19.260  0.00  0.00    +0.000 C 
ENDBRANCH   1  10
BRANCH   6  11
ATOM     11  N   UNL     1       5.830   4.064  18.967  0.00  0.00    +0.000 N 
ATOM     12  H   UNL     1       6.522   3.419  19.364  0.00  0.00    +0.000 HD
BRANCH  11  13
ATOM     13  C   UNL     1       6.169   4.358  17.622  0.00  0.00    +0.000 A 
ATOM     14  C   UNL     1       5.521   3.624  16.618  0.00  0.00    +0.000 A 
ATOM     15  C   UNL     1       5.844   3.809  15.271  0.00  0.00    +0.000 A 
ATOM     16  C   UNL     1       6.804   4.753  14.918  0.00  0.00    +0.000 A 
ATOM     17 CL   UNL     1       7.247   4.950  13.267  0.00  0.00    +0.000 Cl
ATOM     18  C   UNL     1       7.412   5.537  15.895  0.00  0.00    +0.000 A 
ATOM     19  C   UNL     1       7.079   5.352  17.241  0.00  0.00    +0.000 A 
ENDBRANCH  11  13
ENDBRANCH   6  11
TORSDOF 3
ENDMDL
MODEL 9
REMARK VINA RESULT:      -6.9      2.748      3.249
REMARK  Name = 
REMARK  5 active torsions:
REMARK  status: ('A' for Active; 'I' for Inactive)
REMARK    1  A    between atoms: C_1  and  C_2
REMARK    2  A    between atoms: C_2  and  C_3
REMARK    3  A    between atoms: C_3  and  C_4
REMARK    4  A    between atoms: N_8  and  N_9
REMARK    5  A    between atoms: N_9  and  C_10
REMARK                            x       y       z     vdW  Elec       q    Type
REMARK                         _______ _______ _______ _____ _____    ______ ____
ROOT
ATOM      1  C   UNL     1       3.296   2.891  18.537  0.00  0.00    +0.000 C 
ATOM      2  C   UNL     1       3.406   1.360  18.403  0.00  0.00    +0.000 C 
ATOM      3  C   UNL     1       3.102   3.535  17.155  0.00  0.00    +0.000 C 
ATOM      4  C   UNL     1       4.489   3.944  16.753  0.00  0.00    +0.000 C 
ATOM      5  O   UNL     1       4.855   4.179  15.611  0.00  0.00    +0.000 OA
ATOM      6  N   UNL     1       5.250   4.011  17.892  0.00  0.00    +0.000 N 
ATOM      7  C   UNL     1       4.670   3.372  18.976  0.00  0.00    +0.000 C 
ATOM      8  O   UNL     1       5.154   3.131  20.072  0.00  0.00    +0.000 OA
ENDROOT
BRANCH   1  10
ATOM      9  C   UNL     1       0.765   2.964  19.117  0.00  0.00    +0.000 C 
ATOM     10  C   UNL     1       2.198   3.233  19.562  0.00  0.00    +0.000 C 
ENDBRANCH   1  10
BRANCH   6  11
ATOM     11  N   UNL     1       6.647   4.140  17.760  0.00  0.00    +0.000 N 
ATOM     12  H   UNL     1       6.955   3.716  16.878  0.00  0.00    +0.000 HD
BRANCH  11  13
ATOM     13  C   UNL     1       7.174   5.451  17.870  0.00  0.00    +0.000 A 
ATOM     14  C   UNL     1       7.903   5.759  19.029  0.00  0.00    +0.000 A 
ATOM     15  C   UNL     1       8.402   7.047  19.242  0.00  0.00    +0.000 A 
ATOM     16  C   UNL     1       8.196   8.032  18.281  0.00  0.00    +0.000 A 
ATOM     17 CL   UNL     1       8.759   9.633  18.560  0.00  0.00    +0.000 Cl
ATOM     18  C   UNL     1       7.531   7.729  17.096  0.00  0.00    +0.000 A 
ATOM     19  C   UNL     1       7.040   6.437  16.884  0.00  0.00    +0.000 A 
ENDBRANCH  11  13
ENDBRANCH   6  11
TORSDOF 3
ENDMDL
