MODEL 1
REMARK VINA RESULT:      -7.7      0.000      0.000
REMARK  Name = 
REMARK  10 active torsions:
REMARK  status: ('A' for Active; 'I' for Inactive)
REMARK    1  A    between atoms: C_1  and  C_2
REMARK    2  A    between atoms: C_2  and  C_3
REMARK    3  A    between atoms: C_3  and  C_4
REMARK    4  A    between atoms: C_4  and  N_5
REMARK    5  A    between atoms: N_5  and  C_6
REMARK    6  A    between atoms: C_7  and  C_9
REMARK    7  A    between atoms: C_16  and  C_17
REMARK    8  A    between atoms: C_17  and  N_18
REMARK    9  A    between atoms: C_17  and  C_19
REMARK   10  A    between atoms: C_19  and  C_20
REMARK                            x       y       z     vdW  Elec       q    Type
REMARK                         _______ _______ _______ _____ _____    ______ ____
ROOT
ATOM      1  C   UNL     1       4.073   4.861  17.839  0.00  0.00    +0.000 A 
ATOM      2  C   UNL     1       2.839   5.446  17.594  0.00  0.00    +0.000 A 
ATOM      3  C   UNL     1       2.191   6.137  18.607  0.00  0.00    +0.000 A 
ATOM      4  C   UNL     1       2.731   6.170  19.892  0.00  0.00    +0.000 A 
ATOM      5  N   UNL     1       2.115   6.886  20.924  0.00  0.00    +0.000 N 
ATOM      6  C   UNL     1       1.448   8.053  20.768  0.00  0.00    +0.000 A 
ATOM      7  N   UNL     1       1.179   8.650  19.626  0.00  0.00    +0.000 NA
ATOM      8  C   UNL     1       0.568   9.881  19.810  0.00  0.00    +0.000 A 
ATOM      9  C   UNL     1       0.282  10.164  21.132  0.00  0.00    +0.000 A 
ATOM     10  S   UNL     1       0.881   8.918  22.150  0.00  0.00    +0.000 S 
ATOM     11  N   UNL     1       3.861   5.495  20.183  0.00  0.00    +0.000 NA
ATOM     12  C   UNL     1       4.511   4.868  19.158  0.00  0.00    +0.000 A 
ATOM     13  H   UNL     1       2.591   6.719  21.801  0.00  0.00    +0.000 HD
ENDROOT
BRANCH   1  16
ATOM     14  N   UNL     1       5.934   4.906  16.149  0.00  0.00    +0.000 N 
ATOM     15  C   UNL     1       6.527   6.151  16.634  0.00  0.00    +0.000 C 
ATOM     16  C   UNL     1       4.894   4.206  16.781  0.00  0.00    +0.000 C 
ATOM     17  O   UNL     1       4.612   3.043  16.505  0.00  0.00    +0.000 OA
BRANCH  14  18
ATOM     18  C   UNL     1       6.639   4.246  15.047  0.00  0.00    +0.000 C 
BRANCH  18  19
ATOM     19  C   UNL     1       6.118   4.591  13.649  0.00  0.00    +0.000 C 
BRANCH  19  21
ATOM     20  C   UNL     1       4.850   3.324  11.899  0.00  0.00    +0.000 C 
ATOM     21  C   UNL     1       6.159   3.417  12.670  0.00  0.00    +0.000 C 
ENDBRANCH  19  21
ENDBRANCH  18  19
ENDBRANCH  14  18
ENDBRANCH   1  16
BRANCH   8  22
ATOM     22  C   UNL     1       0.262  10.705  18.581  0.00  0.00    +0.000 C 
BRANCH  22  23
ATOM     23  N   UNL     1       1.541  11.208  18.048  0.00  0.00    +0.000 NA
ATOM     24  H   UNL     1       2.116  11.543  18.818  0.00  0.00    +0.000 HD
ATOM     25  H   UNL     1       1.331  12.033  17.483  0.00  0.00    +0.000 HD
ENDBRANCH  22  23
BRANCH  22  26
ATOM     26  C   UNL     1      -0.526   9.968  17.475  0.00  0.00    +0.000 C 
BRANCH  26  27
ATOM     27  C   UNL     1      -1.940  10.472  17.279  0.00  0.00    +0.000 A 
ATOM     28  C   UNL     1      -2.590  10.343  16.043  0.00  0.00    +0.000 A 
ATOM     29  C   UNL     1      -3.892  10.822  15.875  0.00  0.00    +0.000 A 
ATOM     30  C   UNL     1      -4.557  11.428  16.937  0.00  0.00    +0.000 A 
ATOM     31  C   UNL     1      -3.925  11.552  18.173  0.00  0.00    +0.000 A 
ATOM     32  C   UNL     1      -2.626  11.071  18.343  0.00  0.00    +0.000 A 
ENDBRANCH  26  27
ENDBRANCH  22  26
ENDBRANCH   8  22
TORSDOF 8
ENDMDL
MODEL 2
REMARK VINA RESULT:      -7.5      0.509      1.089
REMARK  Name = 
REMARK  10 active torsions:
REMARK  status: ('A' for Active; 'I' for Inactive)
REMARK    1  A    between atoms: C_1  and  C_2
REMARK    2  A    between atoms: C_2  and  C_3
REMARK    3  A    between atoms: C_3  and  C_4
REMARK    4  A    between atoms: C_4  and  N_5
REMARK    5  A    between atoms: N_5  and  C_6
REMARK    6  A    between atoms: C_7  and  C_9
REMARK    7  A    between atoms: C_16  and  C_17
REMARK    8  A    between atoms: C_17  and  N_18
REMARK    9  A    between atoms: C_17  and  C_19
REMARK   10  A    between atoms: C_19  and  C_20
REMARK                            x       y       z     vdW  Elec       q    Type
REMARK                         _______ _______ _______ _____ _____    ______ ____
ROOT
ATOM      1  C   UNL     1       3.603   4.670  18.117  0.00  0.00    +0.000 A 
ATOM      2  C   UNL     1       2.407   5.326  17.867  0.00  0.00    +0.000 A 
ATOM      3  C   UNL     1       1.824   6.099  18.861  0.00  0.00    +0.000 A 
ATOM      4  C   UNL     1       2.388   6.146  20.135  0.00  0.00    +0.000 A 
ATOM      5  N   UNL     1       1.839   6.942  21.146  0.00  0.00    +0.000 N 
ATOM      6  C   UNL     1       1.248   8.145  20.952  0.00  0.00    +0.000 A 
ATOM      7  N   UNL     1       1.000   8.713  19.791  0.00  0.00    +0.000 NA
ATOM      8  C   UNL     1       0.476   9.988  19.934  0.00  0.00    +0.000 A 
ATOM      9  C   UNL     1       0.233  10.342  21.248  0.00  0.00    +0.000 A 
ATOM     10  S   UNL     1       0.765   9.101  22.306  0.00  0.00    +0.000 S 
ATOM     11  N   UNL     1       3.475   5.409  20.437  0.00  0.00    +0.000 NA
ATOM     12  C   UNL     1       4.064   4.700  19.428  0.00  0.00    +0.000 A 
ATOM     13  H   UNL     1       2.319   6.779  22.022  0.00  0.00    +0.000 HD
ENDROOT
BRANCH   1  16
ATOM     14  N   UNL     1       5.238   4.590  16.209  0.00  0.00    +0.000 N 
ATOM     15  C   UNL     1       5.746   5.946  16.410  0.00  0.00    +0.000 C 
ATOM     16  C   UNL     1       4.360   3.920  17.075  0.00  0.00    +0.000 C 
ATOM     17  O   UNL     1       4.174   2.706  17.024  0.00  0.00    +0.000 OA
BRANCH  14  18
ATOM     18  C   UNL     1       5.875   3.818  15.140  0.00  0.00    +0.000 C 
BRANCH  18  19
ATOM     19  C   UNL     1       5.557   4.295  13.719  0.00  0.00    +0.000 C 
BRANCH  19  21
ATOM     20  C   UNL     1       7.137   3.923  11.812  0.00  0.00    +0.000 C 
ATOM     21  C   UNL     1       6.002   3.321  12.628  0.00  0.00    +0.000 C 
ENDBRANCH  19  21
ENDBRANCH  18  19
ENDBRANCH  14  18
ENDBRANCH   1  16
BRANCH   8  22
ATOM     22  C   UNL     1       0.204  10.782  18.678  0.00  0.00    +0.000 C 
BRANCH  22  23
ATOM     23  N   UNL     1       1.497  11.269  18.165  0.00  0.00    +0.000 NA
ATOM     24  H   UNL     1       1.595  12.257  18.390  0.00  0.00    +0.000 HD
ATOM     25  H   UNL     1       1.457  11.223  17.145  0.00  0.00    +0.000 HD
ENDBRANCH  22  23
BRANCH  22  26
ATOM     26  C   UNL     1      -0.557  10.019  17.570  0.00  0.00    +0.000 C 
BRANCH  26  27
ATOM     27  C   UNL     1      -1.961  10.525  17.319  0.00  0.00    +0.000 A 
ATOM     28  C   UNL     1      -2.695  11.156  18.335  0.00  0.00    +0.000 A 
ATOM     29  C   UNL     1      -3.995  11.610  18.090  0.00  0.00    +0.000 A 
ATOM     30  C   UNL     1      -4.569  11.442  16.834  0.00  0.00    +0.000 A 
ATOM     31  C   UNL     1      -3.846  10.826  15.815  0.00  0.00    +0.000 A 
ATOM     32  C   UNL     1      -2.547  10.376  16.056  0.00  0.00    +0.000 A 
ENDBRANCH  26  27
ENDBRANCH  22  26
ENDBRANCH   8  22
TORSDOF 8
ENDMDL
MODEL 3
REMARK VINA RESULT:      -7.4      2.381      3.174
REMARK  Name = 
REMARK  10 active torsions:
REMARK  status: ('A' for Active; 'I' for Inactive)
REMARK    1  A    between atoms: C_1  and  C_2
REMARK    2  A    between atoms: C_2  and  C_3
REMARK    3  A    between atoms: C_3  and  C_4
REMARK    4  A    between atoms: C_4  and  N_5
REMARK    5  A    between atoms: N_5  and  C_6
REMARK    6  A    between atoms: C_7  and  C_9
REMARK    7  A    between atoms: C_16  and  C_17
REMARK    8  A    between atoms: C_17  and  N_18
REMARK    9  A    between atoms: C_17  and  C_19
REMARK   10  A    between atoms: C_19  and  C_20
REMARK                            x       y       z     vdW  Elec       q    Type
REMARK                         _______ _______ _______ _____ _____    ______ ____
ROOT
ATOM      1  C   UNL     1       3.881   5.138  18.130  0.00  0.00    +0.000 A 
ATOM      2  C   UNL     1       2.962   6.071  17.674  0.00  0.00    +0.000 A 
ATOM      3  C   UNL     1       2.169   6.758  18.583  0.00  0.00    +0.000 A 
ATOM      4  C   UNL     1       2.229   6.448  19.941  0.00  0.00    +0.000 A 
ATOM      5  N   UNL     1       1.465   7.147  20.882  0.00  0.00    +0.000 N 
ATOM      6  C   UNL     1       1.158   8.463  20.810  0.00  0.00    +0.000 A 
ATOM      7  N   UNL     1       1.431   9.273  19.810  0.00  0.00    +0.000 NA
ATOM      8  C   UNL     1       1.073  10.584  20.084  0.00  0.00    +0.000 A 
ATOM      9  C   UNL     1       0.418  10.736  21.291  0.00  0.00    +0.000 A 
ATOM     10  S   UNL     1       0.350   9.237  22.124  0.00  0.00    +0.000 S 
ATOM     11  N   UNL     1       3.018   5.451  20.388  0.00  0.00    +0.000 NA
ATOM     12  C   UNL     1       3.831   4.828  19.484  0.00  0.00    +0.000 A 
ATOM     13  H   UNL     1       1.563   6.727  21.797  0.00  0.00    +0.000 HD
ENDROOT
BRANCH   1  16
ATOM     14  N   UNL     1       6.058   5.070  16.872  0.00  0.00    +0.000 N 
ATOM     15  C   UNL     1       6.627   6.247  17.525  0.00  0.00    +0.000 C 
ATOM     16  C   UNL     1       4.856   4.445  17.239  0.00  0.00    +0.000 C 
ATOM     17  O   UNL     1       4.550   3.317  16.859  0.00  0.00    +0.000 OA
BRANCH  14  18
ATOM     18  C   UNL     1       6.927   4.384  15.914  0.00  0.00    +0.000 C 
BRANCH  18  19
ATOM     19  C   UNL     1       6.725   4.791  14.451  0.00  0.00    +0.000 C 
BRANCH  19  21
ATOM     20  C   UNL     1       6.568   3.631  12.236  0.00  0.00    +0.000 C 
ATOM     21  C   UNL     1       5.957   3.759  13.625  0.00  0.00    +0.000 C 
ENDBRANCH  19  21
ENDBRANCH  18  19
ENDBRANCH  14  18
ENDBRANCH   1  16
BRANCH   8  22
ATOM     22  C   UNL     1       1.391  11.633  19.045  0.00  0.00    +0.000 C 
BRANCH  22  23
ATOM     23  N   UNL     1       1.836  10.936  17.825  0.00  0.00    +0.000 NA
ATOM     24  H   UNL     1       1.047  10.839  17.188  0.00  0.00    +0.000 HD
ATOM     25  H   UNL     1       2.088   9.983  18.094  0.00  0.00    +0.000 HD
ENDBRANCH  22  23
BRANCH  22  26
ATOM     26  C   UNL     1       0.234  12.602  18.714  0.00  0.00    +0.000 C 
BRANCH  26  27
ATOM     27  C   UNL     1       0.640  14.060  18.665  0.00  0.00    +0.000 A 
ATOM     28  C   UNL     1      -0.324  15.080  18.652  0.00  0.00    +0.000 A 
ATOM     29  C   UNL     1       0.067  16.421  18.598  0.00  0.00    +0.000 A 
ATOM     30  C   UNL     1       1.417  16.755  18.560  0.00  0.00    +0.000 A 
ATOM     31  C   UNL     1       2.383  15.751  18.583  0.00  0.00    +0.000 A 
ATOM     32  C   UNL     1       1.995  14.411  18.641  0.00  0.00    +0.000 A 
ENDBRANCH  26  27
ENDBRANCH  22  26
ENDBRANCH   8  22
TORSDOF 8
ENDMDL
MODEL 4
REMARK VINA RESULT:      -7.3      2.695      3.694
REMARK  Name = 
REMARK  10 active torsions:
REMARK  status: ('A' for Active; 'I' for Inactive)
REMARK    1  A    between atoms: C_1  and  C_2
REMARK    2  A    between atoms: C_2  and  C_3
REMARK    3  A    between atoms: C_3  and  C_4
REMARK    4  A    between atoms: C_4  and  N_5
REMARK    5  A    between atoms: N_5  and  C_6
REMARK    6  A    between atoms: C_7  and  C_9
REMARK    7  A    between atoms: C_16  and  C_17
REMARK    8  A    between atoms: C_17  and  N_18
REMARK    9  A    between atoms: C_17  and  C_19
REMARK   10  A    between atoms: C_19  and  C_20
REMARK                            x       y       z     vdW  Elec       q    Type
REMARK                         _______ _______ _______ _____ _____    ______ ____
ROOT
ATOM      1  C   UNL     1       3.967   5.352  18.143  0.00  0.00    +0.000 A 
ATOM      2  C   UNL     1       3.086   6.328  17.701  0.00  0.00    +0.000 A 
ATOM      3  C   UNL     1       2.243   6.955  18.607  0.00  0.00    +0.000 A 
ATOM      4  C   UNL     1       2.214   6.545  19.940  0.00  0.00    +0.000 A 
ATOM      5  N   UNL     1       1.397   7.181  20.880  0.00  0.00    +0.000 N 
ATOM      6  C   UNL     1       1.105   8.503  20.888  0.00  0.00    +0.000 A 
ATOM      7  N   UNL     1       1.448   9.381  19.970  0.00  0.00    +0.000 NA
ATOM      8  C   UNL     1       1.083  10.672  20.319  0.00  0.00    +0.000 A 
ATOM      9  C   UNL     1       0.354  10.743  21.491  0.00  0.00    +0.000 A 
ATOM     10  S   UNL     1       0.222   9.188  22.203  0.00  0.00    +0.000 S 
ATOM     11  N   UNL     1       2.966   5.508  20.359  0.00  0.00    +0.000 NA
ATOM     12  C   UNL     1       3.829   4.942  19.464  0.00  0.00    +0.000 A 
ATOM     13  H   UNL     1       1.434   6.693  21.766  0.00  0.00    +0.000 HD
ENDROOT
BRANCH   1  16
ATOM     14  N   UNL     1       6.106   5.443  16.823  0.00  0.00    +0.000 N 
ATOM     15  C   UNL     1       6.557   6.715  17.386  0.00  0.00    +0.000 C 
ATOM     16  C   UNL     1       4.991   4.714  17.265  0.00  0.00    +0.000 C 
ATOM     17  O   UNL     1       4.803   3.538  16.963  0.00  0.00    +0.000 OA
BRANCH  14  18
ATOM     18  C   UNL     1       7.022   4.797  15.881  0.00  0.00    +0.000 C 
BRANCH  18  19
ATOM     19  C   UNL     1       6.692   5.019  14.402  0.00  0.00    +0.000 C 
BRANCH  19  21
ATOM     20  C   UNL     1       6.427   3.602  12.353  0.00  0.00    +0.000 C 
ATOM     21  C   UNL     1       5.918   3.865  13.764  0.00  0.00    +0.000 C 
ENDBRANCH  19  21
ENDBRANCH  18  19
ENDBRANCH  14  18
ENDBRANCH   1  16
BRANCH   8  22
ATOM     22  C   UNL     1       1.474  11.792  19.382  0.00  0.00    +0.000 C 
BRANCH  22  23
ATOM     23  N   UNL     1       0.439  11.885  18.337  0.00  0.00    +0.000 NA
ATOM     24  H   UNL     1      -0.215  12.627  18.580  0.00  0.00    +0.000 HD
ATOM     25  H   UNL     1      -0.104  11.020  18.369  0.00  0.00    +0.000 HD
ENDBRANCH  22  23
BRANCH  22  26
ATOM     26  C   UNL     1       1.681  13.168  20.054  0.00  0.00    +0.000 C 
BRANCH  26  27
ATOM     27  C   UNL     1       2.227  14.235  19.128  0.00  0.00    +0.000 A 
ATOM     28  C   UNL     1       3.445  14.055  18.455  0.00  0.00    +0.000 A 
ATOM     29  C   UNL     1       3.940  15.053  17.611  0.00  0.00    +0.000 A 
ATOM     30  C   UNL     1       3.225  16.233  17.429  0.00  0.00    +0.000 A 
ATOM     31  C   UNL     1       2.009  16.418  18.084  0.00  0.00    +0.000 A 
ATOM     32  C   UNL     1       1.512  15.421  18.924  0.00  0.00    +0.000 A 
ENDBRANCH  26  27
ENDBRANCH  22  26
ENDBRANCH   8  22
TORSDOF 8
ENDMDL
MODEL 5
REMARK VINA RESULT:      -7.3      2.404      3.882
REMARK  Name = 
REMARK  10 active torsions:
REMARK  status: ('A' for Active; 'I' for Inactive)
REMARK    1  A    between atoms: C_1  and  C_2
REMARK    2  A    between atoms: C_2  and  C_3
REMARK    3  A    between atoms: C_3  and  C_4
REMARK    4  A    between atoms: C_4  and  N_5
REMARK    5  A    between atoms: N_5  and  C_6
REMARK    6  A    between atoms: C_7  and  C_9
REMARK    7  A    between atoms: C_16  and  C_17
REMARK    8  A    between atoms: C_17  and  N_18
REMARK    9  A    between atoms: C_17  and  C_19
REMARK   10  A    between atoms: C_19  and  C_20
REMARK                            x       y       z     vdW  Elec       q    Type
REMARK                         _______ _______ _______ _____ _____    ______ ____
ROOT
ATOM      1  C   UNL     1       4.067   5.103  18.025  0.00  0.00    +0.000 A 
ATOM      2  C   UNL     1       3.029   5.926  17.616  0.00  0.00    +0.000 A 
ATOM      3  C   UNL     1       2.237   6.560  18.564  0.00  0.00    +0.000 A 
ATOM      4  C   UNL     1       2.425   6.302  19.921  0.00  0.00    +0.000 A 
ATOM      5  N   UNL     1       1.663   6.951  20.898  0.00  0.00    +0.000 N 
ATOM      6  C   UNL     1       1.220   8.228  20.817  0.00  0.00    +0.000 A 
ATOM      7  N   UNL     1       1.339   9.028  19.779  0.00  0.00    +0.000 NA
ATOM      8  C   UNL     1       0.871  10.305  20.047  0.00  0.00    +0.000 A 
ATOM      9  C   UNL     1       0.292  10.431  21.295  0.00  0.00    +0.000 A 
ATOM     10  S   UNL     1       0.434   8.960  22.168  0.00  0.00    +0.000 S 
ATOM     11  N   UNL     1       3.340   5.402  20.333  0.00  0.00    +0.000 NA
ATOM     12  C   UNL     1       4.145   4.833  19.387  0.00  0.00    +0.000 A 
ATOM     13  H   UNL     1       1.868   6.572  21.814  0.00  0.00    +0.000 HD
ENDROOT
BRANCH   1  16
ATOM     14  N   UNL     1       6.173   5.191  16.655  0.00  0.00    +0.000 N 
ATOM     15  C   UNL     1       6.691   6.406  17.282  0.00  0.00    +0.000 C 
ATOM     16  C   UNL     1       5.041   4.481  17.082  0.00  0.00    +0.000 C 
ATOM     17  O   UNL     1       4.796   3.335  16.714  0.00  0.00    +0.000 OA
BRANCH  14  18
ATOM     18  C   UNL     1       7.038   4.569  15.650  0.00  0.00    +0.000 C 
BRANCH  18  19
ATOM     19  C   UNL     1       6.700   4.920  14.198  0.00  0.00    +0.000 C 
BRANCH  19  21
ATOM     20  C   UNL     1       6.500   3.488  12.153  0.00  0.00    +0.000 C 
ATOM     21  C   UNL     1       5.863   3.857  13.486  0.00  0.00    +0.000 C 
ENDBRANCH  19  21
ENDBRANCH  18  19
ENDBRANCH  14  18
ENDBRANCH   1  16
BRANCH   8  22
ATOM     22  C   UNL     1       1.007  11.347  18.961  0.00  0.00    +0.000 C 
BRANCH  22  23
ATOM     23  N   UNL     1      -0.045  11.093  17.960  0.00  0.00    +0.000 NA
ATOM     24  H   UNL     1      -0.322  11.975  17.535  0.00  0.00    +0.000 HD
ATOM     25  H   UNL     1      -0.870  10.761  18.464  0.00  0.00    +0.000 HD
ENDBRANCH  22  23
BRANCH  22  26
ATOM     26  C   UNL     1       0.941  12.813  19.445  0.00  0.00    +0.000 C 
BRANCH  26  27
ATOM     27  C   UNL     1       2.268  13.542  19.401  0.00  0.00    +0.000 A 
ATOM     28  C   UNL     1       2.878  14.003  20.577  0.00  0.00    +0.000 A 
ATOM     29  C   UNL     1       4.099  14.683  20.519  0.00  0.00    +0.000 A 
ATOM     30  C   UNL     1       4.720  14.902  19.294  0.00  0.00    +0.000 A 
ATOM     31  C   UNL     1       4.127  14.439  18.121  0.00  0.00    +0.000 A 
ATOM     32  C   UNL     1       2.910  13.757  18.177  0.00  0.00    +0.000 A 
ENDBRANCH  26  27
ENDBRANCH  22  26
ENDBRANCH   8  22
TORSDOF 8
ENDMDL
MODEL 6
REMARK VINA RESULT:      -7.2      0.971      1.209
REMARK  Name = 
REMARK  10 active torsions:
REMARK  status: ('A' for Active; 'I' for Inactive)
REMARK    1  A    between atoms: C_1  and  C_2
REMARK    2  A    between atoms: C_2  and  C_3
REMARK    3  A    between atoms: C_3  and  C_4
REMARK    4  A    between atoms: C_4  and  N_5
REMARK    5  A    between atoms: N_5  and  C_6
REMARK    6  A    between atoms: C_7  and  C_9
REMARK    7  A    between atoms: C_16  and  C_17
REMARK    8  A    between atoms: C_17  and  N_18
REMARK    9  A    between atoms: C_17  and  C_19
REMARK   10  A    between atoms: C_19  and  C_20
REMARK                            x       y       z     vdW  Elec       q    Type
REMARK                         _______ _______ _______ _____ _____    ______ ____
ROOT
ATOM      1  C   UNL     1       3.902   5.104  18.234  0.00  0.00    +0.000 A 
ATOM      2  C   UNL     1       2.965   6.009  17.759  0.00  0.00    +0.000 A 
ATOM      3  C   UNL     1       2.143   6.682  18.652  0.00  0.00    +0.000 A 
ATOM      4  C   UNL     1       2.194   6.386  20.014  0.00  0.00    +0.000 A 
ATOM      5  N   UNL     1       1.401   7.071  20.939  0.00  0.00    +0.000 N 
ATOM      6  C   UNL     1       1.060   8.379  20.852  0.00  0.00    +0.000 A 
ATOM      7  N   UNL     1       1.326   9.187  19.848  0.00  0.00    +0.000 NA
ATOM      8  C   UNL     1       0.930  10.491  20.107  0.00  0.00    +0.000 A 
ATOM      9  C   UNL     1       0.256  10.636  21.305  0.00  0.00    +0.000 A 
ATOM     10  S   UNL     1       0.216   9.143  22.150  0.00  0.00    +0.000 S 
ATOM     11  N   UNL     1       3.003   5.413  20.479  0.00  0.00    +0.000 NA
ATOM     12  C   UNL     1       3.843   4.803  19.590  0.00  0.00    +0.000 A 
ATOM     13  H   UNL     1       1.499   6.662  21.859  0.00  0.00    +0.000 HD
ENDROOT
BRANCH   1  16
ATOM     14  N   UNL     1       6.112   5.067  17.035  0.00  0.00    +0.000 N 
ATOM     15  C   UNL     1       6.656   6.238  17.719  0.00  0.00    +0.000 C 
ATOM     16  C   UNL     1       4.905   4.429  17.361  0.00  0.00    +0.000 C 
ATOM     17  O   UNL     1       4.617   3.304  16.957  0.00  0.00    +0.000 OA
BRANCH  14  18
ATOM     18  C   UNL     1       7.011   4.399  16.092  0.00  0.00    +0.000 C 
BRANCH  18  19
ATOM     19  C   UNL     1       7.080   5.037  14.701  0.00  0.00    +0.000 C 
BRANCH  19  21
ATOM     20  C   UNL     1       5.204   3.887  13.503  0.00  0.00    +0.000 C 
ATOM     21  C   UNL     1       6.713   4.081  13.566  0.00  0.00    +0.000 C 
ENDBRANCH  19  21
ENDBRANCH  18  19
ENDBRANCH  14  18
ENDBRANCH   1  16
BRANCH   8  22
ATOM     22  C   UNL     1       1.233  11.539  19.063  0.00  0.00    +0.000 C 
BRANCH  22  23
ATOM     23  N   UNL     1       1.808  10.853  17.891  0.00  0.00    +0.000 NA
ATOM     24  H   UNL     1       2.648  11.346  17.594  0.00  0.00    +0.000 HD
ATOM     25  H   UNL     1       1.143  10.956  17.122  0.00  0.00    +0.000 HD
ENDBRANCH  22  23
BRANCH  22  26
ATOM     26  C   UNL     1       0.030  12.409  18.635  0.00  0.00    +0.000 C 
BRANCH  26  27
ATOM     27  C   UNL     1      -1.218  11.620  18.301  0.00  0.00    +0.000 A 
ATOM     28  C   UNL     1      -1.161  10.496  17.463  0.00  0.00    +0.000 A 
ATOM     29  C   UNL     1      -2.324   9.784  17.156  0.00  0.00    +0.000 A 
ATOM     30  C   UNL     1      -3.548  10.183  17.683  0.00  0.00    +0.000 A 
ATOM     31  C   UNL     1      -3.616  11.292  18.524  0.00  0.00    +0.000 A 
ATOM     32  C   UNL     1      -2.455  12.002  18.835  0.00  0.00    +0.000 A 
ENDBRANCH  26  27
ENDBRANCH  22  26
ENDBRANCH   8  22
TORSDOF 8
ENDMDL
MODEL 7
REMARK VINA RESULT:      -7.2      2.272      3.048
REMARK  Name = 
REMARK  10 active torsions:
REMARK  status: ('A' for Active; 'I' for Inactive)
REMARK    1  A    between atoms: C_1  and  C_2
REMARK    2  A    between atoms: C_2  and  C_3
REMARK    3  A    between atoms: C_3  and  C_4
REMARK    4  A    between atoms: C_4  and  N_5
REMARK    5  A    between atoms: N_5  and  C_6
REMARK    6  A    between atoms: C_7  and  C_9
REMARK    7  A    between atoms: C_16  and  C_17
REMARK    8  A    between atoms: C_17  and  N_18
REMARK    9  A    between atoms: C_17  and  C_19
REMARK   10  A    between atoms: C_19  and  C_20
REMARK                            x       y       z     vdW  Elec       q    Type
REMARK                         _______ _______ _______ _____ _____    ______ ____
ROOT
ATOM      1  C   UNL     1       3.623   4.861  18.106  0.00  0.00    +0.000 A 
ATOM      2  C   UNL     1       2.651   5.776  17.730  0.00  0.00    +0.000 A 
ATOM      3  C   UNL     1       1.981   6.508  18.701  0.00  0.00    +0.000 A 
ATOM      4  C   UNL     1       2.217   6.261  20.053  0.00  0.00    +0.000 A 
ATOM      5  N   UNL     1       1.579   7.005  21.051  0.00  0.00    +0.000 N 
ATOM      6  C   UNL     1       1.263   8.318  20.958  0.00  0.00    +0.000 A 
ATOM      7  N   UNL     1       1.403   9.080  19.895  0.00  0.00    +0.000 NA
ATOM      8  C   UNL     1       1.080  10.403  20.152  0.00  0.00    +0.000 A 
ATOM      9  C   UNL     1       0.587  10.614  21.425  0.00  0.00    +0.000 A 
ATOM     10  S   UNL     1       0.630   9.156  22.329  0.00  0.00    +0.000 S 
ATOM     11  N   UNL     1       3.059   5.282  20.440  0.00  0.00    +0.000 NA
ATOM     12  C   UNL     1       3.749   4.614  19.468  0.00  0.00    +0.000 A 
ATOM     13  H   UNL     1       1.796   6.628  21.965  0.00  0.00    +0.000 HD
ENDROOT
BRANCH   1  16
ATOM     14  N   UNL     1       5.444   4.801  16.374  0.00  0.00    +0.000 N 
ATOM     15  C   UNL     1       5.943   6.146  16.656  0.00  0.00    +0.000 C 
ATOM     16  C   UNL     1       4.475   4.123  17.130  0.00  0.00    +0.000 C 
ATOM     17  O   UNL     1       4.282   2.914  17.033  0.00  0.00    +0.000 OA
BRANCH  14  18
ATOM     18  C   UNL     1       6.179   4.044  15.358  0.00  0.00    +0.000 C 
BRANCH  18  19
ATOM     19  C   UNL     1       5.525   4.013  13.974  0.00  0.00    +0.000 C 
BRANCH  19  21
ATOM     20  C   UNL     1       5.788   2.840  11.777  0.00  0.00    +0.000 C 
ATOM     21  C   UNL     1       6.492   3.668  12.842  0.00  0.00    +0.000 C 
ENDBRANCH  19  21
ENDBRANCH  18  19
ENDBRANCH  14  18
ENDBRANCH   1  16
BRANCH   8  22
ATOM     22  C   UNL     1       1.259  11.402  19.032  0.00  0.00    +0.000 C 
BRANCH  22  23
ATOM     23  N   UNL     1       1.457  10.645  17.783  0.00  0.00    +0.000 NA
ATOM     24  H   UNL     1       2.186   9.949  17.926  0.00  0.00    +0.000 HD
ATOM     25  H   UNL     1       1.832  11.295  17.090  0.00  0.00    +0.000 HD
ENDBRANCH  22  23
BRANCH  22  26
ATOM     26  C   UNL     1       0.105  12.416  18.866  0.00  0.00    +0.000 C 
BRANCH  26  27
ATOM     27  C   UNL     1       0.554  13.860  18.789  0.00  0.00    +0.000 A 
ATOM     28  C   UNL     1       1.898  14.189  18.559  0.00  0.00    +0.000 A 
ATOM     29  C   UNL     1       2.298  15.527  18.500  0.00  0.00    +0.000 A 
ATOM     30  C   UNL     1       1.363  16.544  18.664  0.00  0.00    +0.000 A 
ATOM     31  C   UNL     1       0.024  16.229  18.882  0.00  0.00    +0.000 A 
ATOM     32  C   UNL     1      -0.378  14.894  18.938  0.00  0.00    +0.000 A 
ENDBRANCH  26  27
ENDBRANCH  22  26
ENDBRANCH   8  22
TORSDOF 8
ENDMDL
MODEL 8
REMARK VINA RESULT:      -7.2      1.415      1.928
REMARK  Name = 
REMARK  10 active torsions:
REMARK  status: ('A' for Active; 'I' for Inactive)
REMARK    1  A    between atoms: C_1  and  C_2
REMARK    2  A    between atoms: C_2  and  C_3
REMARK    3  A    between atoms: C_3  and  C_4
REMARK    4  A    between atoms: C_4  and  N_5
REMARK    5  A    between atoms: N_5  and  C_6
REMARK    6  A    between atoms: C_7  and  C_9
REMARK    7  A    between atoms: C_16  and  C_17
REMARK    8  A    between atoms: C_17  and  N_18
REMARK    9  A    between atoms: C_17  and  C_19
REMARK   10  A    between atoms: C_19  and  C_20
REMARK                            x       y       z     vdW  Elec       q    Type
REMARK                         _______ _______ _______ _____ _____    ______ ____
ROOT
ATOM      1  C   UNL     1       4.185   6.390  17.945  0.00  0.00    +0.000 A 
ATOM      2  C   UNL     1       3.171   7.266  17.590  0.00  0.00    +0.000 A 
ATOM      3  C   UNL     1       2.231   7.653  18.535  0.00  0.00    +0.000 A 
ATOM      4  C   UNL     1       2.251   7.095  19.813  0.00  0.00    +0.000 A 
ATOM      5  N   UNL     1       1.336   7.490  20.795  0.00  0.00    +0.000 N 
ATOM      6  C   UNL     1       0.846   8.744  20.940  0.00  0.00    +0.000 A 
ATOM      7  N   UNL     1       1.062   9.762  20.135  0.00  0.00    +0.000 NA
ATOM      8  C   UNL     1       0.500  10.936  20.614  0.00  0.00    +0.000 A 
ATOM      9  C   UNL     1      -0.243  10.763  21.766  0.00  0.00    +0.000 A 
ATOM     10  S   UNL     1      -0.145   9.134  22.298  0.00  0.00    +0.000 S 
ATOM     11  N   UNL     1       3.147   6.141  20.136  0.00  0.00    +0.000 NA
ATOM     12  C   UNL     1       4.096   5.817  19.208  0.00  0.00    +0.000 A 
ATOM     13  H   UNL     1       1.437   6.916  21.622  0.00  0.00    +0.000 HD
ENDROOT
BRANCH   1  16
ATOM     14  N   UNL     1       5.446   4.695  16.580  0.00  0.00    +0.000 N 
ATOM     15  C   UNL     1       4.415   3.663  16.663  0.00  0.00    +0.000 C 
ATOM     16  C   UNL     1       5.303   6.017  17.032  0.00  0.00    +0.000 C 
ATOM     17  O   UNL     1       6.072   6.918  16.704  0.00  0.00    +0.000 OA
BRANCH  14  18
ATOM     18  C   UNL     1       6.620   4.367  15.769  0.00  0.00    +0.000 C 
BRANCH  18  19
ATOM     19  C   UNL     1       6.525   4.778  14.297  0.00  0.00    +0.000 C 
BRANCH  19  21
ATOM     20  C   UNL     1       6.825   3.659  12.076  0.00  0.00    +0.000 C 
ATOM     21  C   UNL     1       6.033   3.662  13.376  0.00  0.00    +0.000 C 
ENDBRANCH  19  21
ENDBRANCH  18  19
ENDBRANCH  14  18
ENDBRANCH   1  16
BRANCH   8  22
ATOM     22  C   UNL     1       0.727  12.200  19.819  0.00  0.00    +0.000 C 
BRANCH  22  23
ATOM     23  N   UNL     1       1.739  11.906  18.787  0.00  0.00    +0.000 NA
ATOM     24  H   UNL     1       1.835  12.714  18.175  0.00  0.00    +0.000 HD
ATOM     25  H   UNL     1       1.365  11.160  18.199  0.00  0.00    +0.000 HD
ENDBRANCH  22  23
BRANCH  22  26
ATOM     26  C   UNL     1      -0.538  12.804  19.170  0.00  0.00    +0.000 C 
BRANCH  26  27
ATOM     27  C   UNL     1      -1.473  11.780  18.562  0.00  0.00    +0.000 A 
ATOM     28  C   UNL     1      -2.844  11.786  18.858  0.00  0.00    +0.000 A 
ATOM     29  C   UNL     1      -3.693  10.828  18.296  0.00  0.00    +0.000 A 
ATOM     30  C   UNL     1      -3.183   9.862  17.434  0.00  0.00    +0.000 A 
ATOM     31  C   UNL     1      -1.825   9.853  17.124  0.00  0.00    +0.000 A 
ATOM     32  C   UNL     1      -0.976  10.811  17.681  0.00  0.00    +0.000 A 
ENDBRANCH  26  27
ENDBRANCH  22  26
ENDBRANCH   8  22
TORSDOF 8
ENDMDL
MODEL 9
REMARK VINA RESULT:      -7.1      2.378      3.726
REMARK  Name = 
REMARK  10 active torsions:
REMARK  status: ('A' for Active; 'I' for Inactive)
REMARK    1  A    between atoms: C_1  and  C_2
REMARK    2  A    between atoms: C_2  and  C_3
REMARK    3  A    between atoms: C_3  and  C_4
REMARK    4  A    between atoms: C_4  and  N_5
REMARK    5  A    between atoms: N_5  and  C_6
REMARK    6  A    between atoms: C_7  and  C_9
REMARK    7  A    between atoms: C_16  and  C_17
REMARK    8  A    between atoms: C_17  and  N_18
REMARK    9  A    between atoms: C_17  and  C_19
REMARK   10  A    between atoms: C_19  and  C_20
REMARK                            x       y       z     vdW  Elec       q    Type
REMARK                         _______ _______ _______ _____ _____    ______ ____
ROOT
ATOM      1  C   UNL     1       3.635   4.895  18.056  0.00  0.00    +0.000 A 
ATOM      2  C   UNL     1       2.586   5.733  17.707  0.00  0.00    +0.000 A 
ATOM      3  C   UNL     1       1.939   6.471  18.688  0.00  0.00    +0.000 A 
ATOM      4  C   UNL     1       2.279   6.305  20.031  0.00  0.00    +0.000 A 
ATOM      5  N   UNL     1       1.665   7.059  21.036  0.00  0.00    +0.000 N 
ATOM      6  C   UNL     1       1.264   8.345  20.907  0.00  0.00    +0.000 A 
ATOM      7  N   UNL     1       1.287   9.061  19.803  0.00  0.00    +0.000 NA
ATOM      8  C   UNL     1       0.902  10.374  20.022  0.00  0.00    +0.000 A 
ATOM      9  C   UNL     1       0.483  10.619  21.316  0.00  0.00    +0.000 A 
ATOM     10  S   UNL     1       0.674   9.211  22.279  0.00  0.00    +0.000 S 
ATOM     11  N   UNL     1       3.203   5.396  20.402  0.00  0.00    +0.000 NA
ATOM     12  C   UNL     1       3.866   4.722  19.415  0.00  0.00    +0.000 A 
ATOM     13  H   UNL     1       1.965   6.740  21.949  0.00  0.00    +0.000 HD
ENDROOT
BRANCH   1  16
ATOM     14  N   UNL     1       5.431   4.836  16.297  0.00  0.00    +0.000 N 
ATOM     15  C   UNL     1       5.951   6.170  16.591  0.00  0.00    +0.000 C 
ATOM     16  C   UNL     1       4.464   4.160  17.057  0.00  0.00    +0.000 C 
ATOM     17  O   UNL     1       4.254   2.955  16.946  0.00  0.00    +0.000 OA
BRANCH  14  18
ATOM     18  C   UNL     1       6.142   4.085  15.260  0.00  0.00    +0.000 C 
BRANCH  18  19
ATOM     19  C   UNL     1       5.452   4.058  13.893  0.00  0.00    +0.000 C 
BRANCH  19  21
ATOM     20  C   UNL     1       5.664   2.719  11.786  0.00  0.00    +0.000 C 
ATOM     21  C   UNL     1       6.379   3.663  12.743  0.00  0.00    +0.000 C 
ENDBRANCH  19  21
ENDBRANCH  18  19
ENDBRANCH  14  18
ENDBRANCH   1  16
BRANCH   8  22
ATOM     22  C   UNL     1       0.945  11.326  18.849  0.00  0.00    +0.000 C 
BRANCH  22  23
ATOM     23  N   UNL     1      -0.120  10.929  17.910  0.00  0.00    +0.000 NA
ATOM     24  H   UNL     1      -0.304  11.699  17.269  0.00  0.00    +0.000 HD
ATOM     25  H   UNL     1      -0.978  10.816  18.454  0.00  0.00    +0.000 HD
ENDBRANCH  22  23
BRANCH  22  26
ATOM     26  C   UNL     1       0.808  12.822  19.211  0.00  0.00    +0.000 C 
BRANCH  26  27
ATOM     27  C   UNL     1       2.127  13.560  19.308  0.00  0.00    +0.000 A 
ATOM     28  C   UNL     1       2.825  13.949  18.154  0.00  0.00    +0.000 A 
ATOM     29  C   UNL     1       4.045  14.622  18.260  0.00  0.00    +0.000 A 
ATOM     30  C   UNL     1       4.576  14.915  19.512  0.00  0.00    +0.000 A 
ATOM     31  C   UNL     1       3.886  14.543  20.665  0.00  0.00    +0.000 A 
ATOM     32  C   UNL     1       2.665  13.874  20.561  0.00  0.00    +0.000 A 
ENDBRANCH  26  27
ENDBRANCH  22  26
ENDBRANCH   8  22
TORSDOF 8
ENDMDL
