MODEL 1
REMARK VINA RESULT:      -5.3      0.000      0.000
REMARK  Name = 
REMARK  10 active torsions:
REMARK  status: ('A' for Active; 'I' for Inactive)
REMARK    1  A    between atoms: C_1  and  C_2
REMARK    2  A    between atoms: C_2  and  N_3
REMARK    3  A    between atoms: N_3  and  C_4
REMARK    4  A    between atoms: C_5  and  C_7
REMARK    5  A    between atoms: C_7  and  C_8
REMARK    6  A    between atoms: C_8  and  N_9
REMARK    7  A    between atoms: N_9  and  C_10
REMARK    8  A    between atoms: N_9  and  C_11
REMARK    9  A    between atoms: C_11  and  C_12
REMARK   10  A    between atoms: C_15  and  C_16
REMARK                            x       y       z     vdW  Elec       q    Type
REMARK                         _______ _______ _______ _____ _____    ______ ____
ROOT
ATOM      1  N   UNL     1       5.167   5.659  17.759  0.00  0.00    +0.000 NA
ATOM      2  C   UNL     1       6.474   6.328  17.708  0.00  0.00    +0.000 C 
ENDROOT
BRANCH   1   3
ATOM      3  C   UNL     1       5.189   4.364  17.026  0.00  0.00    +0.000 C 
BRANCH   3   4
ATOM      4  C   UNL     1       4.108   3.383  17.496  0.00  0.00    +0.000 C 
BRANCH   4   7
ATOM      5  N   UNL     1       2.870   2.898  19.579  0.00  0.00    +0.000 N 
ATOM      6  C   UNL     1       1.622   3.000  18.833  0.00  0.00    +0.000 C 
ATOM      7  C   UNL     1       4.125   3.128  18.996  0.00  0.00    +0.000 C 
ATOM      8  O   UNL     1       5.167   3.135  19.646  0.00  0.00    +0.000 OA
BRANCH   5  10
ATOM      9  C   UNL     1       1.359   2.787  21.552  0.00  0.00    +0.000 C 
ATOM     10  C   UNL     1       2.783   2.696  21.024  0.00  0.00    +0.000 C 
ENDBRANCH   5  10
ENDBRANCH   4   7
ENDBRANCH   3   4
ENDBRANCH   1   3
BRANCH   1  11
ATOM     11  C   UNL     1       4.109   6.522  17.178  0.00  0.00    +0.000 C 
BRANCH  11  12
ATOM     12  C   UNL     1       3.151   7.072  18.195  0.00  0.00    +0.000 A 
ATOM     13  C   UNL     1       2.791   6.577  19.433  0.00  0.00    +0.000 A 
ATOM     14  N   UNL     1       1.919   7.362  20.166  0.00  0.00    +0.000 NA
ATOM     15  C   UNL     1       1.621   8.447  19.484  0.00  0.00    +0.000 A 
ATOM     16  C   UNL     1       0.777   9.562  19.995  0.00  0.00    +0.000 C 
ATOM     17  S   UNL     1       2.314   8.547  17.916  0.00  0.00    +0.000 S 
ENDBRANCH  11  12
ENDBRANCH   1  11
TORSDOF 6
ENDMDL
MODEL 2
REMARK VINA RESULT:      -5.3      3.439      5.590
REMARK  Name = 
REMARK  10 active torsions:
REMARK  status: ('A' for Active; 'I' for Inactive)
REMARK    1  A    between atoms: C_1  and  C_2
REMARK    2  A    between atoms: C_2  and  N_3
REMARK    3  A    between atoms: N_3  and  C_4
REMARK    4  A    between atoms: C_5  and  C_7
REMARK    5  A    between atoms: C_7  and  C_8
REMARK    6  A    between atoms: C_8  and  N_9
REMARK    7  A    between atoms: N_9  and  C_10
REMARK    8  A    between atoms: N_9  and  C_11
REMARK    9  A    between atoms: C_11  and  C_12
REMARK   10  A    between atoms: C_15  and  C_16
REMARK                            x       y       z     vdW  Elec       q    Type
REMARK                         _______ _______ _______ _____ _____    ______ ____
ROOT
ATOM      1  N   UNL     1       6.922   5.112  18.495  0.00  0.00    +0.000 NA
ATOM      2  C   UNL     1       7.839   6.189  18.886  0.00  0.00    +0.000 C 
ENDROOT
BRANCH   1   3
ATOM      3  C   UNL     1       7.205   4.627  17.117  0.00  0.00    +0.000 C 
BRANCH   3   4
ATOM      4  C   UNL     1       6.651   5.550  16.024  0.00  0.00    +0.000 C 
BRANCH   4   7
ATOM      5  N   UNL     1       6.268   4.341  13.904  0.00  0.00    +0.000 N 
ATOM      6  C   UNL     1       5.068   3.752  14.485  0.00  0.00    +0.000 C 
ATOM      7  C   UNL     1       7.122   5.190  14.623  0.00  0.00    +0.000 C 
ATOM      8  O   UNL     1       8.181   5.608  14.164  0.00  0.00    +0.000 OA
BRANCH   5  10
ATOM      9  C   UNL     1       5.747   2.825  12.001  0.00  0.00    +0.000 C 
ATOM     10  C   UNL     1       6.664   3.898  12.568  0.00  0.00    +0.000 C 
ENDBRANCH   5  10
ENDBRANCH   4   7
ENDBRANCH   3   4
ENDBRANCH   1   3
BRANCH   1  11
ATOM     11  C   UNL     1       5.511   5.568  18.563  0.00  0.00    +0.000 C 
BRANCH  11  12
ATOM     12  C   UNL     1       4.523   4.454  18.761  0.00  0.00    +0.000 A 
ATOM     13  C   UNL     1       4.655   3.265  19.451  0.00  0.00    +0.000 A 
ATOM     14  N   UNL     1       3.525   2.468  19.498  0.00  0.00    +0.000 NA
ATOM     15  C   UNL     1       2.542   3.053  18.847  0.00  0.00    +0.000 A 
ATOM     16  C   UNL     1       1.153   2.527  18.761  0.00  0.00    +0.000 C 
ATOM     17  S   UNL     1       2.942   4.545  18.095  0.00  0.00    +0.000 S 
ENDBRANCH  11  12
ENDBRANCH   1  11
TORSDOF 6
ENDMDL
MODEL 3
REMARK VINA RESULT:      -5.3      3.255      5.507
REMARK  Name = 
REMARK  10 active torsions:
REMARK  status: ('A' for Active; 'I' for Inactive)
REMARK    1  A    between atoms: C_1  and  C_2
REMARK    2  A    between atoms: C_2  and  N_3
REMARK    3  A    between atoms: N_3  and  C_4
REMARK    4  A    between atoms: C_5  and  C_7
REMARK    5  A    between atoms: C_7  and  C_8
REMARK    6  A    between atoms: C_8  and  N_9
REMARK    7  A    between atoms: N_9  and  C_10
REMARK    8  A    between atoms: N_9  and  C_11
REMARK    9  A    between atoms: C_11  and  C_12
REMARK   10  A    between atoms: C_15  and  C_16
REMARK                            x       y       z     vdW  Elec       q    Type
REMARK                         _______ _______ _______ _____ _____    ______ ____
ROOT
ATOM      1  N   UNL     1       7.588   5.646  18.213  0.00  0.00    +0.000 NA
ATOM      2  C   UNL     1       7.457   6.984  17.623  0.00  0.00    +0.000 C 
ENDROOT
BRANCH   1   3
ATOM      3  C   UNL     1       7.374   4.579  17.198  0.00  0.00    +0.000 C 
BRANCH   3   4
ATOM      4  C   UNL     1       7.152   5.125  15.782  0.00  0.00    +0.000 C 
BRANCH   4   7
ATOM      5  N   UNL     1       6.414   4.196  13.615  0.00  0.00    +0.000 N 
ATOM      6  C   UNL     1       7.558   4.838  12.978  0.00  0.00    +0.000 C 
ATOM      7  C   UNL     1       6.124   4.341  14.979  0.00  0.00    +0.000 C 
ATOM      8  O   UNL     1       5.110   3.880  15.494  0.00  0.00    +0.000 OA
BRANCH   5  10
ATOM      9  C   UNL     1       6.126   2.590  11.737  0.00  0.00    +0.000 C 
ATOM     10  C   UNL     1       5.458   3.504  12.753  0.00  0.00    +0.000 C 
ENDBRANCH   5  10
ENDBRANCH   4   7
ENDBRANCH   3   4
ENDBRANCH   1   3
BRANCH   1  11
ATOM     11  C   UNL     1       6.616   5.459  19.319  0.00  0.00    +0.000 C 
BRANCH  11  12
ATOM     12  C   UNL     1       5.210   5.208  18.854  0.00  0.00    +0.000 A 
ATOM     13  C   UNL     1       4.333   6.045  18.192  0.00  0.00    +0.000 A 
ATOM     14  N   UNL     1       3.116   5.487  17.843  0.00  0.00    +0.000 NA
ATOM     15  C   UNL     1       3.074   4.233  18.239  0.00  0.00    +0.000 A 
ATOM     16  C   UNL     1       1.953   3.295  17.960  0.00  0.00    +0.000 C 
ATOM     17  S   UNL     1       4.454   3.685  19.102  0.00  0.00    +0.000 S 
ENDBRANCH  11  12
ENDBRANCH   1  11
TORSDOF 6
ENDMDL
MODEL 4
REMARK VINA RESULT:      -5.3      1.390      1.558
REMARK  Name = 
REMARK  10 active torsions:
REMARK  status: ('A' for Active; 'I' for Inactive)
REMARK    1  A    between atoms: C_1  and  C_2
REMARK    2  A    between atoms: C_2  and  N_3
REMARK    3  A    between atoms: N_3  and  C_4
REMARK    4  A    between atoms: C_5  and  C_7
REMARK    5  A    between atoms: C_7  and  C_8
REMARK    6  A    between atoms: C_8  and  N_9
REMARK    7  A    between atoms: N_9  and  C_10
REMARK    8  A    between atoms: N_9  and  C_11
REMARK    9  A    between atoms: C_11  and  C_12
REMARK   10  A    between atoms: C_15  and  C_16
REMARK                            x       y       z     vdW  Elec       q    Type
REMARK                         _______ _______ _______ _____ _____    ______ ____
ROOT
ATOM      1  N   UNL     1       4.112   5.550  18.069  0.00  0.00    +0.000 NA
ATOM      2  C   UNL     1       5.381   5.567  18.806  0.00  0.00    +0.000 C 
ENDROOT
BRANCH   1   3
ATOM      3  C   UNL     1       4.174   4.633  16.899  0.00  0.00    +0.000 C 
BRANCH   3   4
ATOM      4  C   UNL     1       3.791   3.187  17.241  0.00  0.00    +0.000 C 
BRANCH   4   7
ATOM      5  N   UNL     1       2.842   2.640  19.455  0.00  0.00    +0.000 N 
ATOM      6  C   UNL     1       4.167   2.216  19.892  0.00  0.00    +0.000 C 
ATOM      7  C   UNL     1       2.576   3.076  18.149  0.00  0.00    +0.000 C 
ATOM      8  O   UNL     1       1.443   3.340  17.757  0.00  0.00    +0.000 OA
BRANCH   5  10
ATOM      9  C   UNL     1       1.873   3.269  21.658  0.00  0.00    +0.000 C 
ATOM     10  C   UNL     1       1.729   2.451  20.384  0.00  0.00    +0.000 C 
ENDBRANCH   5  10
ENDBRANCH   4   7
ENDBRANCH   3   4
ENDBRANCH   1   3
BRANCH   1  11
ATOM     11  C   UNL     1       3.758   6.911  17.594  0.00  0.00    +0.000 C 
BRANCH  11  12
ATOM     12  C   UNL     1       2.756   7.614  18.464  0.00  0.00    +0.000 A 
ATOM     13  C   UNL     1       2.308   7.300  19.732  0.00  0.00    +0.000 A 
ATOM     14  N   UNL     1       1.414   8.194  20.294  0.00  0.00    +0.000 NA
ATOM     15  C   UNL     1       1.187   9.180  19.453  0.00  0.00    +0.000 A 
ATOM     16  C   UNL     1       0.344  10.369  19.753  0.00  0.00    +0.000 C 
ATOM     17  S   UNL     1       1.977   9.051  17.934  0.00  0.00    +0.000 S 
ENDBRANCH  11  12
ENDBRANCH   1  11
TORSDOF 6
ENDMDL
MODEL 5
REMARK VINA RESULT:      -5.3      2.832      4.986
REMARK  Name = 
REMARK  10 active torsions:
REMARK  status: ('A' for Active; 'I' for Inactive)
REMARK    1  A    between atoms: C_1  and  C_2
REMARK    2  A    between atoms: C_2  and  N_3
REMARK    3  A    between atoms: N_3  and  C_4
REMARK    4  A    between atoms: C_5  and  C_7
REMARK    5  A    between atoms: C_7  and  C_8
REMARK    6  A    between atoms: C_8  and  N_9
REMARK    7  A    between atoms: N_9  and  C_10
REMARK    8  A    between atoms: N_9  and  C_11
REMARK    9  A    between atoms: C_11  and  C_12
REMARK   10  A    between atoms: C_15  and  C_16
REMARK                            x       y       z     vdW  Elec       q    Type
REMARK                         _______ _______ _______ _____ _____    ______ ____
ROOT
ATOM      1  N   UNL     1       6.780   5.831  18.142  0.00  0.00    +0.000 NA
ATOM      2  C   UNL     1       7.934   6.557  18.687  0.00  0.00    +0.000 C 
ENDROOT
BRANCH   1   3
ATOM      3  C   UNL     1       5.797   5.492  19.207  0.00  0.00    +0.000 C 
BRANCH   3   4
ATOM      4  C   UNL     1       4.617   4.654  18.698  0.00  0.00    +0.000 C 
BRANCH   4   7
ATOM      5  N   UNL     1       3.098   3.770  20.435  0.00  0.00    +0.000 N 
ATOM      6  C   UNL     1       2.413   5.057  20.455  0.00  0.00    +0.000 C 
ATOM      7  C   UNL     1       4.223   3.522  19.635  0.00  0.00    +0.000 C 
ATOM      8  O   UNL     1       4.856   2.471  19.690  0.00  0.00    +0.000 OA
BRANCH   5  10
ATOM      9  C   UNL     1       1.165   2.604  21.480  0.00  0.00    +0.000 C 
ATOM     10  C   UNL     1       2.676   2.761  21.404  0.00  0.00    +0.000 C 
ENDBRANCH   5  10
ENDBRANCH   4   7
ENDBRANCH   3   4
ENDBRANCH   1   3
BRANCH   1  11
ATOM     11  C   UNL     1       7.212   4.580  17.470  0.00  0.00    +0.000 C 
BRANCH  11  12
ATOM     12  C   UNL     1       6.988   4.581  15.986  0.00  0.00    +0.000 A 
ATOM     13  C   UNL     1       7.572   5.355  15.002  0.00  0.00    +0.000 A 
ATOM     14  N   UNL     1       7.190   5.067  13.703  0.00  0.00    +0.000 NA
ATOM     15  C   UNL     1       6.322   4.079  13.706  0.00  0.00    +0.000 A 
ATOM     16  C   UNL     1       5.758   3.445  12.483  0.00  0.00    +0.000 C 
ATOM     17  S   UNL     1       5.872   3.496  15.257  0.00  0.00    +0.000 S 
ENDBRANCH  11  12
ENDBRANCH   1  11
TORSDOF 6
ENDMDL
MODEL 6
REMARK VINA RESULT:      -5.2      2.724      4.214
REMARK  Name = 
REMARK  10 active torsions:
REMARK  status: ('A' for Active; 'I' for Inactive)
REMARK    1  A    between atoms: C_1  and  C_2
REMARK    2  A    between atoms: C_2  and  N_3
REMARK    3  A    between atoms: N_3  and  C_4
REMARK    4  A    between atoms: C_5  and  C_7
REMARK    5  A    between atoms: C_7  and  C_8
REMARK    6  A    between atoms: C_8  and  N_9
REMARK    7  A    between atoms: N_9  and  C_10
REMARK    8  A    between atoms: N_9  and  C_11
REMARK    9  A    between atoms: C_11  and  C_12
REMARK   10  A    between atoms: C_15  and  C_16
REMARK                            x       y       z     vdW  Elec       q    Type
REMARK                         _______ _______ _______ _____ _____    ______ ____
ROOT
ATOM      1  N   UNL     1       3.816   3.221  17.461  0.00  0.00    +0.000 NA
ATOM      2  C   UNL     1       3.869   1.828  17.921  0.00  0.00    +0.000 C 
ENDROOT
BRANCH   1   3
ATOM      3  C   UNL     1       2.497   3.545  16.854  0.00  0.00    +0.000 C 
BRANCH   3   4
ATOM      4  C   UNL     1       1.623   4.438  17.744  0.00  0.00    +0.000 C 
BRANCH   4   7
ATOM      5  N   UNL     1       2.097   4.416  20.169  0.00  0.00    +0.000 N 
ATOM      6  C   UNL     1       3.133   5.418  19.951  0.00  0.00    +0.000 C 
ATOM      7  C   UNL     1       1.354   3.851  19.122  0.00  0.00    +0.000 C 
ATOM      8  O   UNL     1       0.550   2.940  19.295  0.00  0.00    +0.000 OA
BRANCH   5  10
ATOM      9  C   UNL     1       2.608   2.524  21.701  0.00  0.00    +0.000 C 
ATOM     10  C   UNL     1       1.944   3.880  21.520  0.00  0.00    +0.000 C 
ENDBRANCH   5  10
ENDBRANCH   4   7
ENDBRANCH   3   4
ENDBRANCH   1   3
BRANCH   1  11
ATOM     11  C   UNL     1       4.883   3.488  16.464  0.00  0.00    +0.000 C 
BRANCH  11  12
ATOM     12  C   UNL     1       5.611   4.782  16.689  0.00  0.00    +0.000 A 
ATOM     13  C   UNL     1       5.366   6.039  16.171  0.00  0.00    +0.000 A 
ATOM     14  N   UNL     1       6.192   7.051  16.629  0.00  0.00    +0.000 NA
ATOM     15  C   UNL     1       7.057   6.560  17.490  0.00  0.00    +0.000 A 
ATOM     16  C   UNL     1       8.046   7.372  18.251  0.00  0.00    +0.000 C 
ATOM     17  S   UNL     1       6.968   4.863  17.740  0.00  0.00    +0.000 S 
ENDBRANCH  11  12
ENDBRANCH   1  11
TORSDOF 6
ENDMDL
MODEL 7
REMARK VINA RESULT:      -5.2      3.053      5.391
REMARK  Name = 
REMARK  10 active torsions:
REMARK  status: ('A' for Active; 'I' for Inactive)
REMARK    1  A    between atoms: C_1  and  C_2
REMARK    2  A    between atoms: C_2  and  N_3
REMARK    3  A    between atoms: N_3  and  C_4
REMARK    4  A    between atoms: C_5  and  C_7
REMARK    5  A    between atoms: C_7  and  C_8
REMARK    6  A    between atoms: C_8  and  N_9
REMARK    7  A    between atoms: N_9  and  C_10
REMARK    8  A    between atoms: N_9  and  C_11
REMARK    9  A    between atoms: C_11  and  C_12
REMARK   10  A    between atoms: C_15  and  C_16
REMARK                            x       y       z     vdW  Elec       q    Type
REMARK                         _______ _______ _______ _____ _____    ______ ____
ROOT
ATOM      1  N   UNL     1       5.742   5.106  19.639  0.00  0.00    +0.000 NA
ATOM      2  C   UNL     1       4.660   5.978  19.164  0.00  0.00    +0.000 C 
ENDROOT
BRANCH   1   3
ATOM      3  C   UNL     1       7.075   5.606  19.206  0.00  0.00    +0.000 C 
BRANCH   3   4
ATOM      4  C   UNL     1       7.076   6.170  17.780  0.00  0.00    +0.000 C 
BRANCH   4   7
ATOM      5  N   UNL     1       6.332   5.200  15.632  0.00  0.00    +0.000 N 
ATOM      6  C   UNL     1       5.248   6.175  15.595  0.00  0.00    +0.000 C 
ATOM      7  C   UNL     1       7.233   5.106  16.702  0.00  0.00    +0.000 C 
ATOM      8  O   UNL     1       8.085   4.225  16.776  0.00  0.00    +0.000 OA
BRANCH   5  10
ATOM      9  C   UNL     1       7.092   4.669  13.323  0.00  0.00    +0.000 C 
ATOM     10  C   UNL     1       6.373   4.191  14.575  0.00  0.00    +0.000 C 
ENDBRANCH   5  10
ENDBRANCH   4   7
ENDBRANCH   3   4
ENDBRANCH   1   3
BRANCH   1  11
ATOM     11  C   UNL     1       5.562   3.720  19.139  0.00  0.00    +0.000 C 
BRANCH  11  12
ATOM     12  C   UNL     1       4.162   3.416  18.689  0.00  0.00    +0.000 A 
ATOM     13  C   UNL     1       3.629   3.374  17.416  0.00  0.00    +0.000 A 
ATOM     14  N   UNL     1       2.301   2.997  17.330  0.00  0.00    +0.000 NA
ATOM     15  C   UNL     1       1.831   2.754  18.536  0.00  0.00    +0.000 A 
ATOM     16  C   UNL     1       0.464   2.242  18.823  0.00  0.00    +0.000 C 
ATOM     17  S   UNL     1       2.932   3.028  19.825  0.00  0.00    +0.000 S 
ENDBRANCH  11  12
ENDBRANCH   1  11
TORSDOF 6
ENDMDL
MODEL 8
REMARK VINA RESULT:      -5.1      2.655      4.218
REMARK  Name = 
REMARK  10 active torsions:
REMARK  status: ('A' for Active; 'I' for Inactive)
REMARK    1  A    between atoms: C_1  and  C_2
REMARK    2  A    between atoms: C_2  and  N_3
REMARK    3  A    between atoms: N_3  and  C_4
REMARK    4  A    between atoms: C_5  and  C_7
REMARK    5  A    between atoms: C_7  and  C_8
REMARK    6  A    between atoms: C_8  and  N_9
REMARK    7  A    between atoms: N_9  and  C_10
REMARK    8  A    between atoms: N_9  and  C_11
REMARK    9  A    between atoms: C_11  and  C_12
REMARK   10  A    between atoms: C_15  and  C_16
REMARK                            x       y       z     vdW  Elec       q    Type
REMARK                         _______ _______ _______ _____ _____    ______ ____
ROOT
ATOM      1  N   UNL     1       3.906   3.403  17.426  0.00  0.00    +0.000 NA
ATOM      2  C   UNL     1       3.973   2.054  18.004  0.00  0.00    +0.000 C 
ENDROOT
BRANCH   1   3
ATOM      3  C   UNL     1       2.523   3.745  16.998  0.00  0.00    +0.000 C 
BRANCH   3   4
ATOM      4  C   UNL     1       1.909   4.899  17.799  0.00  0.00    +0.000 C 
BRANCH   4   7
ATOM      5  N   UNL     1       1.500   3.778  19.963  0.00  0.00    +0.000 N 
ATOM      6  C   UNL     1       0.532   2.910  19.302  0.00  0.00    +0.000 C 
ATOM      7  C   UNL     1       2.172   4.813  19.296  0.00  0.00    +0.000 C 
ATOM      8  O   UNL     1       2.913   5.602  19.873  0.00  0.00    +0.000 OA
BRANCH   5  10
ATOM      9  C   UNL     1       2.484   2.444  21.818  0.00  0.00    +0.000 C 
ATOM     10  C   UNL     1       1.650   3.649  21.411  0.00  0.00    +0.000 C 
ENDBRANCH   5  10
ENDBRANCH   4   7
ENDBRANCH   3   4
ENDBRANCH   1   3
BRANCH   1  11
ATOM     11  C   UNL     1       4.815   3.523  16.258  0.00  0.00    +0.000 C 
BRANCH  11  12
ATOM     12  C   UNL     1       5.848   4.602  16.404  0.00  0.00    +0.000 A 
ATOM     13  C   UNL     1       6.875   4.967  15.555  0.00  0.00    +0.000 A 
ATOM     14  N   UNL     1       7.626   6.059  15.953  0.00  0.00    +0.000 NA
ATOM     15  C   UNL     1       7.168   6.518  17.098  0.00  0.00    +0.000 A 
ATOM     16  C   UNL     1       7.677   7.736  17.785  0.00  0.00    +0.000 C 
ATOM     17  S   UNL     1       5.868   5.629  17.782  0.00  0.00    +0.000 S 
ENDBRANCH  11  12
ENDBRANCH   1  11
TORSDOF 6
ENDMDL
MODEL 9
REMARK VINA RESULT:      -5.1      2.179      4.817
REMARK  Name = 
REMARK  10 active torsions:
REMARK  status: ('A' for Active; 'I' for Inactive)
REMARK    1  A    between atoms: C_1  and  C_2
REMARK    2  A    between atoms: C_2  and  N_3
REMARK    3  A    between atoms: N_3  and  C_4
REMARK    4  A    between atoms: C_5  and  C_7
REMARK    5  A    between atoms: C_7  and  C_8
REMARK    6  A    between atoms: C_8  and  N_9
REMARK    7  A    between atoms: N_9  and  C_10
REMARK    8  A    between atoms: N_9  and  C_11
REMARK    9  A    between atoms: C_11  and  C_12
REMARK   10  A    between atoms: C_15  and  C_16
REMARK                            x       y       z     vdW  Elec       q    Type
REMARK                         _______ _______ _______ _____ _____    ______ ____
ROOT
ATOM      1  N   UNL     1       3.987   3.280  17.895  0.00  0.00    +0.000 NA
ATOM      2  C   UNL     1       2.767   2.574  17.484  0.00  0.00    +0.000 C 
ENDROOT
BRANCH   1   3
ATOM      3  C   UNL     1       3.722   4.217  19.020  0.00  0.00    +0.000 C 
BRANCH   3   4
ATOM      4  C   UNL     1       2.464   5.069  18.815  0.00  0.00    +0.000 C 
BRANCH   4   7
ATOM      5  N   UNL     1       1.920   7.231  19.881  0.00  0.00    +0.000 N 
ATOM      6  C   UNL     1       2.274   7.906  18.638  0.00  0.00    +0.000 C 
ATOM      7  C   UNL     1       2.042   5.845  20.055  0.00  0.00    +0.000 C 
ATOM      8  O   UNL     1       1.835   5.290  21.130  0.00  0.00    +0.000 OA
BRANCH   5  10
ATOM      9  C   UNL     1       0.811   9.323  20.643  0.00  0.00    +0.000 C 
ATOM     10  C   UNL     1       1.571   8.064  21.031  0.00  0.00    +0.000 C 
ENDBRANCH   5  10
ENDBRANCH   4   7
ENDBRANCH   3   4
ENDBRANCH   1   3
BRANCH   1  11
ATOM     11  C   UNL     1       4.565   4.042  16.760  0.00  0.00    +0.000 C 
BRANCH  11  12
ATOM     12  C   UNL     1       5.707   4.936  17.150  0.00  0.00    +0.000 A 
ATOM     13  C   UNL     1       6.978   4.612  17.583  0.00  0.00    +0.000 A 
ATOM     14  N   UNL     1       7.828   5.680  17.807  0.00  0.00    +0.000 NA
ATOM     15  C   UNL     1       7.202   6.807  17.543  0.00  0.00    +0.000 A 
ATOM     16  C   UNL     1       7.832   8.155  17.589  0.00  0.00    +0.000 C 
ATOM     17  S   UNL     1       5.556   6.646  17.082  0.00  0.00    +0.000 S 
ENDBRANCH  11  12
ENDBRANCH   1  11
TORSDOF 6
ENDMDL
