MODEL 1
REMARK VINA RESULT:      -7.3      0.000      0.000
REMARK  Name = 
REMARK  4 active torsions:
REMARK  status: ('A' for Active; 'I' for Inactive)
REMARK    1  A    between atoms: C_1  and  N_2
REMARK    2  A    between atoms: C_6  and  C_7
REMARK    3  A    between atoms: N_9  and  C_10
REMARK    4  A    between atoms: C_13  and  N_14
REMARK                            x       y       z     vdW  Elec       q    Type
REMARK                         _______ _______ _______ _____ _____    ______ ____
ROOT
ATOM      1  C   UNL     1       2.648   7.367  18.623  0.00  0.00    +0.000 A 
ATOM      2  C   UNL     1       2.292   6.957  19.904  0.00  0.00    +0.000 A 
ATOM      3  C   UNL     1       1.513   7.770  20.735  0.00  0.00    +0.000 A 
ATOM      4  C   UNL     1       1.085   9.036  20.330  0.00  0.00    +0.000 A 
ATOM      5  C   UNL     1       1.414   9.427  19.024  0.00  0.00    +0.000 A 
ATOM      6  C   UNL     1       2.198   8.617  18.184  0.00  0.00    +0.000 A 
ENDROOT
BRANCH   4   7
ATOM      7  N   UNL     1       0.466   9.881  21.232  0.00  0.00    +0.000 N 
ATOM      8  C   UNL     1       0.319   9.500  22.643  0.00  0.00    +0.000 C 
ATOM      9  C   UNL     1      -0.926  10.193  23.225  0.00  0.00    +0.000 C 
ATOM     10  O   UNL     1      -0.878  11.618  23.047  0.00  0.00    +0.000 OA
ATOM     11  C   UNL     1      -0.778  11.944  21.648  0.00  0.00    +0.000 C 
ATOM     12  C   UNL     1       0.491  11.339  21.020  0.00  0.00    +0.000 C 
ENDBRANCH   4   7
BRANCH   1  15
ATOM     13  C   UNL     1       4.513   5.755  18.195  0.00  0.00    +0.000 C 
ATOM     14  O   UNL     1       4.805   5.511  19.364  0.00  0.00    +0.000 OA
ATOM     15  N   UNL     1       3.468   6.576  17.781  0.00  0.00    +0.000 N 
ATOM     16  H   UNL     1       3.218   6.538  16.804  0.00  0.00    +0.000 HD
BRANCH  13  22
ATOM     17  C   UNL     1       7.339   6.561  17.154  0.00  0.00    +0.000 C 
ATOM     18  N   UNL     1       6.494   5.500  16.643  0.00  0.00    +0.000 N 
ATOM     19  C   UNL     1       6.874   4.669  15.620  0.00  0.00    +0.000 A 
ATOM     20  C   UNL     1       5.841   3.798  15.360  0.00  0.00    +0.000 A 
ATOM     21  C   UNL     1       4.809   4.097  16.275  0.00  0.00    +0.000 A 
ATOM     22  C   UNL     1       5.241   5.126  17.103  0.00  0.00    +0.000 A 
ENDBRANCH  13  22
ENDBRANCH   1  15
TORSDOF 3
ENDMDL
MODEL 2
REMARK VINA RESULT:      -7.2      1.095      1.112
REMARK  Name = 
REMARK  4 active torsions:
REMARK  status: ('A' for Active; 'I' for Inactive)
REMARK    1  A    between atoms: C_1  and  N_2
REMARK    2  A    between atoms: C_6  and  C_7
REMARK    3  A    between atoms: N_9  and  C_10
REMARK    4  A    between atoms: C_13  and  N_14
REMARK                            x       y       z     vdW  Elec       q    Type
REMARK                         _______ _______ _______ _____ _____    ______ ____
ROOT
ATOM      1  C   UNL     1       2.929   6.957  18.386  0.00  0.00    +0.000 A 
ATOM      2  C   UNL     1       2.586   6.543  19.669  0.00  0.00    +0.000 A 
ATOM      3  C   UNL     1       1.832   7.361  20.518  0.00  0.00    +0.000 A 
ATOM      4  C   UNL     1       1.417   8.637  20.128  0.00  0.00    +0.000 A 
ATOM      5  C   UNL     1       1.733   9.032  18.821  0.00  0.00    +0.000 A 
ATOM      6  C   UNL     1       2.492   8.217  17.963  0.00  0.00    +0.000 A 
ENDROOT
BRANCH   4   7
ATOM      7  N   UNL     1       0.825   9.483  21.046  0.00  0.00    +0.000 N 
ATOM      8  C   UNL     1       0.883   9.195  22.485  0.00  0.00    +0.000 C 
ATOM      9  C   UNL     1      -0.350   9.809  23.172  0.00  0.00    +0.000 C 
ATOM     10  O   UNL     1      -0.469  11.216  22.902  0.00  0.00    +0.000 OA
ATOM     11  C   UNL     1      -0.566  11.446  21.484  0.00  0.00    +0.000 C 
ATOM     12  C   UNL     1       0.676  10.918  20.743  0.00  0.00    +0.000 C 
ENDBRANCH   4   7
BRANCH   1  15
ATOM     13  C   UNL     1       5.015   6.457  17.098  0.00  0.00    +0.000 C 
ATOM     14  O   UNL     1       5.696   7.401  17.493  0.00  0.00    +0.000 OA
ATOM     15  N   UNL     1       3.724   6.160  17.526  0.00  0.00    +0.000 N 
ATOM     16  H   UNL     1       3.355   5.256  17.269  0.00  0.00    +0.000 HD
BRANCH  13  22
ATOM     17  C   UNL     1       7.449   4.567  17.569  0.00  0.00    +0.000 C 
ATOM     18  N   UNL     1       6.649   4.671  16.364  0.00  0.00    +0.000 N 
ATOM     19  C   UNL     1       6.859   3.889  15.257  0.00  0.00    +0.000 A 
ATOM     20  C   UNL     1       5.955   4.255  14.288  0.00  0.00    +0.000 A 
ATOM     21  C   UNL     1       5.153   5.278  14.836  0.00  0.00    +0.000 A 
ATOM     22  C   UNL     1       5.559   5.499  16.146  0.00  0.00    +0.000 A 
ENDBRANCH  13  22
ENDBRANCH   1  15
TORSDOF 3
ENDMDL
MODEL 3
REMARK VINA RESULT:      -7.1      1.004      1.470
REMARK  Name = 
REMARK  4 active torsions:
REMARK  status: ('A' for Active; 'I' for Inactive)
REMARK    1  A    between atoms: C_1  and  N_2
REMARK    2  A    between atoms: C_6  and  C_7
REMARK    3  A    between atoms: N_9  and  C_10
REMARK    4  A    between atoms: C_13  and  N_14
REMARK                            x       y       z     vdW  Elec       q    Type
REMARK                         _______ _______ _______ _____ _____    ______ ____
ROOT
ATOM      1  C   UNL     1       2.971   7.464  18.210  0.00  0.00    +0.000 A 
ATOM      2  C   UNL     1       2.673   6.982  19.480  0.00  0.00    +0.000 A 
ATOM      3  C   UNL     1       1.762   7.643  20.311  0.00  0.00    +0.000 A 
ATOM      4  C   UNL     1       1.134   8.827  19.917  0.00  0.00    +0.000 A 
ATOM      5  C   UNL     1       1.409   9.286  18.622  0.00  0.00    +0.000 A 
ATOM      6  C   UNL     1       2.326   8.629  17.781  0.00  0.00    +0.000 A 
ENDROOT
BRANCH   4   7
ATOM      7  N   UNL     1       0.375   9.543  20.822  0.00  0.00    +0.000 N 
ATOM      8  C   UNL     1      -0.287  10.794  20.427  0.00  0.00    +0.000 C 
ATOM      9  C   UNL     1      -0.436  11.697  21.665  0.00  0.00    +0.000 C 
ATOM     10  O   UNL     1      -1.126  11.030  22.735  0.00  0.00    +0.000 OA
ATOM     11  C   UNL     1      -0.419   9.835  23.116  0.00  0.00    +0.000 C 
ATOM     12  C   UNL     1      -0.299   8.853  21.936  0.00  0.00    +0.000 C 
ENDBRANCH   4   7
BRANCH   1  15
ATOM     13  C   UNL     1       4.071   5.460  17.195  0.00  0.00    +0.000 C 
ATOM     14  O   UNL     1       3.329   4.598  17.661  0.00  0.00    +0.000 OA
ATOM     15  N   UNL     1       3.919   6.832  17.369  0.00  0.00    +0.000 N 
ATOM     16  H   UNL     1       4.479   7.431  16.779  0.00  0.00    +0.000 HD
BRANCH  13  22
ATOM     17  C   UNL     1       7.004   4.924  18.106  0.00  0.00    +0.000 C 
ATOM     18  N   UNL     1       6.489   4.864  16.752  0.00  0.00    +0.000 N 
ATOM     19  C   UNL     1       7.261   4.515  15.673  0.00  0.00    +0.000 A 
ATOM     20  C   UNL     1       6.484   4.583  14.541  0.00  0.00    +0.000 A 
ATOM     21  C   UNL     1       5.188   4.964  14.952  0.00  0.00    +0.000 A 
ATOM     22  C   UNL     1       5.186   5.090  16.336  0.00  0.00    +0.000 A 
ENDBRANCH  13  22
ENDBRANCH   1  15
TORSDOF 3
ENDMDL
MODEL 4
REMARK VINA RESULT:      -7.0      0.740      1.336
REMARK  Name = 
REMARK  4 active torsions:
REMARK  status: ('A' for Active; 'I' for Inactive)
REMARK    1  A    between atoms: C_1  and  N_2
REMARK    2  A    between atoms: C_6  and  C_7
REMARK    3  A    between atoms: N_9  and  C_10
REMARK    4  A    between atoms: C_13  and  N_14
REMARK                            x       y       z     vdW  Elec       q    Type
REMARK                         _______ _______ _______ _____ _____    ______ ____
ROOT
ATOM      1  C   UNL     1       2.547   7.359  18.581  0.00  0.00    +0.000 A 
ATOM      2  C   UNL     1       2.235   6.972  19.881  0.00  0.00    +0.000 A 
ATOM      3  C   UNL     1       1.505   7.811  20.731  0.00  0.00    +0.000 A 
ATOM      4  C   UNL     1       1.084   9.080  20.326  0.00  0.00    +0.000 A 
ATOM      5  C   UNL     1       1.369   9.447  19.004  0.00  0.00    +0.000 A 
ATOM      6  C   UNL     1       2.104   8.611  18.144  0.00  0.00    +0.000 A 
ENDROOT
BRANCH   4   7
ATOM      7  N   UNL     1       0.518   9.947  21.240  0.00  0.00    +0.000 N 
ATOM      8  C   UNL     1       0.294   9.535  22.633  0.00  0.00    +0.000 C 
ATOM      9  C   UNL     1      -0.900  10.320  23.204  0.00  0.00    +0.000 C 
ATOM     10  O   UNL     1      -0.717  11.740  23.079  0.00  0.00    +0.000 OA
ATOM     11  C   UNL     1      -0.545  12.101  21.695  0.00  0.00    +0.000 C 
ATOM     12  C   UNL     1       0.682  11.403  21.081  0.00  0.00    +0.000 C 
ENDBRANCH   4   7
BRANCH   1  15
ATOM     13  C   UNL     1       4.511   5.905  18.047  0.00  0.00    +0.000 C 
ATOM     14  O   UNL     1       5.014   5.868  19.168  0.00  0.00    +0.000 OA
ATOM     15  N   UNL     1       3.318   6.541  17.719  0.00  0.00    +0.000 N 
ATOM     16  H   UNL     1       2.924   6.333  16.813  0.00  0.00    +0.000 HD
BRANCH  13  22
ATOM     17  C   UNL     1       4.104   2.903  17.306  0.00  0.00    +0.000 C 
ATOM     18  N   UNL     1       4.951   3.861  16.622  0.00  0.00    +0.000 N 
ATOM     19  C   UNL     1       5.675   3.551  15.499  0.00  0.00    +0.000 A 
ATOM     20  C   UNL     1       6.387   4.664  15.119  0.00  0.00    +0.000 A 
ATOM     21  C   UNL     1       6.065   5.692  16.030  0.00  0.00    +0.000 A 
ATOM     22  C   UNL     1       5.132   5.199  16.935  0.00  0.00    +0.000 A 
ENDBRANCH  13  22
ENDBRANCH   1  15
TORSDOF 3
ENDMDL
MODEL 5
REMARK VINA RESULT:      -6.9      1.177      1.880
REMARK  Name = 
REMARK  4 active torsions:
REMARK  status: ('A' for Active; 'I' for Inactive)
REMARK    1  A    between atoms: C_1  and  N_2
REMARK    2  A    between atoms: C_6  and  C_7
REMARK    3  A    between atoms: N_9  and  C_10
REMARK    4  A    between atoms: C_13  and  N_14
REMARK                            x       y       z     vdW  Elec       q    Type
REMARK                         _______ _______ _______ _____ _____    ______ ____
ROOT
ATOM      1  C   UNL     1       2.911   7.166  18.326  0.00  0.00    +0.000 A 
ATOM      2  C   UNL     1       2.415   8.379  17.860  0.00  0.00    +0.000 A 
ATOM      3  C   UNL     1       1.618   9.196  18.670  0.00  0.00    +0.000 A 
ATOM      4  C   UNL     1       1.261   8.818  19.967  0.00  0.00    +0.000 A 
ATOM      5  C   UNL     1       1.796   7.614  20.443  0.00  0.00    +0.000 A 
ATOM      6  C   UNL     1       2.596   6.786  19.635  0.00  0.00    +0.000 A 
ENDROOT
BRANCH   4   7
ATOM      7  N   UNL     1       0.337   9.561  20.676  0.00  0.00    +0.000 N 
ATOM      8  C   UNL     1      -0.597  10.461  19.985  0.00  0.00    +0.000 C 
ATOM      9  C   UNL     1      -0.979  11.613  20.931  0.00  0.00    +0.000 C 
ATOM     10  O   UNL     1      -1.508  11.130  22.178  0.00  0.00    +0.000 OA
ATOM     11  C   UNL     1      -0.542  10.290  22.837  0.00  0.00    +0.000 C 
ATOM     12  C   UNL     1      -0.171   9.074  21.970  0.00  0.00    +0.000 C 
ENDBRANCH   4   7
BRANCH   1  15
ATOM     13  C   UNL     1       4.995   6.538  17.093  0.00  0.00    +0.000 C 
ATOM     14  O   UNL     1       5.707   7.468  17.465  0.00  0.00    +0.000 OA
ATOM     15  N   UNL     1       3.687   6.307  17.509  0.00  0.00    +0.000 N 
ATOM     16  H   UNL     1       3.287   5.410  17.278  0.00  0.00    +0.000 HD
BRANCH  13  22
ATOM     17  C   UNL     1       7.371   4.599  17.656  0.00  0.00    +0.000 C 
ATOM     18  N   UNL     1       6.580   4.676  16.444  0.00  0.00    +0.000 N 
ATOM     19  C   UNL     1       6.772   3.842  15.371  0.00  0.00    +0.000 A 
ATOM     20  C   UNL     1       5.884   4.193  14.382  0.00  0.00    +0.000 A 
ATOM     21  C   UNL     1       5.110   5.262  14.883  0.00  0.00    +0.000 A 
ATOM     22  C   UNL     1       5.515   5.525  16.185  0.00  0.00    +0.000 A 
ENDBRANCH  13  22
ENDBRANCH   1  15
TORSDOF 3
ENDMDL
MODEL 6
REMARK VINA RESULT:      -6.9      0.630      1.581
REMARK  Name = 
REMARK  4 active torsions:
REMARK  status: ('A' for Active; 'I' for Inactive)
REMARK    1  A    between atoms: C_1  and  N_2
REMARK    2  A    between atoms: C_6  and  C_7
REMARK    3  A    between atoms: N_9  and  C_10
REMARK    4  A    between atoms: C_13  and  N_14
REMARK                            x       y       z     vdW  Elec       q    Type
REMARK                         _______ _______ _______ _____ _____    ______ ____
ROOT
ATOM      1  C   UNL     1       2.712   7.561  18.492  0.00  0.00    +0.000 A 
ATOM      2  C   UNL     1       2.252   8.783  18.012  0.00  0.00    +0.000 A 
ATOM      3  C   UNL     1       1.426   9.603  18.790  0.00  0.00    +0.000 A 
ATOM      4  C   UNL     1       1.006   9.221  20.066  0.00  0.00    +0.000 A 
ATOM      5  C   UNL     1       1.504   8.007  20.558  0.00  0.00    +0.000 A 
ATOM      6  C   UNL     1       2.332   7.176  19.781  0.00  0.00    +0.000 A 
ENDROOT
BRANCH   4   7
ATOM      7  N   UNL     1       0.058   9.970  20.737  0.00  0.00    +0.000 N 
ATOM      8  C   UNL     1      -0.917  10.786  20.001  0.00  0.00    +0.000 C 
ATOM      9  C   UNL     1      -1.338  11.980  20.877  0.00  0.00    +0.000 C 
ATOM     10  O   UNL     1      -1.837  11.555  22.157  0.00  0.00    +0.000 OA
ATOM     11  C   UNL     1      -0.834  10.796  22.857  0.00  0.00    +0.000 C 
ATOM     12  C   UNL     1      -0.421   9.544  22.064  0.00  0.00    +0.000 C 
ENDBRANCH   4   7
BRANCH   1  15
ATOM     13  C   UNL     1       4.475   5.813  18.185  0.00  0.00    +0.000 C 
ATOM     14  O   UNL     1       4.686   5.567  19.371  0.00  0.00    +0.000 OA
ATOM     15  N   UNL     1       3.516   6.700  17.705  0.00  0.00    +0.000 N 
ATOM     16  H   UNL     1       3.317   6.664  16.716  0.00  0.00    +0.000 HD
BRANCH  13  22
ATOM     17  C   UNL     1       7.322   6.535  17.139  0.00  0.00    +0.000 C 
ATOM     18  N   UNL     1       6.475   5.453  16.678  0.00  0.00    +0.000 N 
ATOM     19  C   UNL     1       6.861   4.560  15.710  0.00  0.00    +0.000 A 
ATOM     20  C   UNL     1       5.825   3.684  15.487  0.00  0.00    +0.000 A 
ATOM     21  C   UNL     1       4.783   4.043  16.368  0.00  0.00    +0.000 A 
ATOM     22  C   UNL     1       5.212   5.115  17.142  0.00  0.00    +0.000 A 
ENDBRANCH  13  22
ENDBRANCH   1  15
TORSDOF 3
ENDMDL
MODEL 7
REMARK VINA RESULT:      -6.9      1.648      8.559
REMARK  Name = 
REMARK  4 active torsions:
REMARK  status: ('A' for Active; 'I' for Inactive)
REMARK    1  A    between atoms: C_1  and  N_2
REMARK    2  A    between atoms: C_6  and  C_7
REMARK    3  A    between atoms: N_9  and  C_10
REMARK    4  A    between atoms: C_13  and  N_14
REMARK                            x       y       z     vdW  Elec       q    Type
REMARK                         _______ _______ _______ _____ _____    ______ ____
ROOT
ATOM      1  C   UNL     1       1.015   8.944  19.763  0.00  0.00    +0.000 A 
ATOM      2  C   UNL     1       1.528   7.816  20.396  0.00  0.00    +0.000 A 
ATOM      3  C   UNL     1       2.464   6.992  19.761  0.00  0.00    +0.000 A 
ATOM      4  C   UNL     1       2.901   7.245  18.459  0.00  0.00    +0.000 A 
ATOM      5  C   UNL     1       2.409   8.403  17.842  0.00  0.00    +0.000 A 
ATOM      6  C   UNL     1       1.466   9.236  18.472  0.00  0.00    +0.000 A 
ENDROOT
BRANCH   4   7
ATOM      7  N   UNL     1       3.691   6.322  17.800  0.00  0.00    +0.000 N 
ATOM      8  C   UNL     1       3.245   4.932  17.632  0.00  0.00    +0.000 C 
ATOM      9  C   UNL     1       4.478   4.016  17.540  0.00  0.00    +0.000 C 
ATOM     10  O   UNL     1       5.378   4.431  16.498  0.00  0.00    +0.000 OA
ATOM     11  C   UNL     1       5.820   5.781  16.729  0.00  0.00    +0.000 C 
ATOM     12  C   UNL     1       4.635   6.763  16.758  0.00  0.00    +0.000 C 
ENDBRANCH   4   7
BRANCH   1  15
ATOM     13  C   UNL     1       0.290  10.881  21.169  0.00  0.00    +0.000 C 
ATOM     14  O   UNL     1       1.397  11.378  21.368  0.00  0.00    +0.000 OA
ATOM     15  N   UNL     1       0.038   9.768  20.373  0.00  0.00    +0.000 N 
ATOM     16  H   UNL     1      -0.927   9.583  20.142  0.00  0.00    +0.000 HD
BRANCH  13  22
ATOM     17  C   UNL     1      -1.660  12.830  19.713  0.00  0.00    +0.000 C 
ATOM     18  N   UNL     1      -1.759  12.362  21.081  0.00  0.00    +0.000 N 
ATOM     19  C   UNL     1      -2.789  12.711  21.918  0.00  0.00    +0.000 A 
ATOM     20  C   UNL     1      -2.571  12.126  23.144  0.00  0.00    +0.000 A 
ATOM     21  C   UNL     1      -1.380  11.377  23.038  0.00  0.00    +0.000 A 
ATOM     22  C   UNL     1      -0.905  11.488  21.737  0.00  0.00    +0.000 A 
ENDBRANCH  13  22
ENDBRANCH   1  15
TORSDOF 3
ENDMDL
MODEL 8
REMARK VINA RESULT:      -6.8      1.630      8.502
REMARK  Name = 
REMARK  4 active torsions:
REMARK  status: ('A' for Active; 'I' for Inactive)
REMARK    1  A    between atoms: C_1  and  N_2
REMARK    2  A    between atoms: C_6  and  C_7
REMARK    3  A    between atoms: N_9  and  C_10
REMARK    4  A    between atoms: C_13  and  N_14
REMARK                            x       y       z     vdW  Elec       q    Type
REMARK                         _______ _______ _______ _____ _____    ______ ____
ROOT
ATOM      1  C   UNL     1       1.368   8.790  19.626  0.00  0.00    +0.000 A 
ATOM      2  C   UNL     1       1.800   9.032  18.326  0.00  0.00    +0.000 A 
ATOM      3  C   UNL     1       2.594   8.105  17.642  0.00  0.00    +0.000 A 
ATOM      4  C   UNL     1       3.011   6.913  18.240  0.00  0.00    +0.000 A 
ATOM      5  C   UNL     1       2.541   6.659  19.536  0.00  0.00    +0.000 A 
ATOM      6  C   UNL     1       1.745   7.587  20.231  0.00  0.00    +0.000 A 
ENDROOT
BRANCH   4   7
ATOM      7  N   UNL     1       3.931   6.102  17.604  0.00  0.00    +0.000 N 
ATOM      8  C   UNL     1       5.079   6.679  16.890  0.00  0.00    +0.000 C 
ATOM      9  C   UNL     1       5.497   5.726  15.756  0.00  0.00    +0.000 C 
ATOM     10  O   UNL     1       5.768   4.401  16.243  0.00  0.00    +0.000 OA
ATOM     11  C   UNL     1       4.603   3.861  16.896  0.00  0.00    +0.000 C 
ATOM     12  C   UNL     1       4.174   4.733  18.090  0.00  0.00    +0.000 C 
ENDBRANCH   4   7
BRANCH   1  15
ATOM     13  C   UNL     1       0.765  10.071  21.689  0.00  0.00    +0.000 C 
ATOM     14  O   UNL     1       1.680   9.682  22.411  0.00  0.00    +0.000 OA
ATOM     15  N   UNL     1       0.597   9.733  20.349  0.00  0.00    +0.000 N 
ATOM     16  H   UNL     1      -0.080  10.269  19.825  0.00  0.00    +0.000 HD
BRANCH  13  22
ATOM     17  C   UNL     1       0.651  13.133  21.109  0.00  0.00    +0.000 C 
ATOM     18  N   UNL     1      -0.262  12.370  21.936  0.00  0.00    +0.000 N 
ATOM     19  C   UNL     1      -1.352  12.927  22.558  0.00  0.00    +0.000 A 
ATOM     20  C   UNL     1      -1.989  11.946  23.281  0.00  0.00    +0.000 A 
ATOM     21  C   UNL     1      -1.275  10.748  23.070  0.00  0.00    +0.000 A 
ATOM     22  C   UNL     1      -0.229  11.008  22.193  0.00  0.00    +0.000 A 
ENDBRANCH  13  22
ENDBRANCH   1  15
TORSDOF 3
ENDMDL
MODEL 9
REMARK VINA RESULT:      -6.7      0.720      1.724
REMARK  Name = 
REMARK  4 active torsions:
REMARK  status: ('A' for Active; 'I' for Inactive)
REMARK    1  A    between atoms: C_1  and  N_2
REMARK    2  A    between atoms: C_6  and  C_7
REMARK    3  A    between atoms: N_9  and  C_10
REMARK    4  A    between atoms: C_13  and  N_14
REMARK                            x       y       z     vdW  Elec       q    Type
REMARK                         _______ _______ _______ _____ _____    ______ ____
ROOT
ATOM      1  C   UNL     1       2.713   7.256  18.486  0.00  0.00    +0.000 A 
ATOM      2  C   UNL     1       2.316   6.835  19.752  0.00  0.00    +0.000 A 
ATOM      3  C   UNL     1       1.477   7.622  20.548  0.00  0.00    +0.000 A 
ATOM      4  C   UNL     1       1.025   8.874  20.123  0.00  0.00    +0.000 A 
ATOM      5  C   UNL     1       1.397   9.274  18.832  0.00  0.00    +0.000 A 
ATOM      6  C   UNL     1       2.242   8.490  18.027  0.00  0.00    +0.000 A 
ENDROOT
BRANCH   4   7
ATOM      7  N   UNL     1       0.341   9.697  20.996  0.00  0.00    +0.000 N 
ATOM      8  C   UNL     1      -0.145  11.015  20.566  0.00  0.00    +0.000 C 
ATOM      9  C   UNL     1      -0.208  11.952  21.786  0.00  0.00    +0.000 C 
ATOM     10  O   UNL     1      -1.004  11.397  22.847  0.00  0.00    +0.000 OA
ATOM     11  C   UNL     1      -0.465  10.128  23.263  0.00  0.00    +0.000 C 
ATOM     12  C   UNL     1      -0.443   9.119  22.102  0.00  0.00    +0.000 C 
ENDBRANCH   4   7
BRANCH   1  15
ATOM     13  C   UNL     1       4.757   5.863  18.114  0.00  0.00    +0.000 C 
ATOM     14  O   UNL     1       5.132   5.786  19.282  0.00  0.00    +0.000 OA
ATOM     15  N   UNL     1       3.593   6.492  17.682  0.00  0.00    +0.000 N 
ATOM     16  H   UNL     1       3.307   6.317  16.729  0.00  0.00    +0.000 HD
BRANCH  13  22
ATOM     17  C   UNL     1       4.177   3.063  16.869  0.00  0.00    +0.000 C 
ATOM     18  N   UNL     1       5.251   3.969  16.512  0.00  0.00    +0.000 N 
ATOM     19  C   UNL     1       6.155   3.700  15.515  0.00  0.00    +0.000 A 
ATOM     20  C   UNL     1       7.053   4.739  15.449  0.00  0.00    +0.000 A 
ATOM     21  C   UNL     1       6.665   5.683  16.425  0.00  0.00    +0.000 A 
ATOM     22  C   UNL     1       5.513   5.219  17.050  0.00  0.00    +0.000 A 
ENDBRANCH  13  22
ENDBRANCH   1  15
TORSDOF 3
ENDMDL
