MODEL 1
REMARK VINA RESULT:      -7.0      0.000      0.000
REMARK  Name = 
REMARK  7 active torsions:
REMARK  status: ('A' for Active; 'I' for Inactive)
REMARK    1  A    between atoms: C_1  and  C_2
REMARK    2  A    between atoms: C_2  and  C_3
REMARK    3  A    between atoms: C_2  and  S_17
REMARK    4  A    between atoms: C_5  and  C_6
REMARK    5  A    between atoms: C_6  and  O_7
REMARK    6  A    between atoms: O_7  and  C_8
REMARK    7  A    between atoms: S_17  and  C_18
REMARK                            x       y       z     vdW  Elec       q    Type
REMARK                         _______ _______ _______ _____ _____    ______ ____
ROOT
ATOM      1  C   UNL     1       6.980   6.126  17.416  0.00  0.00    +0.000 A 
ATOM      2  N   UNL     1       7.066   7.380  17.029  0.00  0.00    +0.000 NA
ATOM      3  C   UNL     1       7.932   7.915  17.955  0.00  0.00    +0.000 A 
ATOM      4  N   UNL     1       8.380   7.039  18.865  0.00  0.00    +0.000 NA
ATOM      5  O   UNL     1       7.735   5.855  18.520  0.00  0.00    +0.000 OA
ENDROOT
BRANCH   1   7
ATOM      6  C   UNL     1       5.450   5.515  15.576  0.00  0.00    +0.000 C 
ATOM      7  C   UNL     1       6.085   5.074  16.889  0.00  0.00    +0.000 C 
BRANCH   7   8
ATOM      8  S   UNL     1       4.845   4.636  18.098  0.00  0.00    +0.000 S 
ATOM      9  C   UNL     1       3.569   3.781  17.195  0.00  0.00    +0.000 C 
ATOM     10  O   UNL     1       5.405   3.710  19.062  0.00  0.00    +0.000 OA
ATOM     11  O   UNL     1       4.244   5.878  18.563  0.00  0.00    +0.000 OA
ENDBRANCH   7   8
ENDBRANCH   1   7
BRANCH   3  12
ATOM     12  C   UNL     1       8.300   9.357  17.982  0.00  0.00    +0.000 C 
BRANCH  12  13
ATOM     13  O   UNL     1       8.958   9.700  19.205  0.00  0.00    +0.000 OA
BRANCH  13  14
ATOM     14  C   UNL     1       9.772  10.799  19.177  0.00  0.00    +0.000 A 
ATOM     15  C   UNL     1      10.281  11.469  20.294  0.00  0.00    +0.000 A 
ATOM     16  C   UNL     1      11.109  12.581  20.122  0.00  0.00    +0.000 A 
ATOM     17  C   UNL     1      11.422  13.018  18.841  0.00  0.00    +0.000 A 
ATOM     18  F   UNL     1      12.221  14.081  18.683  0.00  0.00    +0.000 F 
ATOM     19  C   UNL     1      10.918  12.366  17.723  0.00  0.00    +0.000 A 
ATOM     20  C   UNL     1      10.090  11.256  17.894  0.00  0.00    +0.000 A 
ENDBRANCH  13  14
ENDBRANCH  12  13
ENDBRANCH   3  12
TORSDOF 5
ENDMDL
MODEL 2
REMARK VINA RESULT:      -6.9      4.336      6.061
REMARK  Name = 
REMARK  7 active torsions:
REMARK  status: ('A' for Active; 'I' for Inactive)
REMARK    1  A    between atoms: C_1  and  C_2
REMARK    2  A    between atoms: C_2  and  C_3
REMARK    3  A    between atoms: C_2  and  S_17
REMARK    4  A    between atoms: C_5  and  C_6
REMARK    5  A    between atoms: C_6  and  O_7
REMARK    6  A    between atoms: O_7  and  C_8
REMARK    7  A    between atoms: S_17  and  C_18
REMARK                            x       y       z     vdW  Elec       q    Type
REMARK                         _______ _______ _______ _____ _____    ______ ____
ROOT
ATOM      1  C   UNL     1       2.824   3.250  18.571  0.00  0.00    +0.000 A 
ATOM      2  N   UNL     1       3.795   2.836  17.787  0.00  0.00    +0.000 NA
ATOM      3  C   UNL     1       4.116   3.975  17.087  0.00  0.00    +0.000 A 
ATOM      4  N   UNL     1       3.396   5.054  17.424  0.00  0.00    +0.000 NA
ATOM      5  O   UNL     1       2.525   4.571  18.397  0.00  0.00    +0.000 OA
ENDROOT
BRANCH   1   7
ATOM      6  C   UNL     1       0.498   2.673  19.168  0.00  0.00    +0.000 C 
ATOM      7  C   UNL     1       1.974   2.440  19.469  0.00  0.00    +0.000 C 
BRANCH   7   8
ATOM      8  S   UNL     1       2.352   2.787  21.180  0.00  0.00    +0.000 S 
ATOM      9  C   UNL     1       2.307   4.561  21.336  0.00  0.00    +0.000 C 
ATOM     10  O   UNL     1       1.317   2.238  22.033  0.00  0.00    +0.000 OA
ATOM     11  O   UNL     1       3.739   2.400  21.397  0.00  0.00    +0.000 OA
ENDBRANCH   7   8
ENDBRANCH   1   7
BRANCH   3  12
ATOM     12  C   UNL     1       5.136   4.000  16.004  0.00  0.00    +0.000 C 
BRANCH  12  13
ATOM     13  O   UNL     1       6.460   3.922  16.538  0.00  0.00    +0.000 OA
BRANCH  13  14
ATOM     14  C   UNL     1       6.974   5.070  17.077  0.00  0.00    +0.000 A 
ATOM     15  C   UNL     1       6.979   6.329  16.469  0.00  0.00    +0.000 A 
ATOM     16  C   UNL     1       7.535   7.423  17.137  0.00  0.00    +0.000 A 
ATOM     17  C   UNL     1       8.083   7.254  18.403  0.00  0.00    +0.000 A 
ATOM     18  F   UNL     1       8.609   8.309  19.039  0.00  0.00    +0.000 F 
ATOM     19  C   UNL     1       8.089   6.008  19.016  0.00  0.00    +0.000 A 
ATOM     20  C   UNL     1       7.536   4.915  18.348  0.00  0.00    +0.000 A 
ENDBRANCH  13  14
ENDBRANCH  12  13
ENDBRANCH   3  12
TORSDOF 5
ENDMDL
MODEL 3
REMARK VINA RESULT:      -6.8      5.841      7.329
REMARK  Name = 
REMARK  7 active torsions:
REMARK  status: ('A' for Active; 'I' for Inactive)
REMARK    1  A    between atoms: C_1  and  C_2
REMARK    2  A    between atoms: C_2  and  C_3
REMARK    3  A    between atoms: C_2  and  S_17
REMARK    4  A    between atoms: C_5  and  C_6
REMARK    5  A    between atoms: C_6  and  O_7
REMARK    6  A    between atoms: O_7  and  C_8
REMARK    7  A    between atoms: S_17  and  C_18
REMARK                            x       y       z     vdW  Elec       q    Type
REMARK                         _______ _______ _______ _____ _____    ______ ____
ROOT
ATOM      1  C   UNL     1       4.635   3.705  18.635  0.00  0.00    +0.000 A 
ATOM      2  N   UNL     1       4.896   4.285  17.484  0.00  0.00    +0.000 NA
ATOM      3  C   UNL     1       6.127   4.854  17.714  0.00  0.00    +0.000 A 
ATOM      4  N   UNL     1       6.622   4.629  18.939  0.00  0.00    +0.000 NA
ATOM      5  O   UNL     1       5.624   3.881  19.558  0.00  0.00    +0.000 OA
ENDROOT
BRANCH   1   7
ATOM      6  C   UNL     1       3.174   1.747  18.271  0.00  0.00    +0.000 C 
ATOM      7  C   UNL     1       3.382   3.039  19.052  0.00  0.00    +0.000 C 
BRANCH   7   8
ATOM      8  S   UNL     1       1.990   4.142  18.871  0.00  0.00    +0.000 S 
ATOM      9  C   UNL     1       0.817   3.650  20.120  0.00  0.00    +0.000 C 
ATOM     10  O   UNL     1       2.400   5.503  19.156  0.00  0.00    +0.000 OA
ATOM     11  O   UNL     1       1.366   3.836  17.592  0.00  0.00    +0.000 OA
ENDBRANCH   7   8
ENDBRANCH   1   7
BRANCH   3  12
ATOM     12  C   UNL     1       6.829   5.698  16.709  0.00  0.00    +0.000 C 
BRANCH  12  13
ATOM     13  O   UNL     1       6.023   5.895  15.544  0.00  0.00    +0.000 OA
BRANCH  13  14
ATOM     14  C   UNL     1       6.370   5.183  14.429  0.00  0.00    +0.000 A 
ATOM     15  C   UNL     1       7.526   5.370  13.665  0.00  0.00    +0.000 A 
ATOM     16  C   UNL     1       7.760   4.566  12.547  0.00  0.00    +0.000 A 
ATOM     17  C   UNL     1       6.842   3.583  12.199  0.00  0.00    +0.000 A 
ATOM     18  F   UNL     1       7.076   2.812  11.129  0.00  0.00    +0.000 F 
ATOM     19  C   UNL     1       5.688   3.390  12.946  0.00  0.00    +0.000 A 
ATOM     20  C   UNL     1       5.452   4.195  14.061  0.00  0.00    +0.000 A 
ENDBRANCH  13  14
ENDBRANCH  12  13
ENDBRANCH   3  12
TORSDOF 5
ENDMDL
MODEL 4
REMARK VINA RESULT:      -6.8      0.950      1.171
REMARK  Name = 
REMARK  7 active torsions:
REMARK  status: ('A' for Active; 'I' for Inactive)
REMARK    1  A    between atoms: C_1  and  C_2
REMARK    2  A    between atoms: C_2  and  C_3
REMARK    3  A    between atoms: C_2  and  S_17
REMARK    4  A    between atoms: C_5  and  C_6
REMARK    5  A    between atoms: C_6  and  O_7
REMARK    6  A    between atoms: O_7  and  C_8
REMARK    7  A    between atoms: S_17  and  C_18
REMARK                            x       y       z     vdW  Elec       q    Type
REMARK                         _______ _______ _______ _____ _____    ______ ____
ROOT
ATOM      1  C   UNL     1       6.769   6.090  17.279  0.00  0.00    +0.000 A 
ATOM      2  N   UNL     1       6.918   7.343  16.911  0.00  0.00    +0.000 NA
ATOM      3  C   UNL     1       7.821   7.817  17.834  0.00  0.00    +0.000 A 
ATOM      4  N   UNL     1       8.232   6.905  18.726  0.00  0.00    +0.000 NA
ATOM      5  O   UNL     1       7.521   5.762  18.370  0.00  0.00    +0.000 OA
ENDROOT
BRANCH   1   7
ATOM      6  C   UNL     1       5.636   5.269  15.245  0.00  0.00    +0.000 C 
ATOM      7  C   UNL     1       5.814   5.094  16.748  0.00  0.00    +0.000 C 
BRANCH   7   8
ATOM      8  S   UNL     1       4.251   5.197  17.606  0.00  0.00    +0.000 S 
ATOM      9  C   UNL     1       4.604   4.795  19.306  0.00  0.00    +0.000 C 
ATOM     10  O   UNL     1       3.756   6.559  17.564  0.00  0.00    +0.000 OA
ATOM     11  O   UNL     1       3.416   4.117  17.103  0.00  0.00    +0.000 OA
ENDBRANCH   7   8
ENDBRANCH   1   7
BRANCH   3  12
ATOM     12  C   UNL     1       8.264   9.237  17.879  0.00  0.00    +0.000 C 
BRANCH  12  13
ATOM     13  O   UNL     1       8.860   9.554  19.140  0.00  0.00    +0.000 OA
BRANCH  13  14
ATOM     14  C   UNL     1       9.668  10.657  19.178  0.00  0.00    +0.000 A 
ATOM     15  C   UNL     1      10.183  11.254  20.333  0.00  0.00    +0.000 A 
ATOM     16  C   UNL     1      11.004  12.380  20.228  0.00  0.00    +0.000 A 
ATOM     17  C   UNL     1      11.305  12.901  18.976  0.00  0.00    +0.000 A 
ATOM     18  F   UNL     1      12.097  13.977  18.882  0.00  0.00    +0.000 F 
ATOM     19  C   UNL     1      10.796  12.321  17.821  0.00  0.00    +0.000 A 
ATOM     20  C   UNL     1       9.974  11.198  17.925  0.00  0.00    +0.000 A 
ENDBRANCH  13  14
ENDBRANCH  12  13
ENDBRANCH   3  12
TORSDOF 5
ENDMDL
MODEL 5
REMARK VINA RESULT:      -6.7      1.280      1.548
REMARK  Name = 
REMARK  7 active torsions:
REMARK  status: ('A' for Active; 'I' for Inactive)
REMARK    1  A    between atoms: C_1  and  C_2
REMARK    2  A    between atoms: C_2  and  C_3
REMARK    3  A    between atoms: C_2  and  S_17
REMARK    4  A    between atoms: C_5  and  C_6
REMARK    5  A    between atoms: C_6  and  O_7
REMARK    6  A    between atoms: O_7  and  C_8
REMARK    7  A    between atoms: S_17  and  C_18
REMARK                            x       y       z     vdW  Elec       q    Type
REMARK                         _______ _______ _______ _____ _____    ______ ____
ROOT
ATOM      1  C   UNL     1       6.678   5.703  17.403  0.00  0.00    +0.000 A 
ATOM      2  N   UNL     1       7.489   6.133  18.344  0.00  0.00    +0.000 NA
ATOM      3  C   UNL     1       7.703   7.441  17.973  0.00  0.00    +0.000 A 
ATOM      4  N   UNL     1       7.048   7.818  16.867  0.00  0.00    +0.000 NA
ATOM      5  O   UNL     1       6.380   6.660  16.477  0.00  0.00    +0.000 OA
ENDROOT
BRANCH   1   7
ATOM      6  C   UNL     1       5.836   4.109  15.716  0.00  0.00    +0.000 C 
ATOM      7  C   UNL     1       6.196   4.323  17.181  0.00  0.00    +0.000 C 
BRANCH   7   8
ATOM      8  S   UNL     1       4.816   3.955  18.253  0.00  0.00    +0.000 S 
ATOM      9  C   UNL     1       3.932   5.489  18.449  0.00  0.00    +0.000 C 
ATOM     10  O   UNL     1       3.929   3.009  17.604  0.00  0.00    +0.000 OA
ATOM     11  O   UNL     1       5.366   3.638  19.563  0.00  0.00    +0.000 OA
ENDBRANCH   7   8
ENDBRANCH   1   7
BRANCH   3  12
ATOM     12  C   UNL     1       8.630   8.348  18.703  0.00  0.00    +0.000 C 
BRANCH  12  13
ATOM     13  O   UNL     1       8.673   9.642  18.095  0.00  0.00    +0.000 OA
BRANCH  13  14
ATOM     14  C   UNL     1       9.409  10.599  18.739  0.00  0.00    +0.000 A 
ATOM     15  C   UNL     1       9.509  10.762  20.124  0.00  0.00    +0.000 A 
ATOM     16  C   UNL     1      10.302  11.784  20.651  0.00  0.00    +0.000 A 
ATOM     17  C   UNL     1      10.989  12.635  19.795  0.00  0.00    +0.000 A 
ATOM     18  F   UNL     1      11.753  13.609  20.307  0.00  0.00    +0.000 F 
ATOM     19  C   UNL     1      10.895  12.489  18.417  0.00  0.00    +0.000 A 
ATOM     20  C   UNL     1      10.101  11.470  17.890  0.00  0.00    +0.000 A 
ENDBRANCH  13  14
ENDBRANCH  12  13
ENDBRANCH   3  12
TORSDOF 5
ENDMDL
MODEL 6
REMARK VINA RESULT:      -6.7      6.052      7.509
REMARK  Name = 
REMARK  7 active torsions:
REMARK  status: ('A' for Active; 'I' for Inactive)
REMARK    1  A    between atoms: C_1  and  C_2
REMARK    2  A    between atoms: C_2  and  C_3
REMARK    3  A    between atoms: C_2  and  S_17
REMARK    4  A    between atoms: C_5  and  C_6
REMARK    5  A    between atoms: C_6  and  O_7
REMARK    6  A    between atoms: O_7  and  C_8
REMARK    7  A    between atoms: S_17  and  C_18
REMARK                            x       y       z     vdW  Elec       q    Type
REMARK                         _______ _______ _______ _____ _____    ______ ____
ROOT
ATOM      1  C   UNL     1       5.034   4.480  17.320  0.00  0.00    +0.000 A 
ATOM      2  N   UNL     1       4.733   5.340  18.268  0.00  0.00    +0.000 NA
ATOM      3  C   UNL     1       3.368   5.203  18.368  0.00  0.00    +0.000 A 
ATOM      4  N   UNL     1       2.840   4.293  17.537  0.00  0.00    +0.000 NA
ATOM      5  O   UNL     1       3.943   3.825  16.828  0.00  0.00    +0.000 OA
ENDROOT
BRANCH   1   7
ATOM      6  C   UNL     1       7.479   4.702  17.590  0.00  0.00    +0.000 C 
ATOM      7  C   UNL     1       6.345   4.269  16.669  0.00  0.00    +0.000 C 
BRANCH   7   8
ATOM      8  S   UNL     1       6.417   5.120  15.101  0.00  0.00    +0.000 S 
ATOM      9  C   UNL     1       5.967   3.911  13.872  0.00  0.00    +0.000 C 
ATOM     10  O   UNL     1       5.426   6.178  15.070  0.00  0.00    +0.000 OA
ATOM     11  O   UNL     1       7.815   5.442  14.854  0.00  0.00    +0.000 OA
ENDBRANCH   7   8
ENDBRANCH   1   7
BRANCH   3  12
ATOM     12  C   UNL     1       2.534   6.034  19.279  0.00  0.00    +0.000 C 
BRANCH  12  13
ATOM     13  O   UNL     1       2.896   7.415  19.195  0.00  0.00    +0.000 OA
BRANCH  13  14
ATOM     14  C   UNL     1       1.873   8.322  19.248  0.00  0.00    +0.000 A 
ATOM     15  C   UNL     1       1.402   9.088  18.177  0.00  0.00    +0.000 A 
ATOM     16  C   UNL     1       0.343   9.979  18.370  0.00  0.00    +0.000 A 
ATOM     17  C   UNL     1      -0.237  10.100  19.627  0.00  0.00    +0.000 A 
ATOM     18  F   UNL     1      -1.256  10.951  19.803  0.00  0.00    +0.000 F 
ATOM     19  C   UNL     1       0.224   9.349  20.700  0.00  0.00    +0.000 A 
ATOM     20  C   UNL     1       1.284   8.461  20.509  0.00  0.00    +0.000 A 
ENDBRANCH  13  14
ENDBRANCH  12  13
ENDBRANCH   3  12
TORSDOF 5
ENDMDL
MODEL 7
REMARK VINA RESULT:      -6.7      5.837      7.304
REMARK  Name = 
REMARK  7 active torsions:
REMARK  status: ('A' for Active; 'I' for Inactive)
REMARK    1  A    between atoms: C_1  and  C_2
REMARK    2  A    between atoms: C_2  and  C_3
REMARK    3  A    between atoms: C_2  and  S_17
REMARK    4  A    between atoms: C_5  and  C_6
REMARK    5  A    between atoms: C_6  and  O_7
REMARK    6  A    between atoms: O_7  and  C_8
REMARK    7  A    between atoms: S_17  and  C_18
REMARK                            x       y       z     vdW  Elec       q    Type
REMARK                         _______ _______ _______ _____ _____    ______ ____
ROOT
ATOM      1  C   UNL     1       4.718   3.777  18.767  0.00  0.00    +0.000 A 
ATOM      2  N   UNL     1       4.644   4.476  17.656  0.00  0.00    +0.000 NA
ATOM      3  C   UNL     1       5.828   5.177  17.670  0.00  0.00    +0.000 A 
ATOM      4  N   UNL     1       6.612   4.920  18.726  0.00  0.00    +0.000 NA
ATOM      5  O   UNL     1       5.869   4.003  19.465  0.00  0.00    +0.000 OA
ENDROOT
BRANCH   1   7
ATOM      6  C   UNL     1       3.272   1.804  18.423  0.00  0.00    +0.000 C 
ATOM      7  C   UNL     1       3.673   2.925  19.375  0.00  0.00    +0.000 C 
BRANCH   7   8
ATOM      8  S   UNL     1       2.261   3.906  19.859  0.00  0.00    +0.000 S 
ATOM      9  C   UNL     1       1.441   2.975  21.138  0.00  0.00    +0.000 C 
ATOM     10  O   UNL     1       2.708   5.159  20.436  0.00  0.00    +0.000 OA
ATOM     11  O   UNL     1       1.346   3.925  18.727  0.00  0.00    +0.000 OA
ENDBRANCH   7   8
ENDBRANCH   1   7
BRANCH   3  12
ATOM     12  C   UNL     1       6.187   6.182  16.632  0.00  0.00    +0.000 C 
BRANCH  12  13
ATOM     13  O   UNL     1       7.243   5.706  15.794  0.00  0.00    +0.000 OA
BRANCH  13  14
ATOM     14  C   UNL     1       6.877   4.975  14.698  0.00  0.00    +0.000 A 
ATOM     15  C   UNL     1       5.805   4.079  14.632  0.00  0.00    +0.000 A 
ATOM     16  C   UNL     1       5.538   3.397  13.442  0.00  0.00    +0.000 A 
ATOM     17  C   UNL     1       6.339   3.613  12.328  0.00  0.00    +0.000 A 
ATOM     18  F   UNL     1       6.074   2.961  11.188  0.00  0.00    +0.000 F 
ATOM     19  C   UNL     1       7.410   4.496  12.381  0.00  0.00    +0.000 A 
ATOM     20  C   UNL     1       7.679   5.175  13.570  0.00  0.00    +0.000 A 
ENDBRANCH  13  14
ENDBRANCH  12  13
ENDBRANCH   3  12
TORSDOF 5
ENDMDL
MODEL 8
REMARK VINA RESULT:      -6.6      5.874      7.699
REMARK  Name = 
REMARK  7 active torsions:
REMARK  status: ('A' for Active; 'I' for Inactive)
REMARK    1  A    between atoms: C_1  and  C_2
REMARK    2  A    between atoms: C_2  and  C_3
REMARK    3  A    between atoms: C_2  and  S_17
REMARK    4  A    between atoms: C_5  and  C_6
REMARK    5  A    between atoms: C_6  and  O_7
REMARK    6  A    between atoms: O_7  and  C_8
REMARK    7  A    between atoms: S_17  and  C_18
REMARK                            x       y       z     vdW  Elec       q    Type
REMARK                         _______ _______ _______ _____ _____    ______ ____
ROOT
ATOM      1  C   UNL     1       4.328   5.457  17.604  0.00  0.00    +0.000 A 
ATOM      2  N   UNL     1       4.106   6.348  18.545  0.00  0.00    +0.000 NA
ATOM      3  C   UNL     1       2.828   6.038  18.948  0.00  0.00    +0.000 A 
ATOM      4  N   UNL     1       2.281   4.996  18.307  0.00  0.00    +0.000 NA
ATOM      5  O   UNL     1       3.269   4.620  17.401  0.00  0.00    +0.000 OA
ENDROOT
BRANCH   1   7
ATOM      6  C   UNL     1       5.250   4.318  15.616  0.00  0.00    +0.000 C 
ATOM      7  C   UNL     1       5.490   5.367  16.695  0.00  0.00    +0.000 C 
BRANCH   7   8
ATOM      8  S   UNL     1       6.985   5.029  17.612  0.00  0.00    +0.000 S 
ATOM      9  C   UNL     1       7.639   6.620  18.076  0.00  0.00    +0.000 C 
ATOM     10  O   UNL     1       6.663   4.308  18.828  0.00  0.00    +0.000 OA
ATOM     11  O   UNL     1       7.942   4.459  16.674  0.00  0.00    +0.000 OA
ENDBRANCH   7   8
ENDBRANCH   1   7
BRANCH   3  12
ATOM     12  C   UNL     1       2.087   6.826  19.971  0.00  0.00    +0.000 C 
BRANCH  12  13
ATOM     13  O   UNL     1       1.794   8.143  19.497  0.00  0.00    +0.000 OA
BRANCH  13  14
ATOM     14  C   UNL     1       1.097   8.961  20.344  0.00  0.00    +0.000 A 
ATOM     15  C   UNL     1       0.405  10.120  19.978  0.00  0.00    +0.000 A 
ATOM     16  C   UNL     1      -0.272  10.863  20.949  0.00  0.00    +0.000 A 
ATOM     17  C   UNL     1      -0.254  10.447  22.274  0.00  0.00    +0.000 A 
ATOM     18  F   UNL     1      -0.910  11.160  23.198  0.00  0.00    +0.000 F 
ATOM     19  C   UNL     1       0.434   9.301  22.652  0.00  0.00    +0.000 A 
ATOM     20  C   UNL     1       1.112   8.559  21.683  0.00  0.00    +0.000 A 
ENDBRANCH  13  14
ENDBRANCH  12  13
ENDBRANCH   3  12
TORSDOF 5
ENDMDL
MODEL 9
REMARK VINA RESULT:      -6.6      5.970      7.423
REMARK  Name = 
REMARK  7 active torsions:
REMARK  status: ('A' for Active; 'I' for Inactive)
REMARK    1  A    between atoms: C_1  and  C_2
REMARK    2  A    between atoms: C_2  and  C_3
REMARK    3  A    between atoms: C_2  and  S_17
REMARK    4  A    between atoms: C_5  and  C_6
REMARK    5  A    between atoms: C_6  and  O_7
REMARK    6  A    between atoms: O_7  and  C_8
REMARK    7  A    between atoms: S_17  and  C_18
REMARK                            x       y       z     vdW  Elec       q    Type
REMARK                         _______ _______ _______ _____ _____    ______ ____
ROOT
ATOM      1  C   UNL     1       5.010   4.704  17.489  0.00  0.00    +0.000 A 
ATOM      2  N   UNL     1       4.827   5.561  18.470  0.00  0.00    +0.000 NA
ATOM      3  C   UNL     1       3.458   5.563  18.607  0.00  0.00    +0.000 A 
ATOM      4  N   UNL     1       2.815   4.738  17.768  0.00  0.00    +0.000 NA
ATOM      5  O   UNL     1       3.843   4.180  17.013  0.00  0.00    +0.000 OA
ENDROOT
BRANCH   1   7
ATOM      6  C   UNL     1       7.473   4.716  17.670  0.00  0.00    +0.000 C 
ATOM      7  C   UNL     1       6.273   4.377  16.794  0.00  0.00    +0.000 C 
BRANCH   7   8
ATOM      8  S   UNL     1       6.361   5.211  15.217  0.00  0.00    +0.000 S 
ATOM      9  C   UNL     1       5.818   4.020  14.008  0.00  0.00    +0.000 C 
ATOM     10  O   UNL     1       5.430   6.323  15.197  0.00  0.00    +0.000 OA
ATOM     11  O   UNL     1       7.769   5.451  14.939  0.00  0.00    +0.000 OA
ENDBRANCH   7   8
ENDBRANCH   1   7
BRANCH   3  12
ATOM     12  C   UNL     1       2.741   6.449  19.565  0.00  0.00    +0.000 C 
BRANCH  12  13
ATOM     13  O   UNL     1       2.146   7.563  18.894  0.00  0.00    +0.000 OA
BRANCH  13  14
ATOM     14  C   UNL     1       1.529   8.496  19.681  0.00  0.00    +0.000 A 
ATOM     15  C   UNL     1       1.044   9.736  19.253  0.00  0.00    +0.000 A 
ATOM     16  C   UNL     1       0.428  10.596  20.166  0.00  0.00    +0.000 A 
ATOM     17  C   UNL     1       0.301  10.216  21.496  0.00  0.00    +0.000 A 
ATOM     18  F   UNL     1      -0.296  11.042  22.364  0.00  0.00    +0.000 F 
ATOM     19  C   UNL     1       0.783   8.989  21.935  0.00  0.00    +0.000 A 
ATOM     20  C   UNL     1       1.400   8.131  21.025  0.00  0.00    +0.000 A 
ENDBRANCH  13  14
ENDBRANCH  12  13
ENDBRANCH   3  12
TORSDOF 5
ENDMDL
