MODEL 1
REMARK VINA RESULT:      -8.2      0.000      0.000
REMARK  Name = 
REMARK  11 active torsions:
REMARK  status: ('A' for Active; 'I' for Inactive)
REMARK    1  A    between atoms: C_1  and  O_2
REMARK    2  A    between atoms: O_2  and  C_3
REMARK    3  A    between atoms: C_6  and  C_7
REMARK    4  A    between atoms: C_9  and  C_10
REMARK    5  A    between atoms: C_10  and  C_11
REMARK    6  A    between atoms: C_13  and  C_14
REMARK    7  A    between atoms: N_15  and  C_16
REMARK    8  A    between atoms: C_16  and  C_17
REMARK    9  A    between atoms: C_17  and  C_18
REMARK   10  A    between atoms: N_20  and  C_21
REMARK   11  A    between atoms: C_24  and  C_25
REMARK                            x       y       z     vdW  Elec       q    Type
REMARK                         _______ _______ _______ _____ _____    ______ ____
ROOT
ATOM      1  C   UNL     1       4.077   4.354  18.331  0.00  0.00    +0.000 A 
ATOM      2  C   UNL     1       4.086   3.352  19.288  0.00  0.00    +0.000 A 
ATOM      3  C   UNL     1       3.011   3.522  20.197  0.00  0.00    +0.000 A 
ATOM      4  C   UNL     1       2.338   4.666  19.783  0.00  0.00    +0.000 A 
ATOM      5  C   UNL     1       1.187   5.397  20.398  0.00  0.00    +0.000 C 
ATOM      6  N   UNL     1       2.969   5.141  18.626  0.00  0.00    +0.000 N 
ENDROOT
BRANCH   1  10
ATOM      7  C   UNL     1       6.965   5.016  15.201  0.00  0.00    +0.000 A 
ATOM      8  C   UNL     1       7.226   5.391  16.515  0.00  0.00    +0.000 A 
ATOM      9  C   UNL     1       6.302   5.122  17.528  0.00  0.00    +0.000 A 
ATOM     10  C   UNL     1       5.069   4.508  17.247  0.00  0.00    +0.000 A 
ATOM     11  C   UNL     1       4.811   4.164  15.916  0.00  0.00    +0.000 A 
ATOM     12  C   UNL     1       5.757   4.391  14.904  0.00  0.00    +0.000 A 
BRANCH   7  14
ATOM     13  C   UNL     1       7.624   5.114  12.931  0.00  0.00    +0.000 C 
ATOM     14  O   UNL     1       7.929   5.359  14.297  0.00  0.00    +0.000 OA
ENDBRANCH   7  14
ENDBRANCH   1  10
BRANCH   3  15
ATOM     15  C   UNL     1       2.801   2.631  21.347  0.00  0.00    +0.000 C 
ATOM     16  C   UNL     1       1.441   2.438  21.963  0.00  0.00    +0.000 C 
ATOM     17  O   UNL     1       3.744   1.969  21.794  0.00  0.00    +0.000 OA
ENDBRANCH   3  15
BRANCH   6  18
ATOM     18  C   UNL     1       2.508   6.313  17.883  0.00  0.00    +0.000 C 
BRANCH  18  19
ATOM     19  C   UNL     1       3.281   7.601  18.113  0.00  0.00    +0.000 C 
BRANCH  19  20
ATOM     20  C   UNL     1       2.350   8.785  18.132  0.00  0.00    +0.000 C 
ATOM     21  O   UNL     1       2.313   9.550  17.173  0.00  0.00    +0.000 OA
ATOM     22  N   UNL     1       1.632   8.895  19.306  0.00  0.00    +0.000 N 
ATOM     23  H   UNL     1       1.941   8.340  20.097  0.00  0.00    +0.000 HD
BRANCH  22  24
ATOM     24  C   UNL     1       0.561   9.779  19.546  0.00  0.00    +0.000 A 
ATOM     25  C   UNL     1       0.504  10.608  20.666  0.00  0.00    +0.000 A 
ATOM     26  C   UNL     1      -0.536  11.518  20.823  0.00  0.00    +0.000 A 
ATOM     27  C   UNL     1      -1.553  11.621  19.866  0.00  0.00    +0.000 A 
ATOM     28  C   UNL     1      -2.625  12.650  20.046  0.00  0.00    +0.000 C 
ATOM     29  C   UNL     1      -1.510  10.761  18.755  0.00  0.00    +0.000 A 
ATOM     30 CL   UNL     1      -2.751  10.786  17.553  0.00  0.00    +0.000 Cl
ATOM     31  C   UNL     1      -0.455   9.858  18.589  0.00  0.00    +0.000 A 
ENDBRANCH  22  24
ENDBRANCH  19  20
ENDBRANCH  18  19
ENDBRANCH   6  18
TORSDOF 7
ENDMDL
MODEL 2
REMARK VINA RESULT:      -8.0      4.868      8.239
REMARK  Name = 
REMARK  11 active torsions:
REMARK  status: ('A' for Active; 'I' for Inactive)
REMARK    1  A    between atoms: C_1  and  O_2
REMARK    2  A    between atoms: O_2  and  C_3
REMARK    3  A    between atoms: C_6  and  C_7
REMARK    4  A    between atoms: C_9  and  C_10
REMARK    5  A    between atoms: C_10  and  C_11
REMARK    6  A    between atoms: C_13  and  C_14
REMARK    7  A    between atoms: N_15  and  C_16
REMARK    8  A    between atoms: C_16  and  C_17
REMARK    9  A    between atoms: C_17  and  C_18
REMARK   10  A    between atoms: N_20  and  C_21
REMARK   11  A    between atoms: C_24  and  C_25
REMARK                            x       y       z     vdW  Elec       q    Type
REMARK                         _______ _______ _______ _____ _____    ______ ____
ROOT
ATOM      1  C   UNL     1       5.341   4.626  16.228  0.00  0.00    +0.000 A 
ATOM      2  C   UNL     1       4.964   3.963  15.071  0.00  0.00    +0.000 A 
ATOM      3  C   UNL     1       5.954   4.110  14.067  0.00  0.00    +0.000 A 
ATOM      4  C   UNL     1       6.956   4.892  14.631  0.00  0.00    +0.000 A 
ATOM      5  C   UNL     1       8.204   5.460  14.031  0.00  0.00    +0.000 C 
ATOM      6  N   UNL     1       6.593   5.167  15.955  0.00  0.00    +0.000 N 
ENDROOT
BRANCH   1  10
ATOM      7  C   UNL     1       2.916   4.679  19.790  0.00  0.00    +0.000 A 
ATOM      8  C   UNL     1       3.893   3.708  19.597  0.00  0.00    +0.000 A 
ATOM      9  C   UNL     1       4.708   3.735  18.461  0.00  0.00    +0.000 A 
ATOM     10  C   UNL     1       4.537   4.712  17.464  0.00  0.00    +0.000 A 
ATOM     11  C   UNL     1       3.531   5.662  17.661  0.00  0.00    +0.000 A 
ATOM     12  C   UNL     1       2.743   5.665  18.823  0.00  0.00    +0.000 A 
BRANCH   7  14
ATOM     13  C   UNL     1       1.790   3.200  21.254  0.00  0.00    +0.000 C 
ATOM     14  O   UNL     1       2.165   4.530  20.921  0.00  0.00    +0.000 OA
ENDBRANCH   7  14
ENDBRANCH   1  10
BRANCH   3  15
ATOM     15  C   UNL     1       5.799   3.549  12.717  0.00  0.00    +0.000 C 
ATOM     16  C   UNL     1       4.453   3.449  12.050  0.00  0.00    +0.000 C 
ATOM     17  O   UNL     1       6.797   3.202  12.076  0.00  0.00    +0.000 OA
ENDBRANCH   3  15
BRANCH   6  18
ATOM     18  C   UNL     1       7.431   5.937  16.874  0.00  0.00    +0.000 C 
BRANCH  18  19
ATOM     19  C   UNL     1       6.978   7.358  17.165  0.00  0.00    +0.000 C 
BRANCH  19  20
ATOM     20  C   UNL     1       7.975   8.066  18.045  0.00  0.00    +0.000 C 
ATOM     21  O   UNL     1       8.602   7.435  18.890  0.00  0.00    +0.000 OA
ATOM     22  N   UNL     1       8.045   9.424  17.807  0.00  0.00    +0.000 N 
ATOM     23  H   UNL     1       7.300   9.841  17.257  0.00  0.00    +0.000 HD
BRANCH  22  24
ATOM     24  C   UNL     1       9.002  10.312  18.334  0.00  0.00    +0.000 A 
ATOM     25  C   UNL     1      10.044  10.839  17.569  0.00  0.00    +0.000 A 
ATOM     26  C   UNL     1      10.922  11.770  18.114  0.00  0.00    +0.000 A 
ATOM     27  C   UNL     1      10.787  12.199  19.439  0.00  0.00    +0.000 A 
ATOM     28  C   UNL     1      11.720  13.243  19.969  0.00  0.00    +0.000 C 
ATOM     29  C   UNL     1       9.756  11.642  20.216  0.00  0.00    +0.000 A 
ATOM     30 CL   UNL     1       9.549  12.076  21.876  0.00  0.00    +0.000 Cl
ATOM     31  C   UNL     1       8.863  10.718  19.665  0.00  0.00    +0.000 A 
ENDBRANCH  22  24
ENDBRANCH  19  20
ENDBRANCH  18  19
ENDBRANCH   6  18
TORSDOF 7
ENDMDL
MODEL 3
REMARK VINA RESULT:      -7.9      1.576      1.901
REMARK  Name = 
REMARK  11 active torsions:
REMARK  status: ('A' for Active; 'I' for Inactive)
REMARK    1  A    between atoms: C_1  and  O_2
REMARK    2  A    between atoms: O_2  and  C_3
REMARK    3  A    between atoms: C_6  and  C_7
REMARK    4  A    between atoms: C_9  and  C_10
REMARK    5  A    between atoms: C_10  and  C_11
REMARK    6  A    between atoms: C_13  and  C_14
REMARK    7  A    between atoms: N_15  and  C_16
REMARK    8  A    between atoms: C_16  and  C_17
REMARK    9  A    between atoms: C_17  and  C_18
REMARK   10  A    between atoms: N_20  and  C_21
REMARK   11  A    between atoms: C_24  and  C_25
REMARK                            x       y       z     vdW  Elec       q    Type
REMARK                         _______ _______ _______ _____ _____    ______ ____
ROOT
ATOM      1  C   UNL     1       3.886   4.756  18.358  0.00  0.00    +0.000 A 
ATOM      2  C   UNL     1       3.391   3.522  18.747  0.00  0.00    +0.000 A 
ATOM      3  C   UNL     1       2.342   3.680  19.689  0.00  0.00    +0.000 A 
ATOM      4  C   UNL     1       2.207   5.050  19.882  0.00  0.00    +0.000 A 
ATOM      5  C   UNL     1       1.337   5.820  20.825  0.00  0.00    +0.000 C 
ATOM      6  N   UNL     1       3.121   5.696  19.041  0.00  0.00    +0.000 N 
ENDROOT
BRANCH   1  10
ATOM      7  C   UNL     1       7.045   5.244  15.468  0.00  0.00    +0.000 A 
ATOM      8  C   UNL     1       5.734   5.601  15.171  0.00  0.00    +0.000 A 
ATOM      9  C   UNL     1       4.730   5.487  16.137  0.00  0.00    +0.000 A 
ATOM     10  C   UNL     1       5.003   4.969  17.415  0.00  0.00    +0.000 A 
ATOM     11  C   UNL     1       6.321   4.588  17.686  0.00  0.00    +0.000 A 
ATOM     12  C   UNL     1       7.340   4.746  16.733  0.00  0.00    +0.000 A 
BRANCH   7  14
ATOM     13  C   UNL     1       7.509   4.853  13.181  0.00  0.00    +0.000 C 
ATOM     14  O   UNL     1       7.930   5.372  14.435  0.00  0.00    +0.000 OA
ENDBRANCH   7  14
ENDBRANCH   1  10
BRANCH   3  15
ATOM     15  C   UNL     1       1.660   2.535  20.310  0.00  0.00    +0.000 C 
ATOM     16  C   UNL     1       1.445   2.453  21.797  0.00  0.00    +0.000 C 
ATOM     17  O   UNL     1       1.192   1.638  19.601  0.00  0.00    +0.000 OA
ENDBRANCH   3  15
BRANCH   6  18
ATOM     18  C   UNL     1       3.236   7.151  18.945  0.00  0.00    +0.000 C 
BRANCH  18  19
ATOM     19  C   UNL     1       2.427   7.817  17.844  0.00  0.00    +0.000 C 
BRANCH  19  20
ATOM     20  C   UNL     1       1.511   8.867  18.416  0.00  0.00    +0.000 C 
ATOM     21  O   UNL     1       0.781   9.514  17.672  0.00  0.00    +0.000 OA
ATOM     22  N   UNL     1       1.630   9.007  19.785  0.00  0.00    +0.000 N 
ATOM     23  H   UNL     1       2.438   8.583  20.229  0.00  0.00    +0.000 HD
BRANCH  22  24
ATOM     24  C   UNL     1       0.786   9.765  20.619  0.00  0.00    +0.000 A 
ATOM     25  C   UNL     1       0.211   9.248  21.781  0.00  0.00    +0.000 A 
ATOM     26  C   UNL     1      -0.555  10.057  22.613  0.00  0.00    +0.000 A 
ATOM     27  C   UNL     1      -0.774  11.405  22.305  0.00  0.00    +0.000 A 
ATOM     28  C   UNL     1      -1.560  12.254  23.255  0.00  0.00    +0.000 C 
ATOM     29  C   UNL     1      -0.221  11.914  21.117  0.00  0.00    +0.000 A 
ATOM     30 CL   UNL     1      -0.483  13.553  20.635  0.00  0.00    +0.000 Cl
ATOM     31  C   UNL     1       0.564  11.106  20.288  0.00  0.00    +0.000 A 
ENDBRANCH  22  24
ENDBRANCH  19  20
ENDBRANCH  18  19
ENDBRANCH   6  18
TORSDOF 7
ENDMDL
MODEL 4
REMARK VINA RESULT:      -7.8      1.361      1.797
REMARK  Name = 
REMARK  11 active torsions:
REMARK  status: ('A' for Active; 'I' for Inactive)
REMARK    1  A    between atoms: C_1  and  O_2
REMARK    2  A    between atoms: O_2  and  C_3
REMARK    3  A    between atoms: C_6  and  C_7
REMARK    4  A    between atoms: C_9  and  C_10
REMARK    5  A    between atoms: C_10  and  C_11
REMARK    6  A    between atoms: C_13  and  C_14
REMARK    7  A    between atoms: N_15  and  C_16
REMARK    8  A    between atoms: C_16  and  C_17
REMARK    9  A    between atoms: C_17  and  C_18
REMARK   10  A    between atoms: N_20  and  C_21
REMARK   11  A    between atoms: C_24  and  C_25
REMARK                            x       y       z     vdW  Elec       q    Type
REMARK                         _______ _______ _______ _____ _____    ______ ____
ROOT
ATOM      1  C   UNL     1       4.140   5.035  18.600  0.00  0.00    +0.000 A 
ATOM      2  C   UNL     1       3.805   3.882  19.291  0.00  0.00    +0.000 A 
ATOM      3  C   UNL     1       2.789   4.150  20.244  0.00  0.00    +0.000 A 
ATOM      4  C   UNL     1       2.509   5.507  20.132  0.00  0.00    +0.000 A 
ATOM      5  C   UNL     1       1.602   6.386  20.934  0.00  0.00    +0.000 C 
ATOM      6  N   UNL     1       3.305   6.027  19.104  0.00  0.00    +0.000 N 
ENDROOT
BRANCH   1  10
ATOM      7  C   UNL     1       7.068   5.172  15.441  0.00  0.00    +0.000 A 
ATOM      8  C   UNL     1       5.739   5.507  15.207  0.00  0.00    +0.000 A 
ATOM      9  C   UNL     1       4.812   5.510  16.253  0.00  0.00    +0.000 A 
ATOM     10  C   UNL     1       5.181   5.133  17.556  0.00  0.00    +0.000 A 
ATOM     11  C   UNL     1       6.515   4.771  17.767  0.00  0.00    +0.000 A 
ATOM     12  C   UNL     1       7.458   4.813  16.728  0.00  0.00    +0.000 A 
BRANCH   7  14
ATOM     13  C   UNL     1       7.245   4.844  13.105  0.00  0.00    +0.000 C 
ATOM     14  O   UNL     1       7.871   5.178  14.336  0.00  0.00    +0.000 OA
ENDBRANCH   7  14
ENDBRANCH   1  10
BRANCH   3  15
ATOM     15  C   UNL     1       2.269   3.120  21.155  0.00  0.00    +0.000 C 
ATOM     16  C   UNL     1       0.825   2.697  21.132  0.00  0.00    +0.000 C 
ATOM     17  O   UNL     1       3.038   2.534  21.925  0.00  0.00    +0.000 OA
ENDBRANCH   3  15
BRANCH   6  18
ATOM     18  C   UNL     1       3.250   7.424  18.673  0.00  0.00    +0.000 C 
BRANCH  18  19
ATOM     19  C   UNL     1       2.091   7.802  17.766  0.00  0.00    +0.000 C 
BRANCH  19  20
ATOM     20  C   UNL     1       1.610   9.197  18.068  0.00  0.00    +0.000 C 
ATOM     21  O   UNL     1       2.098  10.155  17.477  0.00  0.00    +0.000 OA
ATOM     22  N   UNL     1       0.645   9.238  19.055  0.00  0.00    +0.000 N 
ATOM     23  H   UNL     1       0.518   8.405  19.620  0.00  0.00    +0.000 HD
BRANCH  22  24
ATOM     24  C   UNL     1      -0.121  10.362  19.422  0.00  0.00    +0.000 A 
ATOM     25  C   UNL     1      -0.840  11.119  18.497  0.00  0.00    +0.000 A 
ATOM     26  C   UNL     1      -1.642  12.175  18.917  0.00  0.00    +0.000 A 
ATOM     27  C   UNL     1      -1.744  12.509  20.272  0.00  0.00    +0.000 A 
ATOM     28  C   UNL     1      -2.659  13.619  20.686  0.00  0.00    +0.000 C 
ATOM     29  C   UNL     1      -0.992  11.764  21.198  0.00  0.00    +0.000 A 
ATOM     30 CL   UNL     1      -1.018  12.141  22.884  0.00  0.00    +0.000 Cl
ATOM     31  C   UNL     1      -0.198  10.692  20.779  0.00  0.00    +0.000 A 
ENDBRANCH  22  24
ENDBRANCH  19  20
ENDBRANCH  18  19
ENDBRANCH   6  18
TORSDOF 7
ENDMDL
MODEL 5
REMARK VINA RESULT:      -7.8      4.987      7.698
REMARK  Name = 
REMARK  11 active torsions:
REMARK  status: ('A' for Active; 'I' for Inactive)
REMARK    1  A    between atoms: C_1  and  O_2
REMARK    2  A    between atoms: O_2  and  C_3
REMARK    3  A    between atoms: C_6  and  C_7
REMARK    4  A    between atoms: C_9  and  C_10
REMARK    5  A    between atoms: C_10  and  C_11
REMARK    6  A    between atoms: C_13  and  C_14
REMARK    7  A    between atoms: N_15  and  C_16
REMARK    8  A    between atoms: C_16  and  C_17
REMARK    9  A    between atoms: C_17  and  C_18
REMARK   10  A    between atoms: N_20  and  C_21
REMARK   11  A    between atoms: C_24  and  C_25
REMARK                            x       y       z     vdW  Elec       q    Type
REMARK                         _______ _______ _______ _____ _____    ______ ____
ROOT
ATOM      1  C   UNL     1       3.784   6.124  18.650  0.00  0.00    +0.000 A 
ATOM      2  C   UNL     1       3.440   4.874  19.138  0.00  0.00    +0.000 A 
ATOM      3  C   UNL     1       4.466   3.933  18.865  0.00  0.00    +0.000 A 
ATOM      4  C   UNL     1       5.455   4.634  18.184  0.00  0.00    +0.000 A 
ATOM      5  C   UNL     1       6.728   4.162  17.555  0.00  0.00    +0.000 C 
ATOM      6  N   UNL     1       5.050   5.972  18.093  0.00  0.00    +0.000 N 
ENDROOT
BRANCH   1  10
ATOM      7  C   UNL     1       1.146   9.522  18.911  0.00  0.00    +0.000 A 
ATOM      8  C   UNL     1       1.298   8.643  19.978  0.00  0.00    +0.000 A 
ATOM      9  C   UNL     1       2.198   7.576  19.898  0.00  0.00    +0.000 A 
ATOM     10  C   UNL     1       2.938   7.333  18.728  0.00  0.00    +0.000 A 
ATOM     11  C   UNL     1       2.751   8.209  17.655  0.00  0.00    +0.000 A 
ATOM     12  C   UNL     1       1.883   9.309  17.750  0.00  0.00    +0.000 A 
BRANCH   7  14
ATOM     13  C   UNL     1      -0.474  10.488  20.339  0.00  0.00    +0.000 C 
ATOM     14  O   UNL     1       0.218  10.506  19.098  0.00  0.00    +0.000 OA
ENDBRANCH   7  14
ENDBRANCH   1  10
BRANCH   3  15
ATOM     15  C   UNL     1       4.353   2.513  19.228  0.00  0.00    +0.000 C 
ATOM     16  C   UNL     1       3.591   1.535  18.373  0.00  0.00    +0.000 C 
ATOM     17  O   UNL     1       4.942   2.083  20.225  0.00  0.00    +0.000 OA
ENDBRANCH   3  15
BRANCH   6  18
ATOM     18  C   UNL     1       5.862   7.017  17.472  0.00  0.00    +0.000 C 
BRANCH  18  19
ATOM     19  C   UNL     1       7.297   7.131  17.960  0.00  0.00    +0.000 C 
BRANCH  19  20
ATOM     20  C   UNL     1       7.762   8.563  17.919  0.00  0.00    +0.000 C 
ATOM     21  O   UNL     1       7.250   9.351  17.129  0.00  0.00    +0.000 OA
ATOM     22  N   UNL     1       8.790   8.828  18.802  0.00  0.00    +0.000 N 
ATOM     23  H   UNL     1       9.272   8.033  19.210  0.00  0.00    +0.000 HD
BRANCH  22  24
ATOM     24  C   UNL     1       9.304  10.099  19.123  0.00  0.00    +0.000 A 
ATOM     25  C   UNL     1       9.337  10.592  20.427  0.00  0.00    +0.000 A 
ATOM     26  C   UNL     1       9.921  11.823  20.705  0.00  0.00    +0.000 A 
ATOM     27  C   UNL     1      10.486  12.600  19.686  0.00  0.00    +0.000 A 
ATOM     28  C   UNL     1      11.153  13.893  20.036  0.00  0.00    +0.000 C 
ATOM     29  C   UNL     1      10.421  12.114  18.368  0.00  0.00    +0.000 A 
ATOM     30 CL   UNL     1      11.047  13.031  17.044  0.00  0.00    +0.000 Cl
ATOM     31  C   UNL     1       9.848  10.869  18.090  0.00  0.00    +0.000 A 
ENDBRANCH  22  24
ENDBRANCH  19  20
ENDBRANCH  18  19
ENDBRANCH   6  18
TORSDOF 7
ENDMDL
MODEL 6
REMARK VINA RESULT:      -7.8      1.430      1.798
REMARK  Name = 
REMARK  11 active torsions:
REMARK  status: ('A' for Active; 'I' for Inactive)
REMARK    1  A    between atoms: C_1  and  O_2
REMARK    2  A    between atoms: O_2  and  C_3
REMARK    3  A    between atoms: C_6  and  C_7
REMARK    4  A    between atoms: C_9  and  C_10
REMARK    5  A    between atoms: C_10  and  C_11
REMARK    6  A    between atoms: C_13  and  C_14
REMARK    7  A    between atoms: N_15  and  C_16
REMARK    8  A    between atoms: C_16  and  C_17
REMARK    9  A    between atoms: C_17  and  C_18
REMARK   10  A    between atoms: N_20  and  C_21
REMARK   11  A    between atoms: C_24  and  C_25
REMARK                            x       y       z     vdW  Elec       q    Type
REMARK                         _______ _______ _______ _____ _____    ______ ____
ROOT
ATOM      1  C   UNL     1       4.069   4.508  18.290  0.00  0.00    +0.000 A 
ATOM      2  C   UNL     1       4.200   3.492  19.224  0.00  0.00    +0.000 A 
ATOM      3  C   UNL     1       3.092   3.483  20.110  0.00  0.00    +0.000 A 
ATOM      4  C   UNL     1       2.273   4.531  19.705  0.00  0.00    +0.000 A 
ATOM      5  C   UNL     1       1.016   5.074  20.307  0.00  0.00    +0.000 C 
ATOM      6  N   UNL     1       2.854   5.121  18.576  0.00  0.00    +0.000 N 
ENDROOT
BRANCH   1  10
ATOM      7  C   UNL     1       7.003   5.241  15.221  0.00  0.00    +0.000 A 
ATOM      8  C   UNL     1       5.985   4.311  15.037  0.00  0.00    +0.000 A 
ATOM      9  C   UNL     1       5.010   4.123  16.021  0.00  0.00    +0.000 A 
ATOM     10  C   UNL     1       5.052   4.829  17.236  0.00  0.00    +0.000 A 
ATOM     11  C   UNL     1       6.100   5.739  17.414  0.00  0.00    +0.000 A 
ATOM     12  C   UNL     1       7.053   5.964  16.409  0.00  0.00    +0.000 A 
BRANCH   7  14
ATOM     13  C   UNL     1       7.453   4.903  12.922  0.00  0.00    +0.000 C 
ATOM     14  O   UNL     1       7.912   5.314  14.203  0.00  0.00    +0.000 OA
ENDBRANCH   7  14
ENDBRANCH   1  10
BRANCH   3  15
ATOM     15  C   UNL     1       2.987   2.541  21.233  0.00  0.00    +0.000 C 
ATOM     16  C   UNL     1       1.676   2.275  21.924  0.00  0.00    +0.000 C 
ATOM     17  O   UNL     1       3.979   1.898  21.592  0.00  0.00    +0.000 OA
ENDBRANCH   3  15
BRANCH   6  18
ATOM     18  C   UNL     1       2.247   6.235  17.849  0.00  0.00    +0.000 C 
BRANCH  18  19
ATOM     19  C   UNL     1       2.860   7.606  18.085  0.00  0.00    +0.000 C 
BRANCH  19  20
ATOM     20  C   UNL     1       1.922   8.481  18.875  0.00  0.00    +0.000 C 
ATOM     21  O   UNL     1       1.786   8.301  20.081  0.00  0.00    +0.000 OA
ATOM     22  N   UNL     1       1.264   9.414  18.098  0.00  0.00    +0.000 N 
ATOM     23  H   UNL     1       1.290   9.286  17.091  0.00  0.00    +0.000 HD
BRANCH  22  24
ATOM     24  C   UNL     1       0.474  10.479  18.570  0.00  0.00    +0.000 A 
ATOM     25  C   UNL     1      -0.905  10.372  18.755  0.00  0.00    +0.000 A 
ATOM     26  C   UNL     1      -1.632  11.428  19.293  0.00  0.00    +0.000 A 
ATOM     27  C   UNL     1      -1.003  12.625  19.658  0.00  0.00    +0.000 A 
ATOM     28  C   UNL     1      -1.813  13.716  20.284  0.00  0.00    +0.000 C 
ATOM     29  C   UNL     1       0.381  12.741  19.440  0.00  0.00    +0.000 A 
ATOM     30 CL   UNL     1       1.229  14.200  19.814  0.00  0.00    +0.000 Cl
ATOM     31  C   UNL     1       1.116  11.673  18.914  0.00  0.00    +0.000 A 
ENDBRANCH  22  24
ENDBRANCH  19  20
ENDBRANCH  18  19
ENDBRANCH   6  18
TORSDOF 7
ENDMDL
MODEL 7
REMARK VINA RESULT:      -7.7      1.377      1.669
REMARK  Name = 
REMARK  11 active torsions:
REMARK  status: ('A' for Active; 'I' for Inactive)
REMARK    1  A    between atoms: C_1  and  O_2
REMARK    2  A    between atoms: O_2  and  C_3
REMARK    3  A    between atoms: C_6  and  C_7
REMARK    4  A    between atoms: C_9  and  C_10
REMARK    5  A    between atoms: C_10  and  C_11
REMARK    6  A    between atoms: C_13  and  C_14
REMARK    7  A    between atoms: N_15  and  C_16
REMARK    8  A    between atoms: C_16  and  C_17
REMARK    9  A    between atoms: C_17  and  C_18
REMARK   10  A    between atoms: N_20  and  C_21
REMARK   11  A    between atoms: C_24  and  C_25
REMARK                            x       y       z     vdW  Elec       q    Type
REMARK                         _______ _______ _______ _____ _____    ______ ____
ROOT
ATOM      1  C   UNL     1       3.775   4.860  18.027  0.00  0.00    +0.000 A 
ATOM      2  C   UNL     1       3.184   3.702  18.506  0.00  0.00    +0.000 A 
ATOM      3  C   UNL     1       2.207   4.010  19.488  0.00  0.00    +0.000 A 
ATOM      4  C   UNL     1       2.215   5.395  19.612  0.00  0.00    +0.000 A 
ATOM      5  C   UNL     1       1.475   6.294  20.552  0.00  0.00    +0.000 C 
ATOM      6  N   UNL     1       3.141   5.904  18.693  0.00  0.00    +0.000 N 
ENDROOT
BRANCH   1  10
ATOM      7  C   UNL     1       6.925   5.233  15.111  0.00  0.00    +0.000 A 
ATOM      8  C   UNL     1       7.099   5.671  16.419  0.00  0.00    +0.000 A 
ATOM      9  C   UNL     1       6.086   5.495  17.368  0.00  0.00    +0.000 A 
ATOM     10  C   UNL     1       4.854   4.914  17.020  0.00  0.00    +0.000 A 
ATOM     11  C   UNL     1       4.688   4.506  15.693  0.00  0.00    +0.000 A 
ATOM     12  C   UNL     1       5.719   4.639  14.751  0.00  0.00    +0.000 A 
BRANCH   7  14
ATOM     13  C   UNL     1       7.785   5.125  12.909  0.00  0.00    +0.000 C 
ATOM     14  O   UNL     1       7.972   5.487  14.271  0.00  0.00    +0.000 OA
ENDBRANCH   7  14
ENDBRANCH   1  10
BRANCH   3  15
ATOM     15  C   UNL     1       1.452   2.971  20.204  0.00  0.00    +0.000 C 
ATOM     16  C   UNL     1       0.482   2.066  19.494  0.00  0.00    +0.000 C 
ATOM     17  O   UNL     1       1.653   2.785  21.409  0.00  0.00    +0.000 OA
ENDBRANCH   3  15
BRANCH   6  18
ATOM     18  C   UNL     1       3.390   7.334  18.512  0.00  0.00    +0.000 C 
BRANCH  18  19
ATOM     19  C   UNL     1       2.613   8.015  17.396  0.00  0.00    +0.000 C 
BRANCH  19  20
ATOM     20  C   UNL     1       1.989   9.295  17.885  0.00  0.00    +0.000 C 
ATOM     21  O   UNL     1       2.545  10.368  17.670  0.00  0.00    +0.000 OA
ATOM     22  N   UNL     1       0.816   9.097  18.586  0.00  0.00    +0.000 N 
ATOM     23  H   UNL     1       0.609   8.152  18.893  0.00  0.00    +0.000 HD
BRANCH  22  24
ATOM     24  C   UNL     1      -0.083  10.098  19.002  0.00  0.00    +0.000 A 
ATOM     25  C   UNL     1      -1.100  10.587  18.182  0.00  0.00    +0.000 A 
ATOM     26  C   UNL     1      -2.010  11.522  18.663  0.00  0.00    +0.000 A 
ATOM     27  C   UNL     1      -1.926  12.001  19.976  0.00  0.00    +0.000 A 
ATOM     28  C   UNL     1      -2.957  12.967  20.470  0.00  0.00    +0.000 C 
ATOM     29  C   UNL     1      -0.879  11.531  20.788  0.00  0.00    +0.000 A 
ATOM     30 CL   UNL     1      -0.671  12.106  22.405  0.00  0.00    +0.000 Cl
ATOM     31  C   UNL     1       0.026  10.577  20.311  0.00  0.00    +0.000 A 
ENDBRANCH  22  24
ENDBRANCH  19  20
ENDBRANCH  18  19
ENDBRANCH   6  18
TORSDOF 7
ENDMDL
MODEL 8
REMARK VINA RESULT:      -7.7      2.859      8.228
REMARK  Name = 
REMARK  11 active torsions:
REMARK  status: ('A' for Active; 'I' for Inactive)
REMARK    1  A    between atoms: C_1  and  O_2
REMARK    2  A    between atoms: O_2  and  C_3
REMARK    3  A    between atoms: C_6  and  C_7
REMARK    4  A    between atoms: C_9  and  C_10
REMARK    5  A    between atoms: C_10  and  C_11
REMARK    6  A    between atoms: C_13  and  C_14
REMARK    7  A    between atoms: N_15  and  C_16
REMARK    8  A    between atoms: C_16  and  C_17
REMARK    9  A    between atoms: C_17  and  C_18
REMARK   10  A    between atoms: N_20  and  C_21
REMARK   11  A    between atoms: C_24  and  C_25
REMARK                            x       y       z     vdW  Elec       q    Type
REMARK                         _______ _______ _______ _____ _____    ______ ____
ROOT
ATOM      1  C   UNL     1       2.560   6.245  19.504  0.00  0.00    +0.000 A 
ATOM      2  C   UNL     1       2.257   5.352  20.519  0.00  0.00    +0.000 A 
ATOM      3  C   UNL     1       2.857   4.091  20.268  0.00  0.00    +0.000 A 
ATOM      4  C   UNL     1       3.535   4.225  19.062  0.00  0.00    +0.000 A 
ATOM      5  C   UNL     1       4.273   3.214  18.241  0.00  0.00    +0.000 C 
ATOM      6  N   UNL     1       3.382   5.547  18.626  0.00  0.00    +0.000 N 
ENDROOT
BRANCH   1  10
ATOM      7  C   UNL     1       0.955  10.240  19.317  0.00  0.00    +0.000 A 
ATOM      8  C   UNL     1       0.925   9.505  20.498  0.00  0.00    +0.000 A 
ATOM      9  C   UNL     1       1.497   8.231  20.557  0.00  0.00    +0.000 A 
ATOM     10  C   UNL     1       2.078   7.639  19.422  0.00  0.00    +0.000 A 
ATOM     11  C   UNL     1       2.072   8.381  18.236  0.00  0.00    +0.000 A 
ATOM     12  C   UNL     1       1.540   9.679  18.187  0.00  0.00    +0.000 A 
BRANCH   7  14
ATOM     13  C   UNL     1      -0.949  11.480  19.978  0.00  0.00    +0.000 C 
ATOM     14  O   UNL     1       0.338  11.457  19.376  0.00  0.00    +0.000 OA
ENDBRANCH   7  14
ENDBRANCH   1  10
BRANCH   3  15
ATOM     15  C   UNL     1       2.667   2.935  21.157  0.00  0.00    +0.000 C 
ATOM     16  C   UNL     1       1.309   2.557  21.685  0.00  0.00    +0.000 C 
ATOM     17  O   UNL     1       3.627   2.210  21.438  0.00  0.00    +0.000 OA
ENDBRANCH   3  15
BRANCH   6  18
ATOM     18  C   UNL     1       3.997   6.066  17.405  0.00  0.00    +0.000 C 
BRANCH  18  19
ATOM     19  C   UNL     1       5.445   6.513  17.519  0.00  0.00    +0.000 C 
BRANCH  19  20
ATOM     20  C   UNL     1       6.290   5.860  16.457  0.00  0.00    +0.000 C 
ATOM     21  O   UNL     1       7.447   5.536  16.708  0.00  0.00    +0.000 OA
ATOM     22  N   UNL     1       5.637   5.724  15.248  0.00  0.00    +0.000 N 
ATOM     23  H   UNL     1       4.780   6.253  15.118  0.00  0.00    +0.000 HD
BRANCH  22  24
ATOM     24  C   UNL     1       6.094   4.995  14.134  0.00  0.00    +0.000 A 
ATOM     25  C   UNL     1       7.434   4.971  13.745  0.00  0.00    +0.000 A 
ATOM     26  C   UNL     1       7.850   4.177  12.682  0.00  0.00    +0.000 A 
ATOM     27  C   UNL     1       6.938   3.387  11.973  0.00  0.00    +0.000 A 
ATOM     28  C   UNL     1       7.436   2.506  10.870  0.00  0.00    +0.000 C 
ATOM     29  C   UNL     1       5.583   3.439  12.346  0.00  0.00    +0.000 A 
ATOM     30 CL   UNL     1       4.383   2.535  11.492  0.00  0.00    +0.000 Cl
ATOM     31  C   UNL     1       5.167   4.224  13.425  0.00  0.00    +0.000 A 
ENDBRANCH  22  24
ENDBRANCH  19  20
ENDBRANCH  18  19
ENDBRANCH   6  18
TORSDOF 7
ENDMDL
MODEL 9
REMARK VINA RESULT:      -7.6      1.718      2.036
REMARK  Name = 
REMARK  11 active torsions:
REMARK  status: ('A' for Active; 'I' for Inactive)
REMARK    1  A    between atoms: C_1  and  O_2
REMARK    2  A    between atoms: O_2  and  C_3
REMARK    3  A    between atoms: C_6  and  C_7
REMARK    4  A    between atoms: C_9  and  C_10
REMARK    5  A    between atoms: C_10  and  C_11
REMARK    6  A    between atoms: C_13  and  C_14
REMARK    7  A    between atoms: N_15  and  C_16
REMARK    8  A    between atoms: C_16  and  C_17
REMARK    9  A    between atoms: C_17  and  C_18
REMARK   10  A    between atoms: N_20  and  C_21
REMARK   11  A    between atoms: C_24  and  C_25
REMARK                            x       y       z     vdW  Elec       q    Type
REMARK                         _______ _______ _______ _____ _____    ______ ____
ROOT
ATOM      1  C   UNL     1       3.768   4.997  18.112  0.00  0.00    +0.000 A 
ATOM      2  C   UNL     1       3.283   3.765  18.520  0.00  0.00    +0.000 A 
ATOM      3  C   UNL     1       2.256   3.928  19.485  0.00  0.00    +0.000 A 
ATOM      4  C   UNL     1       2.124   5.300  19.672  0.00  0.00    +0.000 A 
ATOM      5  C   UNL     1       1.275   6.076  20.629  0.00  0.00    +0.000 C 
ATOM      6  N   UNL     1       3.018   5.941  18.805  0.00  0.00    +0.000 N 
ENDROOT
BRANCH   1  10
ATOM      7  C   UNL     1       6.987   5.388  15.273  0.00  0.00    +0.000 A 
ATOM      8  C   UNL     1       5.824   4.695  14.954  0.00  0.00    +0.000 A 
ATOM      9  C   UNL     1       4.767   4.622  15.866  0.00  0.00    +0.000 A 
ATOM     10  C   UNL     1       4.863   5.204  17.142  0.00  0.00    +0.000 A 
ATOM     11  C   UNL     1       6.051   5.872  17.456  0.00  0.00    +0.000 A 
ATOM     12  C   UNL     1       7.095   5.987  16.525  0.00  0.00    +0.000 A 
BRANCH   7  14
ATOM     13  C   UNL     1       7.545   4.968  13.012  0.00  0.00    +0.000 C 
ATOM     14  O   UNL     1       7.958   5.364  14.313  0.00  0.00    +0.000 OA
ENDBRANCH   7  14
ENDBRANCH   1  10
BRANCH   3  15
ATOM     15  C   UNL     1       1.589   2.788  20.130  0.00  0.00    +0.000 C 
ATOM     16  C   UNL     1       1.473   2.681  21.626  0.00  0.00    +0.000 C 
ATOM     17  O   UNL     1       1.053   1.916  19.437  0.00  0.00    +0.000 OA
ENDBRANCH   3  15
BRANCH   6  18
ATOM     18  C   UNL     1       3.128   7.395  18.697  0.00  0.00    +0.000 C 
BRANCH  18  19
ATOM     19  C   UNL     1       2.418   8.036  17.516  0.00  0.00    +0.000 C 
BRANCH  19  20
ATOM     20  C   UNL     1       1.387   9.027  17.988  0.00  0.00    +0.000 C 
ATOM     21  O   UNL     1       0.329   9.147  17.379  0.00  0.00    +0.000 OA
ATOM     22  N   UNL     1       1.791   9.748  19.095  0.00  0.00    +0.000 N 
ATOM     23  H   UNL     1       2.775   9.717  19.339  0.00  0.00    +0.000 HD
BRANCH  22  24
ATOM     24  C   UNL     1       0.984  10.605  19.868  0.00  0.00    +0.000 A 
ATOM     25  C   UNL     1       0.651  11.898  19.462  0.00  0.00    +0.000 A 
ATOM     26  C   UNL     1      -0.210  12.680  20.224  0.00  0.00    +0.000 A 
ATOM     27  C   UNL     1      -0.758  12.196  21.418  0.00  0.00    +0.000 A 
ATOM     28  C   UNL     1      -1.722  13.051  22.180  0.00  0.00    +0.000 C 
ATOM     29  C   UNL     1      -0.394  10.905  21.840  0.00  0.00    +0.000 A 
ATOM     30 CL   UNL     1      -0.985  10.248  23.326  0.00  0.00    +0.000 Cl
ATOM     31  C   UNL     1       0.457  10.111  21.066  0.00  0.00    +0.000 A 
ENDBRANCH  22  24
ENDBRANCH  19  20
ENDBRANCH  18  19
ENDBRANCH   6  18
TORSDOF 7
ENDMDL
