MODEL 1
REMARK VINA RESULT:      -7.6      0.000      0.000
REMARK  Name = 
REMARK  5 active torsions:
REMARK  status: ('A' for Active; 'I' for Inactive)
REMARK    1  A    between atoms: N_3  and  C_4
REMARK    2  A    between atoms: C_4  and  C_5
REMARK    3  A    between atoms: C_5  and  C_6
REMARK    4  A    between atoms: N_12  and  C_13
REMARK    5  A    between atoms: C_13  and  C_14
REMARK                            x       y       z     vdW  Elec       q    Type
REMARK                         _______ _______ _______ _____ _____    ______ ____
ROOT
ATOM      1  O   UNL     1       7.756   6.297  18.797  0.00  0.00    +0.000 OA
ATOM      2  C   UNL     1       7.329   6.870  17.807  0.00  0.00    +0.000 C 
ATOM      3  N   UNL     1       7.656   8.162  17.473  0.00  0.00    +0.000 N 
ATOM      4  N   UNL     1       6.476   6.310  16.899  0.00  0.00    +0.000 N 
ATOM      5  H   UNL     1       7.071   8.622  16.793  0.00  0.00    +0.000 HD
ATOM      6  H   UNL     1       6.343   6.780  16.017  0.00  0.00    +0.000 HD
ENDROOT
BRANCH   3   7
ATOM      7  C   UNL     1       8.454   8.972  18.373  0.00  0.00    +0.000 C 
BRANCH   7   8
ATOM      8  C   UNL     1       8.696  10.375  17.821  0.00  0.00    +0.000 C 
BRANCH   8   9
ATOM      9  C   UNL     1       9.826  11.079  18.529  0.00  0.00    +0.000 A 
ATOM     10  C   UNL     1       9.820  11.202  19.925  0.00  0.00    +0.000 A 
ATOM     11  C   UNL     1      10.853  11.874  20.580  0.00  0.00    +0.000 A 
ATOM     12  C   UNL     1      11.898  12.431  19.848  0.00  0.00    +0.000 A 
ATOM     13  C   UNL     1      11.912  12.318  18.459  0.00  0.00    +0.000 A 
ATOM     14  C   UNL     1      10.881  11.647  17.801  0.00  0.00    +0.000 A 
ENDBRANCH   8   9
ENDBRANCH   7   8
ENDBRANCH   3   7
BRANCH   4  15
ATOM     15  C   UNL     1       6.095   4.915  16.961  0.00  0.00    +0.000 C 
BRANCH  15  16
ATOM     16  C   UNL     1       4.619   4.780  17.238  0.00  0.00    +0.000 A 
ATOM     17  C   UNL     1       3.900   5.863  17.768  0.00  0.00    +0.000 A 
ATOM     18  C   UNL     1       2.542   5.738  18.060  0.00  0.00    +0.000 A 
ATOM     19  C   UNL     1       1.885   4.533  17.819  0.00  0.00    +0.000 A 
ATOM     20  C   UNL     1       2.584   3.455  17.279  0.00  0.00    +0.000 A 
ATOM     21  C   UNL     1       3.945   3.577  16.990  0.00  0.00    +0.000 A 
ENDBRANCH  15  16
ENDBRANCH   4  15
TORSDOF 5
ENDMDL
MODEL 2
REMARK VINA RESULT:      -7.5      0.521      1.637
REMARK  Name = 
REMARK  5 active torsions:
REMARK  status: ('A' for Active; 'I' for Inactive)
REMARK    1  A    between atoms: N_3  and  C_4
REMARK    2  A    between atoms: C_4  and  C_5
REMARK    3  A    between atoms: C_5  and  C_6
REMARK    4  A    between atoms: N_12  and  C_13
REMARK    5  A    between atoms: C_13  and  C_14
REMARK                            x       y       z     vdW  Elec       q    Type
REMARK                         _______ _______ _______ _____ _____    ______ ____
ROOT
ATOM      1  O   UNL     1       7.649   6.291  18.145  0.00  0.00    +0.000 OA
ATOM      2  C   UNL     1       7.232   7.088  17.320  0.00  0.00    +0.000 C 
ATOM      3  N   UNL     1       7.646   8.396  17.245  0.00  0.00    +0.000 N 
ATOM      4  N   UNL     1       6.303   6.794  16.363  0.00  0.00    +0.000 N 
ATOM      5  H   UNL     1       7.074   9.029  16.709  0.00  0.00    +0.000 HD
ATOM      6  H   UNL     1       6.174   7.447  15.606  0.00  0.00    +0.000 HD
ENDROOT
BRANCH   3   7
ATOM      7  C   UNL     1       8.539   8.940  18.251  0.00  0.00    +0.000 C 
BRANCH   7   8
ATOM      8  C   UNL     1       8.397  10.455  18.385  0.00  0.00    +0.000 C 
BRANCH   8   9
ATOM      9  C   UNL     1       9.703  11.119  18.742  0.00  0.00    +0.000 A 
ATOM     10  C   UNL     1      10.640  11.423  17.745  0.00  0.00    +0.000 A 
ATOM     11  C   UNL     1      11.859  12.016  18.075  0.00  0.00    +0.000 A 
ATOM     12  C   UNL     1      12.155  12.307  19.405  0.00  0.00    +0.000 A 
ATOM     13  C   UNL     1      11.233  12.006  20.405  0.00  0.00    +0.000 A 
ATOM     14  C   UNL     1      10.012  11.414  20.077  0.00  0.00    +0.000 A 
ENDBRANCH   8   9
ENDBRANCH   7   8
ENDBRANCH   3   7
BRANCH   4  15
ATOM     15  C   UNL     1       5.816   5.446  16.154  0.00  0.00    +0.000 C 
BRANCH  15  16
ATOM     16  C   UNL     1       4.509   5.238  16.877  0.00  0.00    +0.000 A 
ATOM     17  C   UNL     1       3.902   3.973  16.883  0.00  0.00    +0.000 A 
ATOM     18  C   UNL     1       2.675   3.777  17.518  0.00  0.00    +0.000 A 
ATOM     19  C   UNL     1       2.045   4.841  18.160  0.00  0.00    +0.000 A 
ATOM     20  C   UNL     1       2.644   6.100  18.173  0.00  0.00    +0.000 A 
ATOM     21  C   UNL     1       3.870   6.298  17.534  0.00  0.00    +0.000 A 
ENDBRANCH  15  16
ENDBRANCH   4  15
TORSDOF 5
ENDMDL
MODEL 3
REMARK VINA RESULT:      -7.4      1.197      8.762
REMARK  Name = 
REMARK  5 active torsions:
REMARK  status: ('A' for Active; 'I' for Inactive)
REMARK    1  A    between atoms: N_3  and  C_4
REMARK    2  A    between atoms: C_4  and  C_5
REMARK    3  A    between atoms: C_5  and  C_6
REMARK    4  A    between atoms: N_12  and  C_13
REMARK    5  A    between atoms: C_13  and  C_14
REMARK                            x       y       z     vdW  Elec       q    Type
REMARK                         _______ _______ _______ _____ _____    ______ ____
ROOT
ATOM      1  O   UNL     1       7.108   7.941  16.902  0.00  0.00    +0.000 OA
ATOM      2  C   UNL     1       7.786   7.798  17.908  0.00  0.00    +0.000 C 
ATOM      3  N   UNL     1       7.903   6.608  18.586  0.00  0.00    +0.000 N 
ATOM      4  N   UNL     1       8.518   8.791  18.493  0.00  0.00    +0.000 N 
ATOM      5  H   UNL     1       8.272   6.649  19.523  0.00  0.00    +0.000 HD
ATOM      6  H   UNL     1       9.201   8.534  19.189  0.00  0.00    +0.000 HD
ENDROOT
BRANCH   3   7
ATOM      7  C   UNL     1       7.107   5.461  18.195  0.00  0.00    +0.000 C 
BRANCH   7   8
ATOM      8  C   UNL     1       6.079   5.086  19.261  0.00  0.00    +0.000 C 
BRANCH   8   9
ATOM      9  C   UNL     1       4.710   4.853  18.674  0.00  0.00    +0.000 A 
ATOM     10  C   UNL     1       3.630   5.663  19.050  0.00  0.00    +0.000 A 
ATOM     11  C   UNL     1       2.357   5.435  18.527  0.00  0.00    +0.000 A 
ATOM     12  C   UNL     1       2.150   4.392  17.627  0.00  0.00    +0.000 A 
ATOM     13  C   UNL     1       3.215   3.577  17.249  0.00  0.00    +0.000 A 
ATOM     14  C   UNL     1       4.490   3.804  17.770  0.00  0.00    +0.000 A 
ENDBRANCH   8   9
ENDBRANCH   7   8
ENDBRANCH   3   7
BRANCH   4  15
ATOM     15  C   UNL     1       8.662  10.098  17.887  0.00  0.00    +0.000 C 
BRANCH  15  16
ATOM     16  C   UNL     1       9.734  10.893  18.590  0.00  0.00    +0.000 A 
ATOM     17  C   UNL     1       9.683  11.065  19.982  0.00  0.00    +0.000 A 
ATOM     18  C   UNL     1      10.650  11.828  20.638  0.00  0.00    +0.000 A 
ATOM     19  C   UNL     1      11.681  12.421  19.912  0.00  0.00    +0.000 A 
ATOM     20  C   UNL     1      11.750  12.246  18.531  0.00  0.00    +0.000 A 
ATOM     21  C   UNL     1      10.781  11.486  17.872  0.00  0.00    +0.000 A 
ENDBRANCH  15  16
ENDBRANCH   4  15
TORSDOF 5
ENDMDL
MODEL 4
REMARK VINA RESULT:      -7.3      5.119      6.793
REMARK  Name = 
REMARK  5 active torsions:
REMARK  status: ('A' for Active; 'I' for Inactive)
REMARK    1  A    between atoms: N_3  and  C_4
REMARK    2  A    between atoms: C_4  and  C_5
REMARK    3  A    between atoms: C_5  and  C_6
REMARK    4  A    between atoms: N_12  and  C_13
REMARK    5  A    between atoms: C_13  and  C_14
REMARK                            x       y       z     vdW  Elec       q    Type
REMARK                         _______ _______ _______ _____ _____    ______ ____
ROOT
ATOM      1  O   UNL     1       5.395   5.240  19.283  0.00  0.00    +0.000 OA
ATOM      2  C   UNL     1       5.680   4.200  18.711  0.00  0.00    +0.000 C 
ATOM      3  N   UNL     1       6.493   4.136  17.605  0.00  0.00    +0.000 N 
ATOM      4  N   UNL     1       5.234   2.965  19.087  0.00  0.00    +0.000 N 
ATOM      5  H   UNL     1       6.466   3.285  17.064  0.00  0.00    +0.000 HD
ATOM      6  H   UNL     1       5.680   2.154  18.687  0.00  0.00    +0.000 HD
ENDROOT
BRANCH   3   7
ATOM      7  C   UNL     1       6.971   5.352  16.975  0.00  0.00    +0.000 C 
BRANCH   7   8
ATOM      8  C   UNL     1       6.053   5.810  15.843  0.00  0.00    +0.000 C 
BRANCH   8   9
ATOM      9  C   UNL     1       6.343   5.091  14.550  0.00  0.00    +0.000 A 
ATOM     10  C   UNL     1       7.472   5.426  13.791  0.00  0.00    +0.000 A 
ATOM     11  C   UNL     1       7.730   4.779  12.582  0.00  0.00    +0.000 A 
ATOM     12  C   UNL     1       6.860   3.795  12.117  0.00  0.00    +0.000 A 
ATOM     13  C   UNL     1       5.732   3.456  12.862  0.00  0.00    +0.000 A 
ATOM     14  C   UNL     1       5.472   4.102  14.072  0.00  0.00    +0.000 A 
ENDBRANCH   8   9
ENDBRANCH   7   8
ENDBRANCH   3   7
BRANCH   4  15
ATOM     15  C   UNL     1       4.474   2.760  20.302  0.00  0.00    +0.000 C 
BRANCH  15  16
ATOM     16  C   UNL     1       2.997   2.907  20.033  0.00  0.00    +0.000 A 
ATOM     17  C   UNL     1       2.372   2.100  19.069  0.00  0.00    +0.000 A 
ATOM     18  C   UNL     1       1.014   2.252  18.788  0.00  0.00    +0.000 A 
ATOM     19  C   UNL     1       0.264   3.207  19.471  0.00  0.00    +0.000 A 
ATOM     20  C   UNL     1       0.868   4.005  20.440  0.00  0.00    +0.000 A 
ATOM     21  C   UNL     1       2.229   3.857  20.720  0.00  0.00    +0.000 A 
ENDBRANCH  15  16
ENDBRANCH   4  15
TORSDOF 5
ENDMDL
MODEL 5
REMARK VINA RESULT:      -7.3      1.310      8.813
REMARK  Name = 
REMARK  5 active torsions:
REMARK  status: ('A' for Active; 'I' for Inactive)
REMARK    1  A    between atoms: N_3  and  C_4
REMARK    2  A    between atoms: C_4  and  C_5
REMARK    3  A    between atoms: C_5  and  C_6
REMARK    4  A    between atoms: N_12  and  C_13
REMARK    5  A    between atoms: C_13  and  C_14
REMARK                            x       y       z     vdW  Elec       q    Type
REMARK                         _______ _______ _______ _____ _____    ______ ____
ROOT
ATOM      1  O   UNL     1       7.276   7.967  17.177  0.00  0.00    +0.000 OA
ATOM      2  C   UNL     1       7.999   7.891  18.158  0.00  0.00    +0.000 C 
ATOM      3  N   UNL     1       8.208   6.730  18.863  0.00  0.00    +0.000 N 
ATOM      4  N   UNL     1       8.698   8.939  18.685  0.00  0.00    +0.000 N 
ATOM      5  H   UNL     1       8.610   6.819  19.783  0.00  0.00    +0.000 HD
ATOM      6  H   UNL     1       9.421   8.740  19.359  0.00  0.00    +0.000 HD
ENDROOT
BRANCH   3   7
ATOM      7  C   UNL     1       7.461   5.530  18.537  0.00  0.00    +0.000 C 
BRANCH   7   8
ATOM      8  C   UNL     1       6.270   5.325  19.471  0.00  0.00    +0.000 C 
BRANCH   8   9
ATOM      9  C   UNL     1       5.057   4.806  18.740  0.00  0.00    +0.000 A 
ATOM     10  C   UNL     1       3.840   4.641  19.415  0.00  0.00    +0.000 A 
ATOM     11  C   UNL     1       2.723   4.138  18.747  0.00  0.00    +0.000 A 
ATOM     12  C   UNL     1       2.812   3.791  17.401  0.00  0.00    +0.000 A 
ATOM     13  C   UNL     1       4.019   3.947  16.721  0.00  0.00    +0.000 A 
ATOM     14  C   UNL     1       5.137   4.450  17.387  0.00  0.00    +0.000 A 
ENDBRANCH   8   9
ENDBRANCH   7   8
ENDBRANCH   3   7
BRANCH   4  15
ATOM     15  C   UNL     1       8.746  10.233  18.037  0.00  0.00    +0.000 C 
BRANCH  15  16
ATOM     16  C   UNL     1       9.863  11.070  18.609  0.00  0.00    +0.000 A 
ATOM     17  C   UNL     1      10.810  11.658  17.757  0.00  0.00    +0.000 A 
ATOM     18  C   UNL     1      11.867  12.405  18.279  0.00  0.00    +0.000 A 
ATOM     19  C   UNL     1      11.984  12.580  19.656  0.00  0.00    +0.000 A 
ATOM     20  C   UNL     1      11.042  12.013  20.512  0.00  0.00    +0.000 A 
ATOM     21  C   UNL     1       9.986  11.261  19.992  0.00  0.00    +0.000 A 
ENDBRANCH  15  16
ENDBRANCH   4  15
TORSDOF 5
ENDMDL
MODEL 6
REMARK VINA RESULT:      -7.2      0.777      1.351
REMARK  Name = 
REMARK  5 active torsions:
REMARK  status: ('A' for Active; 'I' for Inactive)
REMARK    1  A    between atoms: N_3  and  C_4
REMARK    2  A    between atoms: C_4  and  C_5
REMARK    3  A    between atoms: C_5  and  C_6
REMARK    4  A    between atoms: N_12  and  C_13
REMARK    5  A    between atoms: C_13  and  C_14
REMARK                            x       y       z     vdW  Elec       q    Type
REMARK                         _______ _______ _______ _____ _____    ______ ____
ROOT
ATOM      1  O   UNL     1       7.674   6.161  18.299  0.00  0.00    +0.000 OA
ATOM      2  C   UNL     1       7.197   6.880  17.436  0.00  0.00    +0.000 C 
ATOM      3  N   UNL     1       7.564   8.191  17.246  0.00  0.00    +0.000 N 
ATOM      4  N   UNL     1       6.240   6.486  16.544  0.00  0.00    +0.000 N 
ATOM      5  H   UNL     1       6.949   8.763  16.689  0.00  0.00    +0.000 HD
ATOM      6  H   UNL     1       6.059   7.076  15.747  0.00  0.00    +0.000 HD
ENDROOT
BRANCH   3   7
ATOM      7  C   UNL     1       8.478   8.836  18.169  0.00  0.00    +0.000 C 
BRANCH   7   8
ATOM      8  C   UNL     1       8.414  10.359  18.068  0.00  0.00    +0.000 C 
BRANCH   8   9
ATOM      9  C   UNL     1       9.634  11.019  18.659  0.00  0.00    +0.000 A 
ATOM     10  C   UNL     1      10.700  11.406  17.836  0.00  0.00    +0.000 A 
ATOM     11  C   UNL     1      11.840  11.996  18.383  0.00  0.00    +0.000 A 
ATOM     12  C   UNL     1      11.929  12.200  19.758  0.00  0.00    +0.000 A 
ATOM     13  C   UNL     1      10.877  11.815  20.587  0.00  0.00    +0.000 A 
ATOM     14  C   UNL     1       9.735  11.226  20.042  0.00  0.00    +0.000 A 
ENDBRANCH   8   9
ENDBRANCH   7   8
ENDBRANCH   3   7
BRANCH   4  15
ATOM     15  C   UNL     1       5.791   5.112  16.457  0.00  0.00    +0.000 C 
BRANCH  15  16
ATOM     16  C   UNL     1       4.661   4.863  17.423  0.00  0.00    +0.000 A 
ATOM     17  C   UNL     1       3.583   5.759  17.493  0.00  0.00    +0.000 A 
ATOM     18  C   UNL     1       2.549   5.557  18.408  0.00  0.00    +0.000 A 
ATOM     19  C   UNL     1       2.577   4.453  19.258  0.00  0.00    +0.000 A 
ATOM     20  C   UNL     1       3.634   3.547  19.189  0.00  0.00    +0.000 A 
ATOM     21  C   UNL     1       4.672   3.751  18.276  0.00  0.00    +0.000 A 
ENDBRANCH  15  16
ENDBRANCH   4  15
TORSDOF 5
ENDMDL
MODEL 7
REMARK VINA RESULT:      -7.2      5.193      8.209
REMARK  Name = 
REMARK  5 active torsions:
REMARK  status: ('A' for Active; 'I' for Inactive)
REMARK    1  A    between atoms: N_3  and  C_4
REMARK    2  A    between atoms: C_4  and  C_5
REMARK    3  A    between atoms: C_5  and  C_6
REMARK    4  A    between atoms: N_12  and  C_13
REMARK    5  A    between atoms: C_13  and  C_14
REMARK                            x       y       z     vdW  Elec       q    Type
REMARK                         _______ _______ _______ _____ _____    ______ ____
ROOT
ATOM      1  O   UNL     1       5.142   4.836  17.769  0.00  0.00    +0.000 OA
ATOM      2  C   UNL     1       5.135   5.892  17.155  0.00  0.00    +0.000 C 
ATOM      3  N   UNL     1       4.271   6.926  17.426  0.00  0.00    +0.000 N 
ATOM      4  N   UNL     1       5.979   6.190  16.124  0.00  0.00    +0.000 N 
ATOM      5  H   UNL     1       4.174   7.638  16.719  0.00  0.00    +0.000 HD
ATOM      6  H   UNL     1       6.038   7.149  15.818  0.00  0.00    +0.000 HD
ENDROOT
BRANCH   3   7
ATOM      7  C   UNL     1       3.215   6.760  18.406  0.00  0.00    +0.000 C 
BRANCH   7   8
ATOM      8  C   UNL     1       2.107   5.837  17.904  0.00  0.00    +0.000 C 
BRANCH   8   9
ATOM      9  C   UNL     1       1.817   4.718  18.871  0.00  0.00    +0.000 A 
ATOM     10  C   UNL     1       1.990   4.908  20.248  0.00  0.00    +0.000 A 
ATOM     11  C   UNL     1       1.746   3.867  21.144  0.00  0.00    +0.000 A 
ATOM     12  C   UNL     1       1.331   2.624  20.672  0.00  0.00    +0.000 A 
ATOM     13  C   UNL     1       1.159   2.421  19.304  0.00  0.00    +0.000 A 
ATOM     14  C   UNL     1       1.402   3.462  18.406  0.00  0.00    +0.000 A 
ENDBRANCH   8   9
ENDBRANCH   7   8
ENDBRANCH   3   7
BRANCH   4  15
ATOM     15  C   UNL     1       7.066   5.314  15.743  0.00  0.00    +0.000 C 
BRANCH  15  16
ATOM     16  C   UNL     1       6.849   4.774  14.352  0.00  0.00    +0.000 A 
ATOM     17  C   UNL     1       5.798   3.877  14.100  0.00  0.00    +0.000 A 
ATOM     18  C   UNL     1       5.610   3.345  12.825  0.00  0.00    +0.000 A 
ATOM     19  C   UNL     1       6.464   3.706  11.785  0.00  0.00    +0.000 A 
ATOM     20  C   UNL     1       7.503   4.606  12.018  0.00  0.00    +0.000 A 
ATOM     21  C   UNL     1       7.695   5.138  13.295  0.00  0.00    +0.000 A 
ENDBRANCH  15  16
ENDBRANCH   4  15
TORSDOF 5
ENDMDL
MODEL 8
REMARK VINA RESULT:      -7.2      1.495      1.979
REMARK  Name = 
REMARK  5 active torsions:
REMARK  status: ('A' for Active; 'I' for Inactive)
REMARK    1  A    between atoms: N_3  and  C_4
REMARK    2  A    between atoms: C_4  and  C_5
REMARK    3  A    between atoms: C_5  and  C_6
REMARK    4  A    between atoms: N_12  and  C_13
REMARK    5  A    between atoms: C_13  and  C_14
REMARK                            x       y       z     vdW  Elec       q    Type
REMARK                         _______ _______ _______ _____ _____    ______ ____
ROOT
ATOM      1  O   UNL     1       7.306   7.281  16.705  0.00  0.00    +0.000 OA
ATOM      2  C   UNL     1       7.741   7.037  17.820  0.00  0.00    +0.000 C 
ATOM      3  N   UNL     1       8.285   7.987  18.651  0.00  0.00    +0.000 N 
ATOM      4  N   UNL     1       7.747   5.797  18.392  0.00  0.00    +0.000 N 
ATOM      5  H   UNL     1       8.835   7.656  19.428  0.00  0.00    +0.000 HD
ATOM      6  H   UNL     1       7.933   5.729  19.380  0.00  0.00    +0.000 HD
ENDROOT
BRANCH   3   7
ATOM      7  C   UNL     1       8.483   9.345  18.181  0.00  0.00    +0.000 C 
BRANCH   7   8
ATOM      8  C   UNL     1       9.294  10.181  19.168  0.00  0.00    +0.000 C 
BRANCH   8   9
ATOM      9  C   UNL     1       9.836  11.439  18.538  0.00  0.00    +0.000 A 
ATOM     10  C   UNL     1       9.020  12.570  18.397  0.00  0.00    +0.000 A 
ATOM     11  C   UNL     1       9.512  13.727  17.792  0.00  0.00    +0.000 A 
ATOM     12  C   UNL     1      10.822  13.764  17.318  0.00  0.00    +0.000 A 
ATOM     13  C   UNL     1      11.641  12.644  17.449  0.00  0.00    +0.000 A 
ATOM     14  C   UNL     1      11.151  11.486  18.055  0.00  0.00    +0.000 A 
ENDBRANCH   8   9
ENDBRANCH   7   8
ENDBRANCH   3   7
BRANCH   4  15
ATOM     15  C   UNL     1       7.105   4.660  17.767  0.00  0.00    +0.000 C 
BRANCH  15  16
ATOM     16  C   UNL     1       5.629   4.648  18.078  0.00  0.00    +0.000 A 
ATOM     17  C   UNL     1       4.719   4.107  17.157  0.00  0.00    +0.000 A 
ATOM     18  C   UNL     1       3.349   4.122  17.419  0.00  0.00    +0.000 A 
ATOM     19  C   UNL     1       2.874   4.672  18.608  0.00  0.00    +0.000 A 
ATOM     20  C   UNL     1       3.768   5.200  19.538  0.00  0.00    +0.000 A 
ATOM     21  C   UNL     1       5.140   5.189  19.275  0.00  0.00    +0.000 A 
ENDBRANCH  15  16
ENDBRANCH   4  15
TORSDOF 5
ENDMDL
MODEL 9
REMARK VINA RESULT:      -7.2      5.353      8.223
REMARK  Name = 
REMARK  5 active torsions:
REMARK  status: ('A' for Active; 'I' for Inactive)
REMARK    1  A    between atoms: N_3  and  C_4
REMARK    2  A    between atoms: C_4  and  C_5
REMARK    3  A    between atoms: C_5  and  C_6
REMARK    4  A    between atoms: N_12  and  C_13
REMARK    5  A    between atoms: C_13  and  C_14
REMARK                            x       y       z     vdW  Elec       q    Type
REMARK                         _______ _______ _______ _____ _____    ______ ____
ROOT
ATOM      1  O   UNL     1       4.324   4.469  17.201  0.00  0.00    +0.000 OA
ATOM      2  C   UNL     1       4.735   5.613  17.088  0.00  0.00    +0.000 C 
ATOM      3  N   UNL     1       4.028   6.721  17.490  0.00  0.00    +0.000 N 
ATOM      4  N   UNL     1       5.946   5.950  16.553  0.00  0.00    +0.000 N 
ATOM      5  H   UNL     1       4.332   7.614  17.133  0.00  0.00    +0.000 HD
ATOM      6  H   UNL     1       6.283   6.890  16.688  0.00  0.00    +0.000 HD
ENDROOT
BRANCH   3   7
ATOM      7  C   UNL     1       2.667   6.586  17.972  0.00  0.00    +0.000 C 
BRANCH   7   8
ATOM      8  C   UNL     1       2.609   6.442  19.492  0.00  0.00    +0.000 C 
BRANCH   8   9
ATOM      9  C   UNL     1       2.152   5.069  19.916  0.00  0.00    +0.000 A 
ATOM     10  C   UNL     1       1.453   4.247  19.023  0.00  0.00    +0.000 A 
ATOM     11  C   UNL     1       1.008   2.986  19.421  0.00  0.00    +0.000 A 
ATOM     12  C   UNL     1       1.253   2.536  20.716  0.00  0.00    +0.000 A 
ATOM     13  C   UNL     1       1.944   3.347  21.615  0.00  0.00    +0.000 A 
ATOM     14  C   UNL     1       2.391   4.609  21.219  0.00  0.00    +0.000 A 
ENDBRANCH   8   9
ENDBRANCH   7   8
ENDBRANCH   3   7
BRANCH   4  15
ATOM     15  C   UNL     1       6.926   4.950  16.183  0.00  0.00    +0.000 C 
BRANCH  15  16
ATOM     16  C   UNL     1       6.893   4.701  14.696  0.00  0.00    +0.000 A 
ATOM     17  C   UNL     1       6.009   3.752  14.160  0.00  0.00    +0.000 A 
ATOM     18  C   UNL     1       5.995   3.489  12.790  0.00  0.00    +0.000 A 
ATOM     19  C   UNL     1       6.858   4.176  11.939  0.00  0.00    +0.000 A 
ATOM     20  C   UNL     1       7.731   5.131  12.457  0.00  0.00    +0.000 A 
ATOM     21  C   UNL     1       7.749   5.393  13.829  0.00  0.00    +0.000 A 
ENDBRANCH  15  16
ENDBRANCH   4  15
TORSDOF 5
ENDMDL
