MODEL 1
REMARK VINA RESULT:      -8.6      0.000      0.000
REMARK  Name = 
REMARK  9 active torsions:
REMARK  status: ('A' for Active; 'I' for Inactive)
REMARK    1  A    between atoms: C_1  and  O_2
REMARK    2  A    between atoms: O_2  and  C_3
REMARK    3  A    between atoms: C_6  and  C_7
REMARK    4  A    between atoms: C_19  and  O_20
REMARK    5  A    between atoms: O_20  and  C_21
REMARK    6  A    between atoms: C_22  and  O_23
REMARK    7  A    between atoms: O_23  and  C_24
REMARK    8  A    between atoms: C_31  and  O_32
REMARK    9  A    between atoms: O_32  and  C_33
REMARK                            x       y       z     vdW  Elec       q    Type
REMARK                         _______ _______ _______ _____ _____    ______ ____
ROOT
ATOM      1  C   UNL     1       3.985   4.037  18.705  0.00  0.00    +0.000 C 
ATOM      2  O   UNL     1       4.002   2.937  19.253  0.00  0.00    +0.000 OA
ATOM      3  N   UNL     1       3.125   5.072  19.084  0.00  0.00    +0.000 N 
ATOM      4  C   UNL     1       2.347   4.969  20.325  0.00  0.00    +0.000 C 
ATOM      5  C   UNL     1       2.114   6.354  21.002  0.00  0.00    +0.000 C 
ATOM      6  N   UNL     1       1.694   7.377  20.012  0.00  0.00    +0.000 N 
ATOM      7  C   UNL     1       1.131   8.558  20.479  0.00  0.00    +0.000 A 
ATOM      8  N   UNL     1       0.492   8.518  21.654  0.00  0.00    +0.000 NA
ATOM      9  C   UNL     1      -0.069   9.646  22.094  0.00  0.00    +0.000 A 
ATOM     10  N   UNL     1      -0.830   9.519  23.268  0.00  0.00    +0.000 N 
ATOM     11  C   UNL     1       0.037  10.870  21.441  0.00  0.00    +0.000 A 
ATOM     12  C   UNL     1      -0.418  12.082  21.994  0.00  0.00    +0.000 A 
ATOM     13  C   UNL     1      -0.381  13.279  21.284  0.00  0.00    +0.000 A 
ATOM     14  C   UNL     1       0.092  13.260  19.966  0.00  0.00    +0.000 A 
ATOM     15  C   UNL     1       0.587  12.036  19.444  0.00  0.00    +0.000 A 
ATOM     16  C   UNL     1       0.612  10.834  20.180  0.00  0.00    +0.000 A 
ATOM     17  N   UNL     1       1.147   9.677  19.710  0.00  0.00    +0.000 NA
ATOM     18  C   UNL     1       2.573   7.477  18.848  0.00  0.00    +0.000 C 
ATOM     19  C   UNL     1       2.609   6.101  18.162  0.00  0.00    +0.000 C 
ATOM     20  H   UNL     1      -0.845   8.531  23.502  0.00  0.00    +0.000 HD
ATOM     21  H   UNL     1      -1.771   9.866  23.101  0.00  0.00    +0.000 HD
ENDROOT
BRANCH   1  25
ATOM     22  C   UNL     1       6.828   5.013  15.610  0.00  0.00    +0.000 A 
ATOM     23  C   UNL     1       5.802   4.078  15.366  0.00  0.00    +0.000 A 
ATOM     24  C   UNL     1       4.867   3.746  16.359  0.00  0.00    +0.000 A 
ATOM     25  C   UNL     1       4.980   4.313  17.627  0.00  0.00    +0.000 A 
ATOM     26  C   UNL     1       6.087   5.115  17.906  0.00  0.00    +0.000 A 
ATOM     27  C   UNL     1       6.986   5.511  16.909  0.00  0.00    +0.000 A 
BRANCH  22  29
ATOM     28  C   UNL     1       7.436   4.981  13.306  0.00  0.00    +0.000 C 
ATOM     29  O   UNL     1       7.696   5.423  14.636  0.00  0.00    +0.000 OA
ENDBRANCH  22  29
BRANCH  27  30
ATOM     30  O   UNL     1       7.901   6.395  17.411  0.00  0.00    +0.000 OA
ATOM     31  C   UNL     1       7.576   7.768  17.517  0.00  0.00    +0.000 C 
ENDBRANCH  27  30
ENDBRANCH   1  25
BRANCH  13  32
ATOM     32  O   UNL     1      -0.849  14.325  22.031  0.00  0.00    +0.000 OA
ATOM     33  C   UNL     1      -1.155  14.138  23.403  0.00  0.00    +0.000 C 
ENDBRANCH  13  32
BRANCH  14  34
ATOM     34  O   UNL     1       0.089  14.455  19.305  0.00  0.00    +0.000 OA
ATOM     35  C   UNL     1       1.279  15.206  19.136  0.00  0.00    +0.000 C 
ENDBRANCH  14  34
TORSDOF 5
ENDMDL
MODEL 2
REMARK VINA RESULT:      -8.0      0.989      1.058
REMARK  Name = 
REMARK  9 active torsions:
REMARK  status: ('A' for Active; 'I' for Inactive)
REMARK    1  A    between atoms: C_1  and  O_2
REMARK    2  A    between atoms: O_2  and  C_3
REMARK    3  A    between atoms: C_6  and  C_7
REMARK    4  A    between atoms: C_19  and  O_20
REMARK    5  A    between atoms: O_20  and  C_21
REMARK    6  A    between atoms: C_22  and  O_23
REMARK    7  A    between atoms: O_23  and  C_24
REMARK    8  A    between atoms: C_31  and  O_32
REMARK    9  A    between atoms: O_32  and  C_33
REMARK                            x       y       z     vdW  Elec       q    Type
REMARK                         _______ _______ _______ _____ _____    ______ ____
ROOT
ATOM      1  C   UNL     1       3.530   4.742  18.910  0.00  0.00    +0.000 C 
ATOM      2  O   UNL     1       3.461   3.685  19.535  0.00  0.00    +0.000 OA
ATOM      3  N   UNL     1       2.720   5.849  19.181  0.00  0.00    +0.000 N 
ATOM      4  C   UNL     1       1.895   5.881  20.396  0.00  0.00    +0.000 C 
ATOM      5  C   UNL     1       1.723   7.323  20.964  0.00  0.00    +0.000 C 
ATOM      6  N   UNL     1       1.399   8.294  19.889  0.00  0.00    +0.000 N 
ATOM      7  C   UNL     1       0.893   9.536  20.249  0.00  0.00    +0.000 A 
ATOM      8  N   UNL     1       0.212   9.619  21.399  0.00  0.00    +0.000 NA
ATOM      9  C   UNL     1      -0.295  10.806  21.735  0.00  0.00    +0.000 A 
ATOM     10  N   UNL     1      -1.102  10.808  22.885  0.00  0.00    +0.000 N 
ATOM     11  C   UNL     1      -0.092  11.971  21.002  0.00  0.00    +0.000 A 
ATOM     12  C   UNL     1      -0.493  13.245  21.451  0.00  0.00    +0.000 A 
ATOM     13  C   UNL     1      -0.359  14.383  20.660  0.00  0.00    +0.000 A 
ATOM     14  C   UNL     1       0.158  14.241  19.367  0.00  0.00    +0.000 A 
ATOM     15  C   UNL     1       0.596  12.956  18.951  0.00  0.00    +0.000 A 
ATOM     16  C   UNL     1       0.523  11.811  19.770  0.00  0.00    +0.000 A 
ATOM     17  N   UNL     1       1.003  10.594  19.405  0.00  0.00    +0.000 NA
ATOM     18  C   UNL     1       2.323   8.258  18.756  0.00  0.00    +0.000 C 
ATOM     19  C   UNL     1       2.300   6.837  18.170  0.00  0.00    +0.000 C 
ATOM     20  H   UNL     1      -1.184   9.842  23.188  0.00  0.00    +0.000 HD
ATOM     21  H   UNL     1      -2.014  11.196  22.658  0.00  0.00    +0.000 HD
ENDROOT
BRANCH   1  25
ATOM     22  C   UNL     1       6.476   5.300  15.808  0.00  0.00    +0.000 A 
ATOM     23  C   UNL     1       5.762   4.089  15.903  0.00  0.00    +0.000 A 
ATOM     24  C   UNL     1       4.799   3.886  16.905  0.00  0.00    +0.000 A 
ATOM     25  C   UNL     1       4.576   4.881  17.855  0.00  0.00    +0.000 A 
ATOM     26  C   UNL     1       5.395   6.010  17.848  0.00  0.00    +0.000 A 
ATOM     27  C   UNL     1       6.308   6.258  16.817  0.00  0.00    +0.000 A 
BRANCH  22  29
ATOM     28  C   UNL     1       7.186   4.818  13.585  0.00  0.00    +0.000 C 
ATOM     29  O   UNL     1       7.352   5.560  14.791  0.00  0.00    +0.000 OA
ENDBRANCH  22  29
BRANCH  27  30
ATOM     30  O   UNL     1       6.889   7.485  16.974  0.00  0.00    +0.000 OA
ATOM     31  C   UNL     1       7.902   7.672  17.945  0.00  0.00    +0.000 C 
ENDBRANCH  27  30
ENDBRANCH   1  25
BRANCH  13  32
ATOM     32  O   UNL     1      -0.789  15.505  21.313  0.00  0.00    +0.000 OA
ATOM     33  C   UNL     1      -1.925  15.445  22.159  0.00  0.00    +0.000 C 
ENDBRANCH  13  32
BRANCH  14  34
ATOM     34  O   UNL     1       0.250  15.382  18.624  0.00  0.00    +0.000 OA
ATOM     35  C   UNL     1       1.418  16.184  18.646  0.00  0.00    +0.000 C 
ENDBRANCH  14  34
TORSDOF 5
ENDMDL
MODEL 3
REMARK VINA RESULT:      -7.1      0.893      1.780
REMARK  Name = 
REMARK  9 active torsions:
REMARK  status: ('A' for Active; 'I' for Inactive)
REMARK    1  A    between atoms: C_1  and  O_2
REMARK    2  A    between atoms: O_2  and  C_3
REMARK    3  A    between atoms: C_6  and  C_7
REMARK    4  A    between atoms: C_19  and  O_20
REMARK    5  A    between atoms: O_20  and  C_21
REMARK    6  A    between atoms: C_22  and  O_23
REMARK    7  A    between atoms: O_23  and  C_24
REMARK    8  A    between atoms: C_31  and  O_32
REMARK    9  A    between atoms: O_32  and  C_33
REMARK                            x       y       z     vdW  Elec       q    Type
REMARK                         _______ _______ _______ _____ _____    ______ ____
ROOT
ATOM      1  C   UNL     1       4.135   4.159  18.073  0.00  0.00    +0.000 C 
ATOM      2  O   UNL     1       4.134   3.004  18.495  0.00  0.00    +0.000 OA
ATOM      3  N   UNL     1       3.267   5.150  18.543  0.00  0.00    +0.000 N 
ATOM      4  C   UNL     1       2.457   4.913  19.745  0.00  0.00    +0.000 C 
ATOM      5  C   UNL     1       2.211   6.215  20.566  0.00  0.00    +0.000 C 
ATOM      6  N   UNL     1       1.819   7.345  19.687  0.00  0.00    +0.000 N 
ATOM      7  C   UNL     1       1.248   8.470  20.269  0.00  0.00    +0.000 A 
ATOM      8  N   UNL     1       0.578   8.302  21.415  0.00  0.00    +0.000 NA
ATOM      9  C   UNL     1       0.009   9.377  21.964  0.00  0.00    +0.000 A 
ATOM     10  N   UNL     1      -0.782   9.124  23.096  0.00  0.00    +0.000 N 
ATOM     11  C   UNL     1       0.136  10.666  21.455  0.00  0.00    +0.000 A 
ATOM     12  C   UNL     1      -0.330  11.811  22.129  0.00  0.00    +0.000 A 
ATOM     13  C   UNL     1      -0.270  13.080  21.558  0.00  0.00    +0.000 A 
ATOM     14  C   UNL     1       0.238  13.206  20.260  0.00  0.00    +0.000 A 
ATOM     15  C   UNL     1       0.743  12.045  19.616  0.00  0.00    +0.000 A 
ATOM     16  C   UNL     1       0.744  10.768  20.213  0.00  0.00    +0.000 A 
ATOM     17  N   UNL     1       1.288   9.668  19.631  0.00  0.00    +0.000 NA
ATOM     18  C   UNL     1       2.730   7.569  18.565  0.00  0.00    +0.000 C 
ATOM     19  C   UNL     1       2.779   6.279  17.729  0.00  0.00    +0.000 C 
ATOM     20  H   UNL     1      -0.806   8.116  23.217  0.00  0.00    +0.000 HD
ATOM     21  H   UNL     1      -1.718   9.493  22.945  0.00  0.00    +0.000 HD
ENDROOT
BRANCH   1  25
ATOM     22  C   UNL     1       7.152   5.112  15.140  0.00  0.00    +0.000 A 
ATOM     23  C   UNL     1       7.050   5.863  16.327  0.00  0.00    +0.000 A 
ATOM     24  C   UNL     1       6.075   5.571  17.295  0.00  0.00    +0.000 A 
ATOM     25  C   UNL     1       5.158   4.548  17.059  0.00  0.00    +0.000 A 
ATOM     26  C   UNL     1       5.167   3.914  15.817  0.00  0.00    +0.000 A 
ATOM     27  C   UNL     1       6.173   4.145  14.873  0.00  0.00    +0.000 A 
BRANCH  22  29
ATOM     28  C   UNL     1       7.747   5.631  12.892  0.00  0.00    +0.000 C 
ATOM     29  O   UNL     1       8.146   5.316  14.223  0.00  0.00    +0.000 OA
ENDBRANCH  22  29
BRANCH  27  30
ATOM     30  O   UNL     1       6.028   3.309  13.801  0.00  0.00    +0.000 OA
ATOM     31  C   UNL     1       5.042   3.576  12.821  0.00  0.00    +0.000 C 
ENDBRANCH  27  30
ENDBRANCH   1  25
BRANCH  13  32
ATOM     32  O   UNL     1      -0.754  14.038  22.406  0.00  0.00    +0.000 OA
ATOM     33  C   UNL     1      -2.138  14.349  22.413  0.00  0.00    +0.000 C 
ENDBRANCH  13  32
BRANCH  14  34
ATOM     34  O   UNL     1       0.256  14.467  19.737  0.00  0.00    +0.000 OA
ATOM     35  C   UNL     1       1.332  14.915  18.930  0.00  0.00    +0.000 C 
ENDBRANCH  14  34
TORSDOF 5
ENDMDL
MODEL 4
REMARK VINA RESULT:      -6.9      2.810     10.890
REMARK  Name = 
REMARK  9 active torsions:
REMARK  status: ('A' for Active; 'I' for Inactive)
REMARK    1  A    between atoms: C_1  and  O_2
REMARK    2  A    between atoms: O_2  and  C_3
REMARK    3  A    between atoms: C_6  and  C_7
REMARK    4  A    between atoms: C_19  and  O_20
REMARK    5  A    between atoms: O_20  and  C_21
REMARK    6  A    between atoms: C_22  and  O_23
REMARK    7  A    between atoms: O_23  and  C_24
REMARK    8  A    between atoms: C_31  and  O_32
REMARK    9  A    between atoms: O_32  and  C_33
REMARK                            x       y       z     vdW  Elec       q    Type
REMARK                         _______ _______ _______ _____ _____    ______ ____
ROOT
ATOM      1  C   UNL     1      -0.671  13.385  19.723  0.00  0.00    +0.000 C 
ATOM      2  O   UNL     1      -0.546  14.377  19.007  0.00  0.00    +0.000 OA
ATOM      3  N   UNL     1      -0.160  12.127  19.391  0.00  0.00    +0.000 N 
ATOM      4  C   UNL     1       0.766  11.981  18.260  0.00  0.00    +0.000 C 
ATOM      5  C   UNL     1       1.808  10.844  18.484  0.00  0.00    +0.000 C 
ATOM      6  N   UNL     1       1.164   9.613  19.007  0.00  0.00    +0.000 N 
ATOM      7  C   UNL     1       1.872   8.419  18.949  0.00  0.00    +0.000 A 
ATOM      8  N   UNL     1       2.790   8.289  17.983  0.00  0.00    +0.000 NA
ATOM      9  C   UNL     1       3.455   7.135  17.911  0.00  0.00    +0.000 A 
ATOM     10  N   UNL     1       4.315   7.006  16.808  0.00  0.00    +0.000 N 
ATOM     11  C   UNL     1       3.304   6.095  18.824  0.00  0.00    +0.000 A 
ATOM     12  C   UNL     1       4.126   4.951  18.834  0.00  0.00    +0.000 A 
ATOM     13  C   UNL     1       3.897   3.885  19.700  0.00  0.00    +0.000 A 
ATOM     14  C   UNL     1       2.793   3.946  20.559  0.00  0.00    +0.000 A 
ATOM     15  C   UNL     1       2.005   5.126  20.563  0.00  0.00    +0.000 A 
ATOM     16  C   UNL     1       2.268   6.236  19.735  0.00  0.00    +0.000 A 
ATOM     17  N   UNL     1       1.560   7.394  19.783  0.00  0.00    +0.000 NA
ATOM     18  C   UNL     1       0.331   9.832  20.188  0.00  0.00    +0.000 C 
ATOM     19  C   UNL     1      -0.761  10.849  19.816  0.00  0.00    +0.000 C 
ATOM     20  H   UNL     1       4.185   7.836  16.237  0.00  0.00    +0.000 HD
ATOM     21  H   UNL     1       4.074   6.167  16.287  0.00  0.00    +0.000 HD
ENDROOT
BRANCH   1  25
ATOM     22  C   UNL     1      -2.685  13.988  23.491  0.00  0.00    +0.000 A 
ATOM     23  C   UNL     1      -1.289  13.806  23.451  0.00  0.00    +0.000 A 
ATOM     24  C   UNL     1      -0.613  13.608  22.235  0.00  0.00    +0.000 A 
ATOM     25  C   UNL     1      -1.340  13.542  21.048  0.00  0.00    +0.000 A 
ATOM     26  C   UNL     1      -2.733  13.567  21.113  0.00  0.00    +0.000 A 
ATOM     27  C   UNL     1      -3.416  13.833  22.305  0.00  0.00    +0.000 A 
BRANCH  22  29
ATOM     28  C   UNL     1      -3.019  15.486  25.313  0.00  0.00    +0.000 C 
ATOM     29  O   UNL     1      -3.357  14.272  24.648  0.00  0.00    +0.000 OA
ENDBRANCH  22  29
BRANCH  27  30
ATOM     30  O   UNL     1      -4.760  13.931  22.078  0.00  0.00    +0.000 OA
ATOM     31  C   UNL     1      -5.510  12.777  21.748  0.00  0.00    +0.000 C 
ENDBRANCH  27  30
ENDBRANCH   1  25
BRANCH  13  32
ATOM     32  O   UNL     1       4.836   2.902  19.548  0.00  0.00    +0.000 OA
ATOM     33  C   UNL     1       4.458   1.626  19.058  0.00  0.00    +0.000 C 
ENDBRANCH  13  32
BRANCH  14  34
ATOM     34  O   UNL     1       2.601   2.867  21.373  0.00  0.00    +0.000 OA
ATOM     35  C   UNL     1       1.307   2.506  21.824  0.00  0.00    +0.000 C 
ENDBRANCH  14  34
TORSDOF 5
ENDMDL
MODEL 5
REMARK VINA RESULT:      -6.8      1.834      9.733
REMARK  Name = 
REMARK  9 active torsions:
REMARK  status: ('A' for Active; 'I' for Inactive)
REMARK    1  A    between atoms: C_1  and  O_2
REMARK    2  A    between atoms: O_2  and  C_3
REMARK    3  A    between atoms: C_6  and  C_7
REMARK    4  A    between atoms: C_19  and  O_20
REMARK    5  A    between atoms: O_20  and  C_21
REMARK    6  A    between atoms: C_22  and  O_23
REMARK    7  A    between atoms: O_23  and  C_24
REMARK    8  A    between atoms: C_31  and  O_32
REMARK    9  A    between atoms: O_32  and  C_33
REMARK                            x       y       z     vdW  Elec       q    Type
REMARK                         _______ _______ _______ _____ _____    ______ ____
ROOT
ATOM      1  C   UNL     1      -0.857  11.876  22.375  0.00  0.00    +0.000 C 
ATOM      2  O   UNL     1      -1.583  11.990  23.361  0.00  0.00    +0.000 OA
ATOM      3  N   UNL     1      -0.147  10.710  22.073  0.00  0.00    +0.000 N 
ATOM      4  C   UNL     1      -0.421   9.468  22.807  0.00  0.00    +0.000 C 
ATOM      5  C   UNL     1      -0.222   8.197  21.927  0.00  0.00    +0.000 C 
ATOM      6  N   UNL     1       1.040   8.269  21.148  0.00  0.00    +0.000 N 
ATOM      7  C   UNL     1       1.535   7.103  20.579  0.00  0.00    +0.000 A 
ATOM      8  N   UNL     1       1.226   5.944  21.173  0.00  0.00    +0.000 NA
ATOM      9  C   UNL     1       1.719   4.824  20.641  0.00  0.00    +0.000 A 
ATOM     10  N   UNL     1       1.467   3.651  21.373  0.00  0.00    +0.000 N 
ATOM     11  C   UNL     1       2.467   4.787  19.468  0.00  0.00    +0.000 A 
ATOM     12  C   UNL     1       2.842   3.589  18.829  0.00  0.00    +0.000 A 
ATOM     13  C   UNL     1       3.666   3.577  17.707  0.00  0.00    +0.000 A 
ATOM     14  C   UNL     1       4.159   4.796  17.227  0.00  0.00    +0.000 A 
ATOM     15  C   UNL     1       3.733   5.993  17.858  0.00  0.00    +0.000 A 
ATOM     16  C   UNL     1       2.849   6.017  18.956  0.00  0.00    +0.000 A 
ATOM     17  N   UNL     1       2.383   7.162  19.521  0.00  0.00    +0.000 NA
ATOM     18  C   UNL     1       1.193   9.501  20.375  0.00  0.00    +0.000 C 
ATOM     19  C   UNL     1       1.140  10.685  21.354  0.00  0.00    +0.000 C 
ATOM     20  H   UNL     1       0.999   3.935  22.228  0.00  0.00    +0.000 HD
ATOM     21  H   UNL     1       2.347   3.186  21.579  0.00  0.00    +0.000 HD
ENDROOT
BRANCH   1  25
ATOM     22  C   UNL     1      -0.498  15.073  19.500  0.00  0.00    +0.000 A 
ATOM     23  C   UNL     1      -0.473  15.351  20.881  0.00  0.00    +0.000 A 
ATOM     24  C   UNL     1      -0.589  14.326  21.834  0.00  0.00    +0.000 A 
ATOM     25  C   UNL     1      -0.780  13.012  21.410  0.00  0.00    +0.000 A 
ATOM     26  C   UNL     1      -0.960  12.767  20.048  0.00  0.00    +0.000 A 
ATOM     27  C   UNL     1      -0.778  13.765  19.085  0.00  0.00    +0.000 A 
BRANCH  22  29
ATOM     28  C   UNL     1      -1.007  17.264  18.712  0.00  0.00    +0.000 C 
ATOM     29  O   UNL     1      -0.298  16.038  18.552  0.00  0.00    +0.000 OA
ENDBRANCH  22  29
BRANCH  27  30
ATOM     30  O   UNL     1      -0.883  13.242  17.826  0.00  0.00    +0.000 OA
ATOM     31  C   UNL     1      -1.515  11.991  17.627  0.00  0.00    +0.000 C 
ENDBRANCH  27  30
ENDBRANCH   1  25
BRANCH  13  32
ATOM     32  O   UNL     1       3.871   2.306  17.245  0.00  0.00    +0.000 OA
ATOM     33  C   UNL     1       3.835   1.208  18.143  0.00  0.00    +0.000 C 
ENDBRANCH  13  32
BRANCH  14  34
ATOM     34  O   UNL     1       4.979   4.729  16.137  0.00  0.00    +0.000 OA
ATOM     35  C   UNL     1       5.651   5.877  15.649  0.00  0.00    +0.000 C 
ENDBRANCH  14  34
TORSDOF 5
ENDMDL
MODEL 6
REMARK VINA RESULT:      -6.7      1.773      2.338
REMARK  Name = 
REMARK  9 active torsions:
REMARK  status: ('A' for Active; 'I' for Inactive)
REMARK    1  A    between atoms: C_1  and  O_2
REMARK    2  A    between atoms: O_2  and  C_3
REMARK    3  A    between atoms: C_6  and  C_7
REMARK    4  A    between atoms: C_19  and  O_20
REMARK    5  A    between atoms: O_20  and  C_21
REMARK    6  A    between atoms: C_22  and  O_23
REMARK    7  A    between atoms: O_23  and  C_24
REMARK    8  A    between atoms: C_31  and  O_32
REMARK    9  A    between atoms: O_32  and  C_33
REMARK                            x       y       z     vdW  Elec       q    Type
REMARK                         _______ _______ _______ _____ _____    ______ ____
ROOT
ATOM      1  C   UNL     1       2.979   5.712  19.657  0.00  0.00    +0.000 C 
ATOM      2  O   UNL     1       2.833   4.724  20.374  0.00  0.00    +0.000 OA
ATOM      3  N   UNL     1       2.238   6.888  19.808  0.00  0.00    +0.000 N 
ATOM      4  C   UNL     1       1.397   7.083  20.997  0.00  0.00    +0.000 C 
ATOM      5  C   UNL     1       1.309   8.580  21.426  0.00  0.00    +0.000 C 
ATOM      6  N   UNL     1       1.065   9.465  20.260  0.00  0.00    +0.000 N 
ATOM      7  C   UNL     1       0.633  10.764  20.494  0.00  0.00    +0.000 A 
ATOM      8  N   UNL     1      -0.059  10.995  21.616  0.00  0.00    +0.000 NA
ATOM      9  C   UNL     1      -0.494  12.237  21.832  0.00  0.00    +0.000 A 
ATOM     10  N   UNL     1      -1.318  12.397  22.959  0.00  0.00    +0.000 N 
ATOM     11  C   UNL     1      -0.207  13.315  21.000  0.00  0.00    +0.000 A 
ATOM     12  C   UNL     1      -0.532  14.647  21.322  0.00  0.00    +0.000 A 
ATOM     13  C   UNL     1      -0.313  15.696  20.433  0.00  0.00    +0.000 A 
ATOM     14  C   UNL     1       0.214  15.403  19.169  0.00  0.00    +0.000 A 
ATOM     15  C   UNL     1       0.576  14.061  18.883  0.00  0.00    +0.000 A 
ATOM     16  C   UNL     1       0.417  13.003  19.801  0.00  0.00    +0.000 A 
ATOM     17  N   UNL     1       0.824  11.730  19.559  0.00  0.00    +0.000 NA
ATOM     18  C   UNL     1       2.002   9.267  19.155  0.00  0.00    +0.000 C 
ATOM     19  C   UNL     1       1.897   7.801  18.702  0.00  0.00    +0.000 C 
ATOM     20  H   UNL     1      -1.467  11.470  23.347  0.00  0.00    +0.000 HD
ATOM     21  H   UNL     1      -2.200  12.817  22.677  0.00  0.00    +0.000 HD
ENDROOT
BRANCH   1  25
ATOM     22  C   UNL     1       6.172   5.747  16.756  0.00  0.00    +0.000 A 
ATOM     23  C   UNL     1       4.860   6.092  16.375  0.00  0.00    +0.000 A 
ATOM     24  C   UNL     1       3.806   6.086  17.303  0.00  0.00    +0.000 A 
ATOM     25  C   UNL     1       4.049   5.687  18.617  0.00  0.00    +0.000 A 
ATOM     26  C   UNL     1       5.314   5.200  18.946  0.00  0.00    +0.000 A 
ATOM     27  C   UNL     1       6.389   5.265  18.053  0.00  0.00    +0.000 A 
BRANCH  22  29
ATOM     28  C   UNL     1       7.237   4.944  14.782  0.00  0.00    +0.000 C 
ATOM     29  O   UNL     1       7.233   5.831  15.897  0.00  0.00    +0.000 OA
ENDBRANCH  22  29
BRANCH  27  30
ATOM     30  O   UNL     1       7.541   4.846  18.658  0.00  0.00    +0.000 OA
ATOM     31  C   UNL     1       8.171   5.662  19.629  0.00  0.00    +0.000 C 
ENDBRANCH  27  30
ENDBRANCH   1  25
BRANCH  13  32
ATOM     32  O   UNL     1      -0.680  16.898  20.971  0.00  0.00    +0.000 OA
ATOM     33  C   UNL     1      -2.008  17.371  20.818  0.00  0.00    +0.000 C 
ENDBRANCH  13  32
BRANCH  14  34
ATOM     34  O   UNL     1       0.390  16.463  18.327  0.00  0.00    +0.000 OA
ATOM     35  C   UNL     1       1.671  17.032  18.117  0.00  0.00    +0.000 C 
ENDBRANCH  14  34
TORSDOF 5
ENDMDL
MODEL 7
REMARK VINA RESULT:      -6.7      2.809     10.687
REMARK  Name = 
REMARK  9 active torsions:
REMARK  status: ('A' for Active; 'I' for Inactive)
REMARK    1  A    between atoms: C_1  and  O_2
REMARK    2  A    between atoms: O_2  and  C_3
REMARK    3  A    between atoms: C_6  and  C_7
REMARK    4  A    between atoms: C_19  and  O_20
REMARK    5  A    between atoms: O_20  and  C_21
REMARK    6  A    between atoms: C_22  and  O_23
REMARK    7  A    between atoms: O_23  and  C_24
REMARK    8  A    between atoms: C_31  and  O_32
REMARK    9  A    between atoms: O_32  and  C_33
REMARK                            x       y       z     vdW  Elec       q    Type
REMARK                         _______ _______ _______ _____ _____    ______ ____
ROOT
ATOM      1  C   UNL     1      -0.819  13.233  19.640  0.00  0.00    +0.000 C 
ATOM      2  O   UNL     1      -0.666  14.243  18.956  0.00  0.00    +0.000 OA
ATOM      3  N   UNL     1      -0.254  11.995  19.320  0.00  0.00    +0.000 N 
ATOM      4  C   UNL     1       0.756  11.897  18.258  0.00  0.00    +0.000 C 
ATOM      5  C   UNL     1       1.807  10.779  18.534  0.00  0.00    +0.000 C 
ATOM      6  N   UNL     1       1.157   9.521  18.981  0.00  0.00    +0.000 N 
ATOM      7  C   UNL     1       1.897   8.346  18.950  0.00  0.00    +0.000 A 
ATOM      8  N   UNL     1       2.886   8.260  18.052  0.00  0.00    +0.000 NA
ATOM      9  C   UNL     1       3.582   7.123  18.005  0.00  0.00    +0.000 A 
ATOM     10  N   UNL     1       4.524   7.040  16.965  0.00  0.00    +0.000 N 
ATOM     11  C   UNL     1       3.390   6.059  18.881  0.00  0.00    +0.000 A 
ATOM     12  C   UNL     1       4.237   4.935  18.927  0.00  0.00    +0.000 A 
ATOM     13  C   UNL     1       3.972   3.844  19.751  0.00  0.00    +0.000 A 
ATOM     14  C   UNL     1       2.807   3.859  20.527  0.00  0.00    +0.000 A 
ATOM     15  C   UNL     1       1.992   5.021  20.498  0.00  0.00    +0.000 A 
ATOM     16  C   UNL     1       2.287   6.155  19.715  0.00  0.00    +0.000 A 
ATOM     17  N   UNL     1       1.549   7.295  19.736  0.00  0.00    +0.000 NA
ATOM     18  C   UNL     1       0.234   9.694  20.102  0.00  0.00    +0.000 C 
ATOM     19  C   UNL     1      -0.853  10.694  19.671  0.00  0.00    +0.000 C 
ATOM     20  H   UNL     1       4.416   7.880  16.405  0.00  0.00    +0.000 HD
ATOM     21  H   UNL     1       4.342   6.208  16.410  0.00  0.00    +0.000 HD
ENDROOT
BRANCH   1  25
ATOM     22  C   UNL     1      -2.910  13.454  23.408  0.00  0.00    +0.000 A 
ATOM     23  C   UNL     1      -3.574  13.004  22.250  0.00  0.00    +0.000 A 
ATOM     24  C   UNL     1      -2.913  12.925  21.013  0.00  0.00    +0.000 A 
ATOM     25  C   UNL     1      -1.587  13.343  20.915  0.00  0.00    +0.000 A 
ATOM     26  C   UNL     1      -0.986  13.932  22.028  0.00  0.00    +0.000 A 
ATOM     27  C   UNL     1      -1.607  13.953  23.282  0.00  0.00    +0.000 A 
BRANCH  22  29
ATOM     28  C   UNL     1      -4.515  12.483  24.877  0.00  0.00    +0.000 C 
ATOM     29  O   UNL     1      -3.501  13.456  24.641  0.00  0.00    +0.000 OA
ENDBRANCH  22  29
BRANCH  27  30
ATOM     30  O   UNL     1      -0.762  14.464  24.227  0.00  0.00    +0.000 OA
ATOM     31  C   UNL     1      -1.191  15.521  25.066  0.00  0.00    +0.000 C 
ENDBRANCH  27  30
ENDBRANCH   1  25
BRANCH  13  32
ATOM     32  O   UNL     1       4.944   2.886  19.648  0.00  0.00    +0.000 OA
ATOM     33  C   UNL     1       4.623   1.597  19.153  0.00  0.00    +0.000 C 
ENDBRANCH  13  32
BRANCH  14  34
ATOM     34  O   UNL     1       2.582   2.758  21.301  0.00  0.00    +0.000 OA
ATOM     35  C   UNL     1       1.317   2.520  21.894  0.00  0.00    +0.000 C 
ENDBRANCH  14  34
TORSDOF 5
ENDMDL
MODEL 8
REMARK VINA RESULT:      -6.7      1.823      9.913
REMARK  Name = 
REMARK  9 active torsions:
REMARK  status: ('A' for Active; 'I' for Inactive)
REMARK    1  A    between atoms: C_1  and  O_2
REMARK    2  A    between atoms: O_2  and  C_3
REMARK    3  A    between atoms: C_6  and  C_7
REMARK    4  A    between atoms: C_19  and  O_20
REMARK    5  A    between atoms: O_20  and  C_21
REMARK    6  A    between atoms: C_22  and  O_23
REMARK    7  A    between atoms: O_23  and  C_24
REMARK    8  A    between atoms: C_31  and  O_32
REMARK    9  A    between atoms: O_32  and  C_33
REMARK                            x       y       z     vdW  Elec       q    Type
REMARK                         _______ _______ _______ _____ _____    ______ ____
ROOT
ATOM      1  C   UNL     1      -0.639  12.323  21.906  0.00  0.00    +0.000 C 
ATOM      2  O   UNL     1      -1.395  12.488  22.861  0.00  0.00    +0.000 OA
ATOM      3  N   UNL     1       0.042  11.126  21.662  0.00  0.00    +0.000 N 
ATOM      4  C   UNL     1      -0.300   9.915  22.419  0.00  0.00    +0.000 C 
ATOM      5  C   UNL     1      -0.111   8.614  21.580  0.00  0.00    +0.000 C 
ATOM      6  N   UNL     1       1.179   8.623  20.847  0.00  0.00    +0.000 N 
ATOM      7  C   UNL     1       1.654   7.426  20.328  0.00  0.00    +0.000 A 
ATOM      8  N   UNL     1       1.286   6.294  20.941  0.00  0.00    +0.000 NA
ATOM      9  C   UNL     1       1.760   5.145  20.458  0.00  0.00    +0.000 A 
ATOM     10  N   UNL     1       1.443   4.002  21.211  0.00  0.00    +0.000 N 
ATOM     11  C   UNL     1       2.548   5.050  19.314  0.00  0.00    +0.000 A 
ATOM     12  C   UNL     1       2.905   3.824  18.722  0.00  0.00    +0.000 A 
ATOM     13  C   UNL     1       3.767   3.753  17.631  0.00  0.00    +0.000 A 
ATOM     14  C   UNL     1       4.318   4.941  17.137  0.00  0.00    +0.000 A 
ATOM     15  C   UNL     1       3.910   6.170  17.720  0.00  0.00    +0.000 A 
ATOM     16  C   UNL     1       2.988   6.253  18.783  0.00  0.00    +0.000 A 
ATOM     17  N   UNL     1       2.541   7.427  19.300  0.00  0.00    +0.000 NA
ATOM     18  C   UNL     1       1.400   9.827  20.047  0.00  0.00    +0.000 C 
ATOM     19  C   UNL     1       1.353  11.039  20.992  0.00  0.00    +0.000 C 
ATOM     20  H   UNL     1       0.954   4.325  22.041  0.00  0.00    +0.000 HD
ATOM     21  H   UNL     1       2.299   3.514  21.462  0.00  0.00    +0.000 HD
ENDROOT
BRANCH   1  25
ATOM     22  C   UNL     1      -0.318  15.619  19.141  0.00  0.00    +0.000 A 
ATOM     23  C   UNL     1      -0.672  14.335  18.681  0.00  0.00    +0.000 A 
ATOM     24  C   UNL     1      -0.782  13.248  19.564  0.00  0.00    +0.000 A 
ATOM     25  C   UNL     1      -0.489  13.428  20.915  0.00  0.00    +0.000 A 
ATOM     26  C   UNL     1       0.010  14.662  21.333  0.00  0.00    +0.000 A 
ATOM     27  C   UNL     1       0.058  15.771  20.482  0.00  0.00    +0.000 A 
BRANCH  22  29
ATOM     28  C   UNL     1      -1.359  17.648  18.451  0.00  0.00    +0.000 C 
ATOM     29  O   UNL     1      -0.292  16.713  18.320  0.00  0.00    +0.000 OA
ENDBRANCH  22  29
BRANCH  27  30
ATOM     30  O   UNL     1       0.461  16.884  21.165  0.00  0.00    +0.000 OA
ATOM     31  C   UNL     1       1.758  16.940  21.728  0.00  0.00    +0.000 C 
ENDBRANCH  27  30
ENDBRANCH   1  25
BRANCH  13  32
ATOM     32  O   UNL     1       3.946   2.464  17.212  0.00  0.00    +0.000 OA
ATOM     33  C   UNL     1       3.713   1.387  18.104  0.00  0.00    +0.000 C 
ENDBRANCH  13  32
BRANCH  14  34
ATOM     34  O   UNL     1       5.173   4.817  16.080  0.00  0.00    +0.000 OA
ATOM     35  C   UNL     1       6.577   4.772  16.269  0.00  0.00    +0.000 C 
ENDBRANCH  14  34
TORSDOF 5
ENDMDL
MODEL 9
REMARK VINA RESULT:      -6.5      1.725      9.732
REMARK  Name = 
REMARK  9 active torsions:
REMARK  status: ('A' for Active; 'I' for Inactive)
REMARK    1  A    between atoms: C_1  and  O_2
REMARK    2  A    between atoms: O_2  and  C_3
REMARK    3  A    between atoms: C_6  and  C_7
REMARK    4  A    between atoms: C_19  and  O_20
REMARK    5  A    between atoms: O_20  and  C_21
REMARK    6  A    between atoms: C_22  and  O_23
REMARK    7  A    between atoms: O_23  and  C_24
REMARK    8  A    between atoms: C_31  and  O_32
REMARK    9  A    between atoms: O_32  and  C_33
REMARK                            x       y       z     vdW  Elec       q    Type
REMARK                         _______ _______ _______ _____ _____    ______ ____
ROOT
ATOM      1  C   UNL     1      -1.052  12.263  22.301  0.00  0.00    +0.000 C 
ATOM      2  O   UNL     1      -1.777  12.344  23.290  0.00  0.00    +0.000 OA
ATOM      3  N   UNL     1      -0.294  11.128  21.993  0.00  0.00    +0.000 N 
ATOM      4  C   UNL     1      -0.510   9.875  22.727  0.00  0.00    +0.000 C 
ATOM      5  C   UNL     1      -0.261   8.615  21.844  0.00  0.00    +0.000 C 
ATOM      6  N   UNL     1       0.993   8.742  21.059  0.00  0.00    +0.000 N 
ATOM      7  C   UNL     1       1.534   7.599  20.486  0.00  0.00    +0.000 A 
ATOM      8  N   UNL     1       1.279   6.427  21.080  0.00  0.00    +0.000 NA
ATOM      9  C   UNL     1       1.817   5.330  20.544  0.00  0.00    +0.000 A 
ATOM     10  N   UNL     1       1.620   4.147  21.276  0.00  0.00    +0.000 N 
ATOM     11  C   UNL     1       2.560   5.326  19.367  0.00  0.00    +0.000 A 
ATOM     12  C   UNL     1       2.982   4.146  18.725  0.00  0.00    +0.000 A 
ATOM     13  C   UNL     1       3.800   4.171  17.598  0.00  0.00    +0.000 A 
ATOM     14  C   UNL     1       4.238   5.410  17.117  0.00  0.00    +0.000 A 
ATOM     15  C   UNL     1       3.763   6.588  17.752  0.00  0.00    +0.000 A 
ATOM     16  C   UNL     1       2.885   6.573  18.854  0.00  0.00    +0.000 A 
ATOM     17  N   UNL     1       2.374   7.695  19.423  0.00  0.00    +0.000 NA
ATOM     18  C   UNL     1       1.088   9.980  20.286  0.00  0.00    +0.000 C 
ATOM     19  C   UNL     1       0.990  11.160  21.268  0.00  0.00    +0.000 C 
ATOM     20  H   UNL     1       1.145   4.409  22.134  0.00  0.00    +0.000 HD
ATOM     21  H   UNL     1       2.520   3.719  21.477  0.00  0.00    +0.000 HD
ENDROOT
BRANCH   1  25
ATOM     22  C   UNL     1      -0.826  15.606  19.582  0.00  0.00    +0.000 A 
ATOM     23  C   UNL     1      -1.968  15.416  20.384  0.00  0.00    +0.000 A 
ATOM     24  C   UNL     1      -2.063  14.334  21.275  0.00  0.00    +0.000 A 
ATOM     25  C   UNL     1      -1.029  13.402  21.336  0.00  0.00    +0.000 A 
ATOM     26  C   UNL     1       0.025  13.510  20.429  0.00  0.00    +0.000 A 
ATOM     27  C   UNL     1       0.168  14.618  19.586  0.00  0.00    +0.000 A 
BRANCH  22  29
ATOM     28  C   UNL     1      -0.056  17.848  19.349  0.00  0.00    +0.000 C 
ATOM     29  O   UNL     1      -0.668  16.697  18.773  0.00  0.00    +0.000 OA
ENDBRANCH  22  29
BRANCH  27  30
ATOM     30  O   UNL     1       1.345  14.546  18.894  0.00  0.00    +0.000 OA
ATOM     31  C   UNL     1       1.772  13.314  18.345  0.00  0.00    +0.000 C 
ENDBRANCH  27  30
ENDBRANCH   1  25
BRANCH  13  32
ATOM     32  O   UNL     1       4.057   2.910  17.134  0.00  0.00    +0.000 OA
ATOM     33  C   UNL     1       3.644   1.779  17.882  0.00  0.00    +0.000 C 
ENDBRANCH  13  32
BRANCH  14  34
ATOM     34  O   UNL     1       5.053   5.380  16.022  0.00  0.00    +0.000 OA
ATOM     35  C   UNL     1       6.463   5.333  16.155  0.00  0.00    +0.000 C 
ENDBRANCH  14  34
TORSDOF 5
ENDMDL
