MODEL 1
REMARK VINA RESULT:      -8.0      0.000      0.000
REMARK  Name = 
REMARK  9 active torsions:
REMARK  status: ('A' for Active; 'I' for Inactive)
REMARK    1  A    between atoms: C_1  and  C_2
REMARK    2  A    between atoms: C_2  and  N_3
REMARK    3  A    between atoms: C_4  and  C_6
REMARK    4  A    between atoms: C_6  and  C_7
REMARK    5  A    between atoms: C_6  and  N_8
REMARK    6  A    between atoms: C_9  and  C_11
REMARK    7  A    between atoms: C_13  and  C_14
REMARK    8  A    between atoms: N_25  and  C_26
REMARK    9  A    between atoms: C_26  and  C_27
REMARK                            x       y       z     vdW  Elec       q    Type
REMARK                         _______ _______ _______ _____ _____    ______ ____
ROOT
ATOM      1  C   UNL     1       2.468   8.431  18.286  0.00  0.00    +0.000 A 
ATOM      2  C   UNL     1       3.347   7.824  17.384  0.00  0.00    +0.000 A 
ATOM      3  C   UNL     1       3.745   6.504  17.591  0.00  0.00    +0.000 A 
ATOM      4  N   UNL     1       3.349   5.753  18.657  0.00  0.00    +0.000 NA
ATOM      5  C   UNL     1       2.514   6.385  19.509  0.00  0.00    +0.000 A 
ATOM      6  C   UNL     1       2.043   7.686  19.387  0.00  0.00    +0.000 A 
ATOM      7  C   UNL     1       1.216   7.867  20.518  0.00  0.00    +0.000 A 
ATOM      8  N   UNL     1       1.168   6.790  21.309  0.00  0.00    +0.000 NA
ATOM      9  N   UNL     1       1.975   5.896  20.678  0.00  0.00    +0.000 N 
ENDROOT
BRANCH   3  10
ATOM     10  C   UNL     1       4.655   5.827  16.632  0.00  0.00    +0.000 A 
ATOM     11  C   UNL     1       4.989   4.472  16.793  0.00  0.00    +0.000 A 
ATOM     12  C   UNL     1       5.807   3.810  15.874  0.00  0.00    +0.000 A 
ATOM     13  C   UNL     1       6.319   4.492  14.774  0.00  0.00    +0.000 A 
ATOM     14  C   UNL     1       6.030   5.841  14.604  0.00  0.00    +0.000 A 
ATOM     15  C   UNL     1       5.207   6.500  15.523  0.00  0.00    +0.000 A 
ENDBRANCH   3  10
BRANCH   1  17
ATOM     16  N   UNL     1       0.861  10.209  18.710  0.00  0.00    +0.000 N 
ATOM     17  C   UNL     1       2.054   9.842  18.131  0.00  0.00    +0.000 C 
ATOM     18  O   UNL     1       2.775  10.625  17.524  0.00  0.00    +0.000 OA
ATOM     19  H   UNL     1       0.298   9.551  19.239  0.00  0.00    +0.000 HD
BRANCH  16  20
ATOM     20  C   UNL     1       0.336  11.573  18.640  0.00  0.00    +0.000 C 
ATOM     21  C   UNL     1       0.467  12.292  19.982  0.00  0.00    +0.000 C 
BRANCH  20  23
ATOM     22  N   UNL     1      -1.448  10.460  17.341  0.00  0.00    +0.000 N 
ATOM     23  C   UNL     1      -1.147  11.489  18.212  0.00  0.00    +0.000 C 
ATOM     24  O   UNL     1      -1.991  12.279  18.634  0.00  0.00    +0.000 OA
ATOM     25  H   UNL     1      -0.711   9.845  17.020  0.00  0.00    +0.000 HD
BRANCH  22  27
ATOM     26  C   UNL     1      -2.909  10.832  15.397  0.00  0.00    +0.000 C 
ATOM     27  C   UNL     1      -2.777  10.262  16.801  0.00  0.00    +0.000 C 
ENDBRANCH  22  27
ENDBRANCH  20  23
ENDBRANCH  16  20
ENDBRANCH   1  17
BRANCH   9  28
ATOM     28  C   UNL     1       2.255   4.614  21.319  0.00  0.00    +0.000 C 
BRANCH  28  29
ATOM     29  C   UNL     1       2.072   3.457  20.365  0.00  0.00    +0.000 A 
ATOM     30  C   UNL     1       0.772   3.112  19.940  0.00  0.00    +0.000 A 
ATOM     31  C   UNL     1       0.566   2.133  18.968  0.00  0.00    +0.000 A 
ATOM     32  C   UNL     1       1.652   1.458  18.422  0.00  0.00    +0.000 A 
ATOM     33  C   UNL     1       2.939   1.731  18.885  0.00  0.00    +0.000 A 
ATOM     34  C   UNL     1       3.149   2.714  19.857  0.00  0.00    +0.000 A 
ATOM     35 CL   UNL     1       4.771   2.950  20.403  0.00  0.00    +0.000 Cl
ENDBRANCH  28  29
ENDBRANCH   9  28
TORSDOF 7
ENDMDL
MODEL 2
REMARK VINA RESULT:      -7.9      1.065      1.403
REMARK  Name = 
REMARK  9 active torsions:
REMARK  status: ('A' for Active; 'I' for Inactive)
REMARK    1  A    between atoms: C_1  and  C_2
REMARK    2  A    between atoms: C_2  and  N_3
REMARK    3  A    between atoms: C_4  and  C_6
REMARK    4  A    between atoms: C_6  and  C_7
REMARK    5  A    between atoms: C_6  and  N_8
REMARK    6  A    between atoms: C_9  and  C_11
REMARK    7  A    between atoms: C_13  and  C_14
REMARK    8  A    between atoms: N_25  and  C_26
REMARK    9  A    between atoms: C_26  and  C_27
REMARK                            x       y       z     vdW  Elec       q    Type
REMARK                         _______ _______ _______ _____ _____    ______ ____
ROOT
ATOM      1  C   UNL     1       2.523   8.221  18.340  0.00  0.00    +0.000 A 
ATOM      2  C   UNL     1       3.527   7.706  17.513  0.00  0.00    +0.000 A 
ATOM      3  C   UNL     1       4.024   6.424  17.746  0.00  0.00    +0.000 A 
ATOM      4  N   UNL     1       3.607   5.627  18.771  0.00  0.00    +0.000 NA
ATOM      5  C   UNL     1       2.649   6.170  19.551  0.00  0.00    +0.000 A 
ATOM      6  C   UNL     1       2.074   7.425  19.396  0.00  0.00    +0.000 A 
ATOM      7  C   UNL     1       1.142   7.517  20.453  0.00  0.00    +0.000 A 
ATOM      8  N   UNL     1       1.124   6.430  21.232  0.00  0.00    +0.000 NA
ATOM      9  N   UNL     1       2.059   5.620  20.666  0.00  0.00    +0.000 N 
ENDROOT
BRANCH   3  10
ATOM     10  C   UNL     1       5.069   5.844  16.865  0.00  0.00    +0.000 A 
ATOM     11  C   UNL     1       6.087   5.035  17.396  0.00  0.00    +0.000 A 
ATOM     12  C   UNL     1       7.050   4.445  16.574  0.00  0.00    +0.000 A 
ATOM     13  C   UNL     1       7.024   4.660  15.199  0.00  0.00    +0.000 A 
ATOM     14  C   UNL     1       6.046   5.481  14.648  0.00  0.00    +0.000 A 
ATOM     15  C   UNL     1       5.080   6.065  15.474  0.00  0.00    +0.000 A 
ENDBRANCH   3  10
BRANCH   1  17
ATOM     16  N   UNL     1       0.798   9.884  18.764  0.00  0.00    +0.000 N 
ATOM     17  C   UNL     1       1.997   9.591  18.158  0.00  0.00    +0.000 C 
ATOM     18  O   UNL     1       2.639  10.406  17.505  0.00  0.00    +0.000 OA
ATOM     19  H   UNL     1       0.303   9.202  19.330  0.00  0.00    +0.000 HD
BRANCH  16  20
ATOM     20  C   UNL     1       0.169  11.202  18.672  0.00  0.00    +0.000 C 
ATOM     21  C   UNL     1       0.204  11.934  20.013  0.00  0.00    +0.000 C 
BRANCH  20  23
ATOM     22  N   UNL     1      -1.449  10.119  17.149  0.00  0.00    +0.000 N 
ATOM     23  C   UNL     1      -1.290  10.999  18.202  0.00  0.00    +0.000 C 
ATOM     24  O   UNL     1      -2.234  11.575  18.744  0.00  0.00    +0.000 OA
ATOM     25  H   UNL     1      -0.636   9.680  16.737  0.00  0.00    +0.000 HD
BRANCH  22  27
ATOM     26  C   UNL     1      -2.972  10.677  15.299  0.00  0.00    +0.000 C 
ATOM     27  C   UNL     1      -2.740   9.847  16.552  0.00  0.00    +0.000 C 
ENDBRANCH  22  27
ENDBRANCH  20  23
ENDBRANCH  16  20
ENDBRANCH   1  17
BRANCH   9  28
ATOM     28  C   UNL     1       2.397   4.360  21.322  0.00  0.00    +0.000 C 
BRANCH  28  29
ATOM     29  C   UNL     1       2.821   3.305  20.327  0.00  0.00    +0.000 A 
ATOM     30  C   UNL     1       4.174   2.912  20.273  0.00  0.00    +0.000 A 
ATOM     31  C   UNL     1       4.589   1.857  19.458  0.00  0.00    +0.000 A 
ATOM     32  C   UNL     1       3.663   1.194  18.660  0.00  0.00    +0.000 A 
ATOM     33  C   UNL     1       2.335   1.618  18.642  0.00  0.00    +0.000 A 
ATOM     34  C   UNL     1       1.917   2.673  19.460  0.00  0.00    +0.000 A 
ATOM     35 CL   UNL     1       0.263   3.159  19.336  0.00  0.00    +0.000 Cl
ENDBRANCH  28  29
ENDBRANCH   9  28
TORSDOF 7
ENDMDL
MODEL 3
REMARK VINA RESULT:      -7.7      4.681     10.175
REMARK  Name = 
REMARK  9 active torsions:
REMARK  status: ('A' for Active; 'I' for Inactive)
REMARK    1  A    between atoms: C_1  and  C_2
REMARK    2  A    between atoms: C_2  and  N_3
REMARK    3  A    between atoms: C_4  and  C_6
REMARK    4  A    between atoms: C_6  and  C_7
REMARK    5  A    between atoms: C_6  and  N_8
REMARK    6  A    between atoms: C_9  and  C_11
REMARK    7  A    between atoms: C_13  and  C_14
REMARK    8  A    between atoms: N_25  and  C_26
REMARK    9  A    between atoms: C_26  and  C_27
REMARK                            x       y       z     vdW  Elec       q    Type
REMARK                         _______ _______ _______ _____ _____    ______ ____
ROOT
ATOM      1  C   UNL     1      -0.807  11.351  19.782  0.00  0.00    +0.000 A 
ATOM      2  C   UNL     1      -0.976  12.059  20.976  0.00  0.00    +0.000 A 
ATOM      3  C   UNL     1      -2.215  12.626  21.273  0.00  0.00    +0.000 A 
ATOM      4  N   UNL     1      -3.294  12.559  20.442  0.00  0.00    +0.000 NA
ATOM      5  C   UNL     1      -3.080  11.880  19.296  0.00  0.00    +0.000 A 
ATOM      6  C   UNL     1      -1.896  11.264  18.913  0.00  0.00    +0.000 A 
ATOM      7  C   UNL     1      -2.186  10.702  17.650  0.00  0.00    +0.000 A 
ATOM      8  N   UNL     1      -3.436  10.943  17.243  0.00  0.00    +0.000 NA
ATOM      9  N   UNL     1      -3.965  11.672  18.262  0.00  0.00    +0.000 N 
ENDROOT
BRANCH   3  10
ATOM     10  C   UNL     1      -2.429  13.357  22.547  0.00  0.00    +0.000 A 
ATOM     11  C   UNL     1      -3.574  13.124  23.326  0.00  0.00    +0.000 A 
ATOM     12  C   UNL     1      -3.766  13.771  24.549  0.00  0.00    +0.000 A 
ATOM     13  C   UNL     1      -2.820  14.677  25.018  0.00  0.00    +0.000 A 
ATOM     14  C   UNL     1      -1.691  14.953  24.254  0.00  0.00    +0.000 A 
ATOM     15  C   UNL     1      -1.499  14.298  23.033  0.00  0.00    +0.000 A 
ENDBRANCH   3  10
BRANCH   1  17
ATOM     16  N   UNL     1       0.644   9.411  19.548  0.00  0.00    +0.000 N 
ATOM     17  C   UNL     1       0.501  10.771  19.405  0.00  0.00    +0.000 C 
ATOM     18  O   UNL     1       1.386  11.499  18.971  0.00  0.00    +0.000 OA
ATOM     19  H   UNL     1      -0.117   8.823  19.875  0.00  0.00    +0.000 HD
BRANCH  16  20
ATOM     20  C   UNL     1       1.881   8.707  19.205  0.00  0.00    +0.000 C 
ATOM     21  C   UNL     1       1.941   8.375  17.715  0.00  0.00    +0.000 C 
BRANCH  20  23
ATOM     22  N   UNL     1       2.568   6.345  19.444  0.00  0.00    +0.000 N 
ATOM     23  C   UNL     1       1.940   7.415  20.051  0.00  0.00    +0.000 C 
ATOM     24  O   UNL     1       1.471   7.360  21.188  0.00  0.00    +0.000 OA
ATOM     25  H   UNL     1       2.928   6.444  18.504  0.00  0.00    +0.000 HD
BRANCH  22  27
ATOM     26  C   UNL     1       1.327   4.337  20.137  0.00  0.00    +0.000 C 
ATOM     27  C   UNL     1       2.671   5.044  20.074  0.00  0.00    +0.000 C 
ENDBRANCH  22  27
ENDBRANCH  20  23
ENDBRANCH  16  20
ENDBRANCH   1  17
BRANCH   9  28
ATOM     28  C   UNL     1      -5.312  12.219  18.120  0.00  0.00    +0.000 C 
BRANCH  28  29
ATOM     29  C   UNL     1      -6.286  11.568  19.075  0.00  0.00    +0.000 A 
ATOM     30  C   UNL     1      -6.558  10.190  18.949  0.00  0.00    +0.000 A 
ATOM     31  C   UNL     1      -7.354   9.523  19.882  0.00  0.00    +0.000 A 
ATOM     32  C   UNL     1      -7.917  10.225  20.941  0.00  0.00    +0.000 A 
ATOM     33  C   UNL     1      -7.722  11.603  21.039  0.00  0.00    +0.000 A 
ATOM     34  C   UNL     1      -6.922  12.274  20.108  0.00  0.00    +0.000 A 
ATOM     35 CL   UNL     1      -6.777  13.986  20.282  0.00  0.00    +0.000 Cl
ENDBRANCH  28  29
ENDBRANCH   9  28
TORSDOF 7
ENDMDL
MODEL 4
REMARK VINA RESULT:      -7.7      3.571      8.971
REMARK  Name = 
REMARK  9 active torsions:
REMARK  status: ('A' for Active; 'I' for Inactive)
REMARK    1  A    between atoms: C_1  and  C_2
REMARK    2  A    between atoms: C_2  and  N_3
REMARK    3  A    between atoms: C_4  and  C_6
REMARK    4  A    between atoms: C_6  and  C_7
REMARK    5  A    between atoms: C_6  and  N_8
REMARK    6  A    between atoms: C_9  and  C_11
REMARK    7  A    between atoms: C_13  and  C_14
REMARK    8  A    between atoms: N_25  and  C_26
REMARK    9  A    between atoms: C_26  and  C_27
REMARK                            x       y       z     vdW  Elec       q    Type
REMARK                         _______ _______ _______ _____ _____    ______ ____
ROOT
ATOM      1  C   UNL     1       0.972   9.185  19.224  0.00  0.00    +0.000 A 
ATOM      2  C   UNL     1      -0.048   9.499  18.320  0.00  0.00    +0.000 A 
ATOM      3  C   UNL     1      -1.182  10.177  18.768  0.00  0.00    +0.000 A 
ATOM      4  N   UNL     1      -1.383  10.538  20.067  0.00  0.00    +0.000 NA
ATOM      5  C   UNL     1      -0.380  10.201  20.905  0.00  0.00    +0.000 A 
ATOM      6  C   UNL     1       0.795   9.545  20.561  0.00  0.00    +0.000 A 
ATOM      7  C   UNL     1       1.500   9.428  21.779  0.00  0.00    +0.000 A 
ATOM      8  N   UNL     1       0.838   9.945  22.820  0.00  0.00    +0.000 NA
ATOM      9  N   UNL     1      -0.314  10.407  22.265  0.00  0.00    +0.000 N 
ENDROOT
BRANCH   3  10
ATOM     10  C   UNL     1      -2.266  10.548  17.823  0.00  0.00    +0.000 A 
ATOM     11  C   UNL     1      -3.373  11.296  18.258  0.00  0.00    +0.000 A 
ATOM     12  C   UNL     1      -4.377  11.691  17.371  0.00  0.00    +0.000 A 
ATOM     13  C   UNL     1      -4.303  11.339  16.027  0.00  0.00    +0.000 A 
ATOM     14  C   UNL     1      -3.235  10.573  15.572  0.00  0.00    +0.000 A 
ATOM     15  C   UNL     1      -2.228  10.184  16.462  0.00  0.00    +0.000 A 
ENDBRANCH   3  10
BRANCH   1  17
ATOM     16  N   UNL     1       2.334   7.172  19.337  0.00  0.00    +0.000 N 
ATOM     17  C   UNL     1       2.172   8.429  18.804  0.00  0.00    +0.000 C 
ATOM     18  O   UNL     1       2.953   8.927  18.002  0.00  0.00    +0.000 OA
ATOM     19  H   UNL     1       1.654   6.766  19.971  0.00  0.00    +0.000 HD
BRANCH  16  20
ATOM     20  C   UNL     1       3.471   6.313  19.001  0.00  0.00    +0.000 C 
ATOM     21  C   UNL     1       3.583   6.097  17.493  0.00  0.00    +0.000 C 
BRANCH  20  23
ATOM     22  N   UNL     1       3.994   3.906  19.206  0.00  0.00    +0.000 N 
ATOM     23  C   UNL     1       3.278   4.964  19.730  0.00  0.00    +0.000 C 
ATOM     24  O   UNL     1       2.545   4.857  20.714  0.00  0.00    +0.000 OA
ATOM     25  H   UNL     1       4.575   4.051  18.391  0.00  0.00    +0.000 HD
BRANCH  22  27
ATOM     26  C   UNL     1       3.494   1.560  18.665  0.00  0.00    +0.000 C 
ATOM     27  C   UNL     1       3.896   2.562  19.736  0.00  0.00    +0.000 C 
ENDBRANCH  22  27
ENDBRANCH  20  23
ENDBRANCH  16  20
ENDBRANCH   1  17
BRANCH   9  28
ATOM     28  C   UNL     1      -1.353  10.953  23.134  0.00  0.00    +0.000 C 
BRANCH  28  29
ATOM     29  C   UNL     1      -1.482  12.450  22.982  0.00  0.00    +0.000 A 
ATOM     30  C   UNL     1      -0.434  13.175  22.377  0.00  0.00    +0.000 A 
ATOM     31  C   UNL     1      -0.562  14.538  22.106  0.00  0.00    +0.000 A 
ATOM     32  C   UNL     1      -1.726  15.209  22.461  0.00  0.00    +0.000 A 
ATOM     33  C   UNL     1      -2.742  14.527  23.129  0.00  0.00    +0.000 A 
ATOM     34  C   UNL     1      -2.619  13.160  23.399  0.00  0.00    +0.000 A 
ATOM     35 CL   UNL     1      -3.906  12.409  24.273  0.00  0.00    +0.000 Cl
ENDBRANCH  28  29
ENDBRANCH   9  28
TORSDOF 7
ENDMDL
MODEL 5
REMARK VINA RESULT:      -7.5      3.598      8.905
REMARK  Name = 
REMARK  9 active torsions:
REMARK  status: ('A' for Active; 'I' for Inactive)
REMARK    1  A    between atoms: C_1  and  C_2
REMARK    2  A    between atoms: C_2  and  N_3
REMARK    3  A    between atoms: C_4  and  C_6
REMARK    4  A    between atoms: C_6  and  C_7
REMARK    5  A    between atoms: C_6  and  N_8
REMARK    6  A    between atoms: C_9  and  C_11
REMARK    7  A    between atoms: C_13  and  C_14
REMARK    8  A    between atoms: N_25  and  C_26
REMARK    9  A    between atoms: C_26  and  C_27
REMARK                            x       y       z     vdW  Elec       q    Type
REMARK                         _______ _______ _______ _____ _____    ______ ____
ROOT
ATOM      1  C   UNL     1       0.892   9.225  19.205  0.00  0.00    +0.000 A 
ATOM      2  C   UNL     1      -0.123   9.572  18.309  0.00  0.00    +0.000 A 
ATOM      3  C   UNL     1      -1.237  10.276  18.766  0.00  0.00    +0.000 A 
ATOM      4  N   UNL     1      -1.421  10.634  20.068  0.00  0.00    +0.000 NA
ATOM      5  C   UNL     1      -0.424  10.265  20.899  0.00  0.00    +0.000 A 
ATOM      6  C   UNL     1       0.732   9.580  20.545  0.00  0.00    +0.000 A 
ATOM      7  C   UNL     1       1.440   9.437  21.759  0.00  0.00    +0.000 A 
ATOM      8  N   UNL     1       0.797   9.965  22.806  0.00  0.00    +0.000 NA
ATOM      9  N   UNL     1      -0.345  10.460  22.260  0.00  0.00    +0.000 N 
ENDROOT
BRANCH   3  10
ATOM     10  C   UNL     1      -2.315  10.682  17.829  0.00  0.00    +0.000 A 
ATOM     11  C   UNL     1      -2.218  10.398  16.457  0.00  0.00    +0.000 A 
ATOM     12  C   UNL     1      -3.245  10.733  15.570  0.00  0.00    +0.000 A 
ATOM     13  C   UNL     1      -4.391  11.371  16.035  0.00  0.00    +0.000 A 
ATOM     14  C   UNL     1      -4.502  11.693  17.383  0.00  0.00    +0.000 A 
ATOM     15  C   UNL     1      -3.475  11.351  18.269  0.00  0.00    +0.000 A 
ENDBRANCH   3  10
BRANCH   1  17
ATOM     16  N   UNL     1       2.216   7.186  19.319  0.00  0.00    +0.000 N 
ATOM     17  C   UNL     1       2.069   8.440  18.774  0.00  0.00    +0.000 C 
ATOM     18  O   UNL     1       2.847   8.913  17.954  0.00  0.00    +0.000 OA
ATOM     19  H   UNL     1       1.538   6.802  19.969  0.00  0.00    +0.000 HD
BRANCH  16  20
ATOM     20  C   UNL     1       3.330   6.301  18.974  0.00  0.00    +0.000 C 
ATOM     21  C   UNL     1       3.812   6.539  17.544  0.00  0.00    +0.000 C 
BRANCH  20  23
ATOM     22  N   UNL     1       1.678   4.695  19.869  0.00  0.00    +0.000 N 
ATOM     23  C   UNL     1       2.848   4.843  19.150  0.00  0.00    +0.000 C 
ATOM     24  O   UNL     1       3.463   3.892  18.666  0.00  0.00    +0.000 OA
ATOM     25  H   UNL     1       1.219   5.512  20.250  0.00  0.00    +0.000 HD
BRANCH  22  27
ATOM     26  C   UNL     1       1.450   2.941  21.579  0.00  0.00    +0.000 C 
ATOM     27  C   UNL     1       1.109   3.397  20.169  0.00  0.00    +0.000 C 
ENDBRANCH  22  27
ENDBRANCH  20  23
ENDBRANCH  16  20
ENDBRANCH   1  17
BRANCH   9  28
ATOM     28  C   UNL     1      -1.365  11.028  23.138  0.00  0.00    +0.000 C 
BRANCH  28  29
ATOM     29  C   UNL     1      -1.456  12.530  22.995  0.00  0.00    +0.000 A 
ATOM     30  C   UNL     1      -0.393  13.230  22.390  0.00  0.00    +0.000 A 
ATOM     31  C   UNL     1      -0.486  14.598  22.127  0.00  0.00    +0.000 A 
ATOM     32  C   UNL     1      -1.632  15.297  22.489  0.00  0.00    +0.000 A 
ATOM     33  C   UNL     1      -2.663  14.637  23.158  0.00  0.00    +0.000 A 
ATOM     34  C   UNL     1      -2.573  13.265  23.420  0.00  0.00    +0.000 A 
ATOM     35 CL   UNL     1      -3.877  12.543  24.294  0.00  0.00    +0.000 Cl
ENDBRANCH  28  29
ENDBRANCH   9  28
TORSDOF 7
ENDMDL
MODEL 6
REMARK VINA RESULT:      -7.5      3.522      8.836
REMARK  Name = 
REMARK  9 active torsions:
REMARK  status: ('A' for Active; 'I' for Inactive)
REMARK    1  A    between atoms: C_1  and  C_2
REMARK    2  A    between atoms: C_2  and  N_3
REMARK    3  A    between atoms: C_4  and  C_6
REMARK    4  A    between atoms: C_6  and  C_7
REMARK    5  A    between atoms: C_6  and  N_8
REMARK    6  A    between atoms: C_9  and  C_11
REMARK    7  A    between atoms: C_13  and  C_14
REMARK    8  A    between atoms: N_25  and  C_26
REMARK    9  A    between atoms: C_26  and  C_27
REMARK                            x       y       z     vdW  Elec       q    Type
REMARK                         _______ _______ _______ _____ _____    ______ ____
ROOT
ATOM      1  C   UNL     1       1.020   8.909  18.733  0.00  0.00    +0.000 A 
ATOM      2  C   UNL     1      -0.045   9.323  17.926  0.00  0.00    +0.000 A 
ATOM      3  C   UNL     1      -1.081  10.074  18.481  0.00  0.00    +0.000 A 
ATOM      4  N   UNL     1      -1.143  10.417  19.799  0.00  0.00    +0.000 NA
ATOM      5  C   UNL     1      -0.103   9.983  20.542  0.00  0.00    +0.000 A 
ATOM      6  C   UNL     1       0.984   9.248  20.087  0.00  0.00    +0.000 A 
ATOM      7  C   UNL     1       1.778   9.048  21.238  0.00  0.00    +0.000 A 
ATOM      8  N   UNL     1       1.248   9.587  22.341  0.00  0.00    +0.000 NA
ATOM      9  N   UNL     1       0.093  10.149  21.894  0.00  0.00    +0.000 N 
ENDROOT
BRANCH   3  10
ATOM     10  C   UNL     1      -2.207  10.550  17.639  0.00  0.00    +0.000 A 
ATOM     11  C   UNL     1      -2.268  10.231  16.273  0.00  0.00    +0.000 A 
ATOM     12  C   UNL     1      -3.344  10.633  15.478  0.00  0.00    +0.000 A 
ATOM     13  C   UNL     1      -4.383  11.375  16.031  0.00  0.00    +0.000 A 
ATOM     14  C   UNL     1      -4.337  11.733  17.374  0.00  0.00    +0.000 A 
ATOM     15  C   UNL     1      -3.260  11.324  18.168  0.00  0.00    +0.000 A 
ENDBRANCH   3  10
BRANCH   1  17
ATOM     16  N   UNL     1       1.980   6.712  18.319  0.00  0.00    +0.000 N 
ATOM     17  C   UNL     1       2.117   8.075  18.198  0.00  0.00    +0.000 C 
ATOM     18  O   UNL     1       3.081   8.609  17.662  0.00  0.00    +0.000 OA
ATOM     19  H   UNL     1       1.154   6.291  18.735  0.00  0.00    +0.000 HD
BRANCH  16  20
ATOM     20  C   UNL     1       2.986   5.770  17.827  0.00  0.00    +0.000 C 
ATOM     21  C   UNL     1       2.365   4.416  17.485  0.00  0.00    +0.000 C 
BRANCH  20  23
ATOM     22  N   UNL     1       5.368   5.645  18.473  0.00  0.00    +0.000 N 
ATOM     23  C   UNL     1       4.063   5.612  18.924  0.00  0.00    +0.000 C 
ATOM     24  O   UNL     1       3.767   5.479  20.111  0.00  0.00    +0.000 OA
ATOM     25  H   UNL     1       5.553   5.749  17.483  0.00  0.00    +0.000 HD
BRANCH  22  27
ATOM     26  C   UNL     1       7.754   6.136  18.816  0.00  0.00    +0.000 C 
ATOM     27  C   UNL     1       6.502   5.465  19.356  0.00  0.00    +0.000 C 
ENDBRANCH  22  27
ENDBRANCH  20  23
ENDBRANCH  16  20
ENDBRANCH   1  17
BRANCH   9  28
ATOM     28  C   UNL     1      -0.823  10.751  22.859  0.00  0.00    +0.000 C 
BRANCH  28  29
ATOM     29  C   UNL     1      -1.010  12.230  22.610  0.00  0.00    +0.000 A 
ATOM     30  C   UNL     1       0.013  12.954  21.963  0.00  0.00    +0.000 A 
ATOM     31  C   UNL     1      -0.165  14.291  21.603  0.00  0.00    +0.000 A 
ATOM     32  C   UNL     1      -1.358  14.938  21.909  0.00  0.00    +0.000 A 
ATOM     33  C   UNL     1      -2.350  14.261  22.616  0.00  0.00    +0.000 A 
ATOM     34  C   UNL     1      -2.176  12.920  22.976  0.00  0.00    +0.000 A 
ATOM     35 CL   UNL     1      -3.439  12.178  23.891  0.00  0.00    +0.000 Cl
ENDBRANCH  28  29
ENDBRANCH   9  28
TORSDOF 7
ENDMDL
MODEL 7
REMARK VINA RESULT:      -7.4      4.246      9.067
REMARK  Name = 
REMARK  9 active torsions:
REMARK  status: ('A' for Active; 'I' for Inactive)
REMARK    1  A    between atoms: C_1  and  C_2
REMARK    2  A    between atoms: C_2  and  N_3
REMARK    3  A    between atoms: C_4  and  C_6
REMARK    4  A    between atoms: C_6  and  C_7
REMARK    5  A    between atoms: C_6  and  N_8
REMARK    6  A    between atoms: C_9  and  C_11
REMARK    7  A    between atoms: C_13  and  C_14
REMARK    8  A    between atoms: N_25  and  C_26
REMARK    9  A    between atoms: C_26  and  C_27
REMARK                            x       y       z     vdW  Elec       q    Type
REMARK                         _______ _______ _______ _____ _____    ______ ____
ROOT
ATOM      1  C   UNL     1       0.123   9.758  20.012  0.00  0.00    +0.000 A 
ATOM      2  C   UNL     1      -0.664   9.686  18.859  0.00  0.00    +0.000 A 
ATOM      3  C   UNL     1      -1.639  10.657  18.626  0.00  0.00    +0.000 A 
ATOM      4  N   UNL     1      -1.902  11.683  19.483  0.00  0.00    +0.000 NA
ATOM      5  C   UNL     1      -1.129  11.704  20.589  0.00  0.00    +0.000 A 
ATOM      6  C   UNL     1      -0.123  10.801  20.907  0.00  0.00    +0.000 A 
ATOM      7  C   UNL     1       0.374  11.253  22.150  0.00  0.00    +0.000 A 
ATOM      8  N   UNL     1      -0.261  12.338  22.605  0.00  0.00    +0.000 NA
ATOM      9  N   UNL     1      -1.182  12.594  21.638  0.00  0.00    +0.000 N 
ENDROOT
BRANCH   3  10
ATOM     10  C   UNL     1      -2.468  10.618  17.395  0.00  0.00    +0.000 A 
ATOM     11  C   UNL     1      -3.646  11.377  17.300  0.00  0.00    +0.000 A 
ATOM     12  C   UNL     1      -4.413  11.387  16.131  0.00  0.00    +0.000 A 
ATOM     13  C   UNL     1      -4.023  10.628  15.032  0.00  0.00    +0.000 A 
ATOM     14  C   UNL     1      -2.878   9.842  15.107  0.00  0.00    +0.000 A 
ATOM     15  C   UNL     1      -2.110   9.840  16.276  0.00  0.00    +0.000 A 
ENDBRANCH   3  10
BRANCH   1  17
ATOM     16  N   UNL     1       1.685   8.051  19.257  0.00  0.00    +0.000 N 
ATOM     17  C   UNL     1       1.138   8.728  20.322  0.00  0.00    +0.000 C 
ATOM     18  O   UNL     1       1.463   8.527  21.486  0.00  0.00    +0.000 OA
ATOM     19  H   UNL     1       1.426   8.261  18.298  0.00  0.00    +0.000 HD
BRANCH  16  20
ATOM     20  C   UNL     1       2.703   7.013  19.421  0.00  0.00    +0.000 C 
ATOM     21  C   UNL     1       3.667   6.983  18.236  0.00  0.00    +0.000 C 
BRANCH  20  23
ATOM     22  N   UNL     1       1.928   4.892  18.415  0.00  0.00    +0.000 N 
ATOM     23  C   UNL     1       1.977   5.656  19.565  0.00  0.00    +0.000 C 
ATOM     24  O   UNL     1       1.494   5.288  20.636  0.00  0.00    +0.000 OA
ATOM     25  H   UNL     1       2.335   5.249  17.560  0.00  0.00    +0.000 HD
BRANCH  22  27
ATOM     26  C   UNL     1       2.223   2.455  18.272  0.00  0.00    +0.000 C 
ATOM     27  C   UNL     1       1.246   3.616  18.358  0.00  0.00    +0.000 C 
ENDBRANCH  22  27
ENDBRANCH  20  23
ENDBRANCH  16  20
ENDBRANCH   1  17
BRANCH   9  28
ATOM     28  C   UNL     1      -2.150  13.668  21.845  0.00  0.00    +0.000 C 
BRANCH  28  29
ATOM     29  C   UNL     1      -3.378  13.183  22.580  0.00  0.00    +0.000 A 
ATOM     30  C   UNL     1      -3.266  12.798  23.932  0.00  0.00    +0.000 A 
ATOM     31  C   UNL     1      -4.393  12.461  24.683  0.00  0.00    +0.000 A 
ATOM     32  C   UNL     1      -5.650  12.474  24.090  0.00  0.00    +0.000 A 
ATOM     33  C   UNL     1      -5.773  12.777  22.735  0.00  0.00    +0.000 A 
ATOM     34  C   UNL     1      -4.645  13.118  21.980  0.00  0.00    +0.000 A 
ATOM     35 CL   UNL     1      -4.888  13.432  20.298  0.00  0.00    +0.000 Cl
ENDBRANCH  28  29
ENDBRANCH   9  28
TORSDOF 7
ENDMDL
MODEL 8
REMARK VINA RESULT:      -7.4      1.375      1.953
REMARK  Name = 
REMARK  9 active torsions:
REMARK  status: ('A' for Active; 'I' for Inactive)
REMARK    1  A    between atoms: C_1  and  C_2
REMARK    2  A    between atoms: C_2  and  N_3
REMARK    3  A    between atoms: C_4  and  C_6
REMARK    4  A    between atoms: C_6  and  C_7
REMARK    5  A    between atoms: C_6  and  N_8
REMARK    6  A    between atoms: C_9  and  C_11
REMARK    7  A    between atoms: C_13  and  C_14
REMARK    8  A    between atoms: N_25  and  C_26
REMARK    9  A    between atoms: C_26  and  C_27
REMARK                            x       y       z     vdW  Elec       q    Type
REMARK                         _______ _______ _______ _____ _____    ______ ____
ROOT
ATOM      1  C   UNL     1       2.448   8.089  18.301  0.00  0.00    +0.000 A 
ATOM      2  C   UNL     1       3.331   7.499  17.391  0.00  0.00    +0.000 A 
ATOM      3  C   UNL     1       3.762   6.188  17.598  0.00  0.00    +0.000 A 
ATOM      4  N   UNL     1       3.395   5.433  18.672  0.00  0.00    +0.000 NA
ATOM      5  C   UNL     1       2.555   6.049  19.530  0.00  0.00    +0.000 A 
ATOM      6  C   UNL     1       2.052   7.338  19.409  0.00  0.00    +0.000 A 
ATOM      7  C   UNL     1       1.234   7.505  20.548  0.00  0.00    +0.000 A 
ATOM      8  N   UNL     1       1.220   6.430  21.344  0.00  0.00    +0.000 NA
ATOM      9  N   UNL     1       2.040   5.553  20.707  0.00  0.00    +0.000 N 
ENDROOT
BRANCH   3  10
ATOM     10  C   UNL     1       4.676   5.529  16.632  0.00  0.00    +0.000 A 
ATOM     11  C   UNL     1       5.301   6.269  15.614  0.00  0.00    +0.000 A 
ATOM     12  C   UNL     1       6.198   5.671  14.726  0.00  0.00    +0.000 A 
ATOM     13  C   UNL     1       6.486   4.313  14.829  0.00  0.00    +0.000 A 
ATOM     14  C   UNL     1       5.860   3.548  15.807  0.00  0.00    +0.000 A 
ATOM     15  C   UNL     1       4.966   4.151  16.698  0.00  0.00    +0.000 A 
ENDBRANCH   3  10
BRANCH   1  17
ATOM     16  N   UNL     1       0.813   9.834  18.748  0.00  0.00    +0.000 N 
ATOM     17  C   UNL     1       2.000   9.489  18.145  0.00  0.00    +0.000 C 
ATOM     18  O   UNL     1       2.690  10.282  17.515  0.00  0.00    +0.000 OA
ATOM     19  H   UNL     1       0.277   9.169  19.296  0.00  0.00    +0.000 HD
BRANCH  16  20
ATOM     20  C   UNL     1       0.257  11.187  18.681  0.00  0.00    +0.000 C 
ATOM     21  C   UNL     1       0.420  11.925  20.008  0.00  0.00    +0.000 C 
BRANCH  20  23
ATOM     22  N   UNL     1      -2.076  11.958  18.946  0.00  0.00    +0.000 N 
ATOM     23  C   UNL     1      -1.238  11.066  18.307  0.00  0.00    +0.000 C 
ATOM     24  O   UNL     1      -1.638  10.239  17.487  0.00  0.00    +0.000 OA
ATOM     25  H   UNL     1      -1.693  12.611  19.618  0.00  0.00    +0.000 HD
BRANCH  22  27
ATOM     26  C   UNL     1      -4.248  12.534  19.948  0.00  0.00    +0.000 C 
ATOM     27  C   UNL     1      -3.511  11.954  18.751  0.00  0.00    +0.000 C 
ENDBRANCH  22  27
ENDBRANCH  20  23
ENDBRANCH  16  20
ENDBRANCH   1  17
BRANCH   9  28
ATOM     28  C   UNL     1       2.356   4.280  21.350  0.00  0.00    +0.000 C 
BRANCH  28  29
ATOM     29  C   UNL     1       2.813   3.244  20.350  0.00  0.00    +0.000 A 
ATOM     30  C   UNL     1       4.164   2.838  20.347  0.00  0.00    +0.000 A 
ATOM     31  C   UNL     1       4.603   1.797  19.527  0.00  0.00    +0.000 A 
ATOM     32  C   UNL     1       3.708   1.163  18.673  0.00  0.00    +0.000 A 
ATOM     33  C   UNL     1       2.386   1.602  18.606  0.00  0.00    +0.000 A 
ATOM     34  C   UNL     1       1.942   2.642  19.430  0.00  0.00    +0.000 A 
ATOM     35 CL   UNL     1       0.301   3.148  19.244  0.00  0.00    +0.000 Cl
ENDBRANCH  28  29
ENDBRANCH   9  28
TORSDOF 7
ENDMDL
MODEL 9
REMARK VINA RESULT:      -7.3      3.841      9.028
REMARK  Name = 
REMARK  9 active torsions:
REMARK  status: ('A' for Active; 'I' for Inactive)
REMARK    1  A    between atoms: C_1  and  C_2
REMARK    2  A    between atoms: C_2  and  N_3
REMARK    3  A    between atoms: C_4  and  C_6
REMARK    4  A    between atoms: C_6  and  C_7
REMARK    5  A    between atoms: C_6  and  N_8
REMARK    6  A    between atoms: C_9  and  C_11
REMARK    7  A    between atoms: C_13  and  C_14
REMARK    8  A    between atoms: N_25  and  C_26
REMARK    9  A    between atoms: C_26  and  C_27
REMARK                            x       y       z     vdW  Elec       q    Type
REMARK                         _______ _______ _______ _____ _____    ______ ____
ROOT
ATOM      1  C   UNL     1       0.511   9.762  19.445  0.00  0.00    +0.000 A 
ATOM      2  C   UNL     1      -0.428   9.668  18.413  0.00  0.00    +0.000 A 
ATOM      3  C   UNL     1      -1.320  10.717  18.193  0.00  0.00    +0.000 A 
ATOM      4  N   UNL     1      -1.361  11.846  18.955  0.00  0.00    +0.000 NA
ATOM      5  C   UNL     1      -0.448  11.887  19.948  0.00  0.00    +0.000 A 
ATOM      6  C   UNL     1       0.495  10.909  20.240  0.00  0.00    +0.000 A 
ATOM      7  C   UNL     1       1.197  11.421  21.354  0.00  0.00    +0.000 A 
ATOM      8  N   UNL     1       0.742  12.613  21.757  0.00  0.00    +0.000 NA
ATOM      9  N   UNL     1      -0.269  12.877  20.888  0.00  0.00    +0.000 N 
ENDROOT
BRANCH   3  10
ATOM     10  C   UNL     1      -2.307  10.653  17.085  0.00  0.00    +0.000 A 
ATOM     11  C   UNL     1      -2.093   9.812  15.981  0.00  0.00    +0.000 A 
ATOM     12  C   UNL     1      -3.034   9.707  14.953  0.00  0.00    +0.000 A 
ATOM     13  C   UNL     1      -4.209  10.452  15.001  0.00  0.00    +0.000 A 
ATOM     14  C   UNL     1      -4.434  11.317  16.066  0.00  0.00    +0.000 A 
ATOM     15  C   UNL     1      -3.493  11.415  17.096  0.00  0.00    +0.000 A 
ENDBRANCH   3  10
BRANCH   1  17
ATOM     16  N   UNL     1       2.051   8.045  18.670  0.00  0.00    +0.000 N 
ATOM     17  C   UNL     1       1.447   8.657  19.743  0.00  0.00    +0.000 C 
ATOM     18  O   UNL     1       1.663   8.341  20.907  0.00  0.00    +0.000 OA
ATOM     19  H   UNL     1       1.884   8.349  17.716  0.00  0.00    +0.000 HD
BRANCH  16  20
ATOM     20  C   UNL     1       3.004   6.944  18.822  0.00  0.00    +0.000 C 
ATOM     21  C   UNL     1       3.955   6.859  17.630  0.00  0.00    +0.000 C 
BRANCH  20  23
ATOM     22  N   UNL     1       1.840   5.304  20.259  0.00  0.00    +0.000 N 
ATOM     23  C   UNL     1       2.195   5.635  18.966  0.00  0.00    +0.000 C 
ATOM     24  O   UNL     1       1.884   4.952  17.989  0.00  0.00    +0.000 OA
ATOM     25  H   UNL     1       2.130   5.898  21.024  0.00  0.00    +0.000 HD
BRANCH  22  27
ATOM     26  C   UNL     1       1.986   3.111  21.363  0.00  0.00    +0.000 C 
ATOM     27  C   UNL     1       1.123   4.088  20.581  0.00  0.00    +0.000 C 
ENDBRANCH  22  27
ENDBRANCH  20  23
ENDBRANCH  16  20
ENDBRANCH   1  17
BRANCH   9  28
ATOM     28  C   UNL     1      -1.086  14.070  21.090  0.00  0.00    +0.000 C 
BRANCH  28  29
ATOM     29  C   UNL     1      -2.125  13.865  22.168  0.00  0.00    +0.000 A 
ATOM     30  C   UNL     1      -3.252  13.063  21.895  0.00  0.00    +0.000 A 
ATOM     31  C   UNL     1      -4.173  12.746  22.896  0.00  0.00    +0.000 A 
ATOM     32  C   UNL     1      -3.999  13.248  24.181  0.00  0.00    +0.000 A 
ATOM     33  C   UNL     1      -2.933  14.104  24.451  0.00  0.00    +0.000 A 
ATOM     34  C   UNL     1      -2.007  14.421  23.451  0.00  0.00    +0.000 A 
ATOM     35 CL   UNL     1      -0.746  15.527  23.865  0.00  0.00    +0.000 Cl
ENDBRANCH  28  29
ENDBRANCH   9  28
TORSDOF 7
ENDMDL
