MODEL 1
REMARK VINA RESULT:      -6.2      0.000      0.000
REMARK  Name = 
REMARK  9 active torsions:
REMARK  status: ('A' for Active; 'I' for Inactive)
REMARK    1  A    between atoms: C_1  and  C_2
REMARK    2  A    between atoms: C_2  and  N_3
REMARK    3  A    between atoms: N_3  and  C_4
REMARK    4  A    between atoms: N_3  and  C_6
REMARK    5  A    between atoms: C_4  and  C_5
REMARK    6  A    between atoms: C_6  and  C_7
REMARK    7  A    between atoms: C_7  and  C_8
REMARK    8  A    between atoms: C_8  and  C_10
REMARK    9  A    between atoms: C_11  and  C_12
REMARK                            x       y       z     vdW  Elec       q    Type
REMARK                         _______ _______ _______ _____ _____    ______ ____
ROOT
ATOM      1  C   UNL     1       6.298   4.733  15.365  0.00  0.00    +0.000 C 
ATOM      2  O   UNL     1       7.396   5.308  15.338  0.00  0.00    +0.000 OA
ENDROOT
BRANCH   1   3
ATOM      3  C   UNL     1       5.674   4.322  16.661  0.00  0.00    +0.000 C 
ATOM      4  C   UNL     1       4.354   4.458  16.850  0.00  0.00    +0.000 C 
BRANCH   4   5
ATOM      5  C   UNL     1       3.651   4.049  18.068  0.00  0.00    +0.000 A 
ATOM      6  C   UNL     1       3.375   4.938  19.121  0.00  0.00    +0.000 A 
ATOM      7  C   UNL     1       2.697   4.499  20.256  0.00  0.00    +0.000 A 
ATOM      8  C   UNL     1       2.275   3.178  20.350  0.00  0.00    +0.000 A 
ATOM      9 CL   UNL     1       1.442   2.638  21.754  0.00  0.00    +0.000 Cl
ATOM     10  C   UNL     1       2.520   2.286  19.306  0.00  0.00    +0.000 A 
ATOM     11  C   UNL     1       3.200   2.725  18.170  0.00  0.00    +0.000 A 
ENDBRANCH   4   5
ENDBRANCH   1   3
BRANCH   1  12
ATOM     12  C   UNL     1       5.516   4.423  14.113  0.00  0.00    +0.000 C 
BRANCH  12  13
ATOM     13  C   UNL     1       6.361   3.645  13.099  0.00  0.00    +0.000 C 
BRANCH  13  14
ATOM     14  N   UNL     1       5.587   2.807  12.145  0.00  0.00    +0.000 NA
BRANCH  14  16
ATOM     15  C   UNL     1       3.432   2.982  10.757  0.00  0.00    +0.000 C 
ATOM     16  C   UNL     1       4.606   3.672  11.447  0.00  0.00    +0.000 C 
ENDBRANCH  14  16
BRANCH  14  17
ATOM     17  C   UNL     1       6.459   2.051  11.231  0.00  0.00    +0.000 C 
ATOM     18  C   UNL     1       6.209   0.549  11.150  0.00  0.00    +0.000 C 
ENDBRANCH  14  17
ENDBRANCH  13  14
ENDBRANCH  12  13
ENDBRANCH   1  12
TORSDOF 7
ENDMDL
MODEL 2
REMARK VINA RESULT:      -6.1      6.897      8.521
REMARK  Name = 
REMARK  9 active torsions:
REMARK  status: ('A' for Active; 'I' for Inactive)
REMARK    1  A    between atoms: C_1  and  C_2
REMARK    2  A    between atoms: C_2  and  N_3
REMARK    3  A    between atoms: N_3  and  C_4
REMARK    4  A    between atoms: N_3  and  C_6
REMARK    5  A    between atoms: C_4  and  C_5
REMARK    6  A    between atoms: C_6  and  C_7
REMARK    7  A    between atoms: C_7  and  C_8
REMARK    8  A    between atoms: C_8  and  C_10
REMARK    9  A    between atoms: C_11  and  C_12
REMARK                            x       y       z     vdW  Elec       q    Type
REMARK                         _______ _______ _______ _____ _____    ______ ____
ROOT
ATOM      1  C   UNL     1       7.660   7.357  17.990  0.00  0.00    +0.000 C 
ATOM      2  O   UNL     1       8.188   6.644  18.856  0.00  0.00    +0.000 OA
ENDROOT
BRANCH   1   3
ATOM      3  C   UNL     1       8.168   8.736  17.711  0.00  0.00    +0.000 C 
ATOM      4  C   UNL     1       8.723   9.464  18.691  0.00  0.00    +0.000 C 
BRANCH   4   5
ATOM      5  C   UNL     1       9.281  10.805  18.505  0.00  0.00    +0.000 A 
ATOM      6  C   UNL     1       8.599  11.823  17.817  0.00  0.00    +0.000 A 
ATOM      7  C   UNL     1       9.173  13.085  17.673  0.00  0.00    +0.000 A 
ATOM      8  C   UNL     1      10.422  13.350  18.223  0.00  0.00    +0.000 A 
ATOM      9 CL   UNL     1      11.129  14.907  18.039  0.00  0.00    +0.000 Cl
ATOM     10  C   UNL     1      11.104  12.359  18.927  0.00  0.00    +0.000 A 
ATOM     11  C   UNL     1      10.531  11.095  19.070  0.00  0.00    +0.000 A 
ENDBRANCH   4   5
ENDBRANCH   1   3
BRANCH   1  12
ATOM     12  C   UNL     1       6.495   6.888  17.156  0.00  0.00    +0.000 C 
BRANCH  12  13
ATOM     13  C   UNL     1       5.816   5.662  17.774  0.00  0.00    +0.000 C 
BRANCH  13  14
ATOM     14  N   UNL     1       5.856   4.431  16.941  0.00  0.00    +0.000 NA
BRANCH  14  16
ATOM     15  C   UNL     1       3.458   3.898  17.694  0.00  0.00    +0.000 C 
ATOM     16  C   UNL     1       4.469   4.072  16.563  0.00  0.00    +0.000 C 
ENDBRANCH  14  16
BRANCH  14  17
ATOM     17  C   UNL     1       6.763   4.565  15.789  0.00  0.00    +0.000 C 
ATOM     18  C   UNL     1       6.272   3.972  14.473  0.00  0.00    +0.000 C 
ENDBRANCH  14  17
ENDBRANCH  13  14
ENDBRANCH  12  13
ENDBRANCH   1  12
TORSDOF 7
ENDMDL
MODEL 3
REMARK VINA RESULT:      -6.1      4.580      6.739
REMARK  Name = 
REMARK  9 active torsions:
REMARK  status: ('A' for Active; 'I' for Inactive)
REMARK    1  A    between atoms: C_1  and  C_2
REMARK    2  A    between atoms: C_2  and  N_3
REMARK    3  A    between atoms: N_3  and  C_4
REMARK    4  A    between atoms: N_3  and  C_6
REMARK    5  A    between atoms: C_4  and  C_5
REMARK    6  A    between atoms: C_6  and  C_7
REMARK    7  A    between atoms: C_7  and  C_8
REMARK    8  A    between atoms: C_8  and  C_10
REMARK    9  A    between atoms: C_11  and  C_12
REMARK                            x       y       z     vdW  Elec       q    Type
REMARK                         _______ _______ _______ _____ _____    ______ ____
ROOT
ATOM      1  C   UNL     1       3.860   5.122  17.255  0.00  0.00    +0.000 C 
ATOM      2  O   UNL     1       4.914   5.597  16.806  0.00  0.00    +0.000 OA
ENDROOT
BRANCH   1   3
ATOM      3  C   UNL     1       2.854   5.991  17.941  0.00  0.00    +0.000 C 
ATOM      4  C   UNL     1       3.053   7.313  18.036  0.00  0.00    +0.000 C 
BRANCH   4   5
ATOM      5  C   UNL     1       2.109   8.245  18.653  0.00  0.00    +0.000 A 
ATOM      6  C   UNL     1       1.464   9.264  17.930  0.00  0.00    +0.000 A 
ATOM      7  C   UNL     1       0.569  10.123  18.565  0.00  0.00    +0.000 A 
ATOM      8  C   UNL     1       0.295   9.969  19.920  0.00  0.00    +0.000 A 
ATOM      9 CL   UNL     1      -0.807  11.033  20.701  0.00  0.00    +0.000 Cl
ATOM     10  C   UNL     1       0.909   8.951  20.649  0.00  0.00    +0.000 A 
ATOM     11  C   UNL     1       1.807   8.092  20.014  0.00  0.00    +0.000 A 
ENDBRANCH   4   5
ENDBRANCH   1   3
BRANCH   1  12
ATOM     12  C   UNL     1       3.514   3.659  17.131  0.00  0.00    +0.000 C 
BRANCH  12  13
ATOM     13  C   UNL     1       2.204   3.327  17.851  0.00  0.00    +0.000 C 
BRANCH  13  14
ATOM     14  N   UNL     1       2.272   2.170  18.782  0.00  0.00    +0.000 NA
BRANCH  14  16
ATOM     15  C   UNL     1       4.399   2.136  20.223  0.00  0.00    +0.000 C 
ATOM     16  C   UNL     1       3.690   1.762  18.924  0.00  0.00    +0.000 C 
ENDBRANCH  14  16
BRANCH  14  17
ATOM     17  C   UNL     1       1.608   2.445  20.067  0.00  0.00    +0.000 C 
ATOM     18  C   UNL     1       0.908   3.795  20.188  0.00  0.00    +0.000 C 
ENDBRANCH  14  17
ENDBRANCH  13  14
ENDBRANCH  12  13
ENDBRANCH   1  12
TORSDOF 7
ENDMDL
MODEL 4
REMARK VINA RESULT:      -6.1      6.457      8.091
REMARK  Name = 
REMARK  9 active torsions:
REMARK  status: ('A' for Active; 'I' for Inactive)
REMARK    1  A    between atoms: C_1  and  C_2
REMARK    2  A    between atoms: C_2  and  N_3
REMARK    3  A    between atoms: N_3  and  C_4
REMARK    4  A    between atoms: N_3  and  C_6
REMARK    5  A    between atoms: C_4  and  C_5
REMARK    6  A    between atoms: C_6  and  C_7
REMARK    7  A    between atoms: C_7  and  C_8
REMARK    8  A    between atoms: C_8  and  C_10
REMARK    9  A    between atoms: C_11  and  C_12
REMARK                            x       y       z     vdW  Elec       q    Type
REMARK                         _______ _______ _______ _____ _____    ______ ____
ROOT
ATOM      1  C   UNL     1       7.483   6.721  17.834  0.00  0.00    +0.000 C 
ATOM      2  O   UNL     1       7.889   5.554  17.932  0.00  0.00    +0.000 OA
ENDROOT
BRANCH   1   3
ATOM      3  C   UNL     1       8.241   7.855  18.449  0.00  0.00    +0.000 C 
ATOM      4  C   UNL     1       8.160   9.086  17.926  0.00  0.00    +0.000 C 
BRANCH   4   5
ATOM      5  C   UNL     1       8.834  10.262  18.480  0.00  0.00    +0.000 A 
ATOM      6  C   UNL     1       9.535  10.233  19.698  0.00  0.00    +0.000 A 
ATOM      7  C   UNL     1      10.164  11.379  20.179  0.00  0.00    +0.000 A 
ATOM      8  C   UNL     1      10.114  12.561  19.448  0.00  0.00    +0.000 A 
ATOM      9 CL   UNL     1      10.888  13.976  20.046  0.00  0.00    +0.000 Cl
ATOM     10  C   UNL     1       9.441  12.604  18.228  0.00  0.00    +0.000 A 
ATOM     11  C   UNL     1       8.810  11.458  17.746  0.00  0.00    +0.000 A 
ENDBRANCH   4   5
ENDBRANCH   1   3
BRANCH   1  12
ATOM     12  C   UNL     1       6.222   7.080  17.089  0.00  0.00    +0.000 C 
BRANCH  12  13
ATOM     13  C   UNL     1       5.025   6.258  17.577  0.00  0.00    +0.000 C 
BRANCH  13  14
ATOM     14  N   UNL     1       4.519   5.248  16.610  0.00  0.00    +0.000 NA
BRANCH  14  16
ATOM     15  C   UNL     1       6.138   3.966  15.081  0.00  0.00    +0.000 C 
ATOM     16  C   UNL     1       5.395   5.258  15.415  0.00  0.00    +0.000 C 
ENDBRANCH  14  16
BRANCH  14  17
ATOM     17  C   UNL     1       4.371   3.916  17.220  0.00  0.00    +0.000 C 
ATOM     18  C   UNL     1       4.793   3.792  18.681  0.00  0.00    +0.000 C 
ENDBRANCH  14  17
ENDBRANCH  13  14
ENDBRANCH  12  13
ENDBRANCH   1  12
TORSDOF 7
ENDMDL
MODEL 5
REMARK VINA RESULT:      -6.0      4.358      6.270
REMARK  Name = 
REMARK  9 active torsions:
REMARK  status: ('A' for Active; 'I' for Inactive)
REMARK    1  A    between atoms: C_1  and  C_2
REMARK    2  A    between atoms: C_2  and  N_3
REMARK    3  A    between atoms: N_3  and  C_4
REMARK    4  A    between atoms: N_3  and  C_6
REMARK    5  A    between atoms: C_4  and  C_5
REMARK    6  A    between atoms: C_6  and  C_7
REMARK    7  A    between atoms: C_7  and  C_8
REMARK    8  A    between atoms: C_8  and  C_10
REMARK    9  A    between atoms: C_11  and  C_12
REMARK                            x       y       z     vdW  Elec       q    Type
REMARK                         _______ _______ _______ _____ _____    ______ ____
ROOT
ATOM      1  C   UNL     1       5.025   5.367  16.911  0.00  0.00    +0.000 C 
ATOM      2  O   UNL     1       5.567   5.690  15.844  0.00  0.00    +0.000 OA
ENDROOT
BRANCH   1   3
ATOM      3  C   UNL     1       4.380   6.392  17.790  0.00  0.00    +0.000 C 
ATOM      4  C   UNL     1       3.103   6.746  17.591  0.00  0.00    +0.000 C 
BRANCH   4   5
ATOM      5  C   UNL     1       2.378   7.710  18.422  0.00  0.00    +0.000 A 
ATOM      6  C   UNL     1       1.902   8.935  17.924  0.00  0.00    +0.000 A 
ATOM      7  C   UNL     1       1.212   9.815  18.755  0.00  0.00    +0.000 A 
ATOM      8  C   UNL     1       0.975   9.480  20.084  0.00  0.00    +0.000 A 
ATOM      9 CL   UNL     1       0.127  10.569  21.108  0.00  0.00    +0.000 Cl
ATOM     10  C   UNL     1       1.421   8.259  20.590  0.00  0.00    +0.000 A 
ATOM     11  C   UNL     1       2.114   7.379  19.759  0.00  0.00    +0.000 A 
ENDBRANCH   4   5
ENDBRANCH   1   3
BRANCH   1  12
ATOM     12  C   UNL     1       4.966   3.938  17.389  0.00  0.00    +0.000 C 
BRANCH  12  13
ATOM     13  C   UNL     1       4.718   3.857  18.898  0.00  0.00    +0.000 C 
BRANCH  13  14
ATOM     14  N   UNL     1       3.527   3.063  19.299  0.00  0.00    +0.000 NA
BRANCH  14  16
ATOM     15  C   UNL     1       2.251   2.869  21.521  0.00  0.00    +0.000 C 
ATOM     16  C   UNL     1       2.863   3.748  20.433  0.00  0.00    +0.000 C 
ENDBRANCH  14  16
BRANCH  14  17
ATOM     17  C   UNL     1       2.626   2.794  18.166  0.00  0.00    +0.000 C 
ATOM     18  C   UNL     1       1.471   3.773  17.977  0.00  0.00    +0.000 C 
ENDBRANCH  14  17
ENDBRANCH  13  14
ENDBRANCH  12  13
ENDBRANCH   1  12
TORSDOF 7
ENDMDL
MODEL 6
REMARK VINA RESULT:      -6.0      0.751      1.747
REMARK  Name = 
REMARK  9 active torsions:
REMARK  status: ('A' for Active; 'I' for Inactive)
REMARK    1  A    between atoms: C_1  and  C_2
REMARK    2  A    between atoms: C_2  and  N_3
REMARK    3  A    between atoms: N_3  and  C_4
REMARK    4  A    between atoms: N_3  and  C_6
REMARK    5  A    between atoms: C_4  and  C_5
REMARK    6  A    between atoms: C_6  and  C_7
REMARK    7  A    between atoms: C_7  and  C_8
REMARK    8  A    between atoms: C_8  and  C_10
REMARK    9  A    between atoms: C_11  and  C_12
REMARK                            x       y       z     vdW  Elec       q    Type
REMARK                         _______ _______ _______ _____ _____    ______ ____
ROOT
ATOM      1  C   UNL     1       6.396   4.649  14.939  0.00  0.00    +0.000 C 
ATOM      2  O   UNL     1       7.274   5.508  14.768  0.00  0.00    +0.000 OA
ENDROOT
BRANCH   1   3
ATOM      3  C   UNL     1       5.484   4.704  16.123  0.00  0.00    +0.000 C 
ATOM      4  C   UNL     1       4.878   3.593  16.564  0.00  0.00    +0.000 C 
BRANCH   4   5
ATOM      5  C   UNL     1       4.001   3.543  17.735  0.00  0.00    +0.000 A 
ATOM      6  C   UNL     1       3.994   4.543  18.722  0.00  0.00    +0.000 A 
ATOM      7  C   UNL     1       3.136   4.451  19.816  0.00  0.00    +0.000 A 
ATOM      8  C   UNL     1       2.267   3.371  19.932  0.00  0.00    +0.000 A 
ATOM      9 CL   UNL     1       1.211   3.257  21.284  0.00  0.00    +0.000 Cl
ATOM     10  C   UNL     1       2.245   2.379  18.951  0.00  0.00    +0.000 A 
ATOM     11  C   UNL     1       3.105   2.471  17.857  0.00  0.00    +0.000 A 
ENDBRANCH   4   5
ENDBRANCH   1   3
BRANCH   1  12
ATOM     12  C   UNL     1       6.177   3.512  13.973  0.00  0.00    +0.000 C 
BRANCH  12  13
ATOM     13  C   UNL     1       6.470   3.934  12.530  0.00  0.00    +0.000 C 
BRANCH  13  14
ATOM     14  N   UNL     1       5.609   3.295  11.500  0.00  0.00    +0.000 NA
BRANCH  14  16
ATOM     15  C   UNL     1       7.235   1.362  11.028  0.00  0.00    +0.000 C 
ATOM     16  C   UNL     1       5.865   1.835  11.510  0.00  0.00    +0.000 C 
ENDBRANCH  14  16
BRANCH  14  17
ATOM     17  C   UNL     1       4.187   3.643  11.664  0.00  0.00    +0.000 C 
ATOM     18  C   UNL     1       3.308   3.488  10.428  0.00  0.00    +0.000 C 
ENDBRANCH  14  17
ENDBRANCH  13  14
ENDBRANCH  12  13
ENDBRANCH   1  12
TORSDOF 7
ENDMDL
MODEL 7
REMARK VINA RESULT:      -6.0      4.628      6.714
REMARK  Name = 
REMARK  9 active torsions:
REMARK  status: ('A' for Active; 'I' for Inactive)
REMARK    1  A    between atoms: C_1  and  C_2
REMARK    2  A    between atoms: C_2  and  N_3
REMARK    3  A    between atoms: N_3  and  C_4
REMARK    4  A    between atoms: N_3  and  C_6
REMARK    5  A    between atoms: C_4  and  C_5
REMARK    6  A    between atoms: C_6  and  C_7
REMARK    7  A    between atoms: C_7  and  C_8
REMARK    8  A    between atoms: C_8  and  C_10
REMARK    9  A    between atoms: C_11  and  C_12
REMARK                            x       y       z     vdW  Elec       q    Type
REMARK                         _______ _______ _______ _____ _____    ______ ____
ROOT
ATOM      1  C   UNL     1       4.255   5.129  17.357  0.00  0.00    +0.000 C 
ATOM      2  O   UNL     1       5.031   5.651  16.544  0.00  0.00    +0.000 OA
ENDROOT
BRANCH   1   3
ATOM      3  C   UNL     1       3.341   5.965  18.196  0.00  0.00    +0.000 C 
ATOM      4  C   UNL     1       3.097   7.241  17.866  0.00  0.00    +0.000 C 
BRANCH   4   5
ATOM      5  C   UNL     1       2.189   8.123  18.603  0.00  0.00    +0.000 A 
ATOM      6  C   UNL     1       1.870   7.925  19.957  0.00  0.00    +0.000 A 
ATOM      7  C   UNL     1       1.005   8.797  20.614  0.00  0.00    +0.000 A 
ATOM      8  C   UNL     1       0.459   9.881  19.936  0.00  0.00    +0.000 A 
ATOM      9 CL   UNL     1      -0.612  10.954  20.748  0.00  0.00    +0.000 Cl
ATOM     10  C   UNL     1       0.781  10.106  18.598  0.00  0.00    +0.000 A 
ATOM     11  C   UNL     1       1.646   9.232  17.939  0.00  0.00    +0.000 A 
ENDBRANCH   4   5
ENDBRANCH   1   3
BRANCH   1  12
ATOM     12  C   UNL     1       4.166   3.636  17.548  0.00  0.00    +0.000 C 
BRANCH  12  13
ATOM     13  C   UNL     1       4.330   3.245  19.019  0.00  0.00    +0.000 C 
BRANCH  13  14
ATOM     14  N   UNL     1       3.176   2.517  19.610  0.00  0.00    +0.000 NA
BRANCH  14  16
ATOM     15  C   UNL     1       2.131   2.801  21.940  0.00  0.00    +0.000 C 
ATOM     16  C   UNL     1       2.509   3.406  20.590  0.00  0.00    +0.000 C 
ENDBRANCH  14  16
BRANCH  14  17
ATOM     17  C   UNL     1       2.265   1.986  18.583  0.00  0.00    +0.000 C 
ATOM     18  C   UNL     1       0.825   2.489  18.634  0.00  0.00    +0.000 C 
ENDBRANCH  14  17
ENDBRANCH  13  14
ENDBRANCH  12  13
ENDBRANCH   1  12
TORSDOF 7
ENDMDL
MODEL 8
REMARK VINA RESULT:      -6.0      6.533      8.399
REMARK  Name = 
REMARK  9 active torsions:
REMARK  status: ('A' for Active; 'I' for Inactive)
REMARK    1  A    between atoms: C_1  and  C_2
REMARK    2  A    between atoms: C_2  and  N_3
REMARK    3  A    between atoms: N_3  and  C_4
REMARK    4  A    between atoms: N_3  and  C_6
REMARK    5  A    between atoms: C_4  and  C_5
REMARK    6  A    between atoms: C_6  and  C_7
REMARK    7  A    between atoms: C_7  and  C_8
REMARK    8  A    between atoms: C_8  and  C_10
REMARK    9  A    between atoms: C_11  and  C_12
REMARK                            x       y       z     vdW  Elec       q    Type
REMARK                         _______ _______ _______ _____ _____    ______ ____
ROOT
ATOM      1  C   UNL     1       7.398   7.068  17.436  0.00  0.00    +0.000 C 
ATOM      2  O   UNL     1       7.747   6.699  16.305  0.00  0.00    +0.000 OA
ENDROOT
BRANCH   1   3
ATOM      3  C   UNL     1       8.152   8.136  18.165  0.00  0.00    +0.000 C 
ATOM      4  C   UNL     1       8.152   9.396  17.709  0.00  0.00    +0.000 C 
BRANCH   4   5
ATOM      5  C   UNL     1       8.827  10.512  18.374  0.00  0.00    +0.000 A 
ATOM      6  C   UNL     1       8.886  11.803  17.820  0.00  0.00    +0.000 A 
ATOM      7  C   UNL     1       9.536  12.832  18.497  0.00  0.00    +0.000 A 
ATOM      8  C   UNL     1      10.122  12.593  19.736  0.00  0.00    +0.000 A 
ATOM      9 CL   UNL     1      10.927  13.865  20.567  0.00  0.00    +0.000 Cl
ATOM     10  C   UNL     1      10.055  11.324  20.310  0.00  0.00    +0.000 A 
ATOM     11  C   UNL     1       9.406  10.293  19.632  0.00  0.00    +0.000 A 
ENDBRANCH   4   5
ENDBRANCH   1   3
BRANCH   1  12
ATOM     12  C   UNL     1       6.200   6.487  18.143  0.00  0.00    +0.000 C 
BRANCH  12  13
ATOM     13  C   UNL     1       5.076   6.147  17.160  0.00  0.00    +0.000 C 
BRANCH  13  14
ATOM     14  N   UNL     1       4.157   5.064  17.603  0.00  0.00    +0.000 NA
BRANCH  14  16
ATOM     15  C   UNL     1       5.485   3.968  15.696  0.00  0.00    +0.000 C 
ATOM     16  C   UNL     1       4.376   3.879  16.742  0.00  0.00    +0.000 C 
ENDBRANCH  14  16
BRANCH  14  17
ATOM     17  C   UNL     1       4.285   4.777  19.042  0.00  0.00    +0.000 C 
ATOM     18  C   UNL     1       3.091   5.155  19.913  0.00  0.00    +0.000 C 
ENDBRANCH  14  17
ENDBRANCH  13  14
ENDBRANCH  12  13
ENDBRANCH   1  12
TORSDOF 7
ENDMDL
MODEL 9
REMARK VINA RESULT:      -6.0      6.319      8.257
REMARK  Name = 
REMARK  9 active torsions:
REMARK  status: ('A' for Active; 'I' for Inactive)
REMARK    1  A    between atoms: C_1  and  C_2
REMARK    2  A    between atoms: C_2  and  N_3
REMARK    3  A    between atoms: N_3  and  C_4
REMARK    4  A    between atoms: N_3  and  C_6
REMARK    5  A    between atoms: C_4  and  C_5
REMARK    6  A    between atoms: C_6  and  C_7
REMARK    7  A    between atoms: C_7  and  C_8
REMARK    8  A    between atoms: C_8  and  C_10
REMARK    9  A    between atoms: C_11  and  C_12
REMARK                            x       y       z     vdW  Elec       q    Type
REMARK                         _______ _______ _______ _____ _____    ______ ____
ROOT
ATOM      1  C   UNL     1       7.509   6.432  17.547  0.00  0.00    +0.000 C 
ATOM      2  O   UNL     1       7.400   6.432  16.312  0.00  0.00    +0.000 OA
ENDROOT
BRANCH   1   3
ATOM      3  C   UNL     1       8.097   7.603  18.269  0.00  0.00    +0.000 C 
ATOM      4  C   UNL     1       8.136   8.809  17.685  0.00  0.00    +0.000 C 
BRANCH   4   5
ATOM      5  C   UNL     1       8.655  10.018  18.326  0.00  0.00    +0.000 A 
ATOM      6  C   UNL     1       8.591  11.286  17.722  0.00  0.00    +0.000 A 
ATOM      7  C   UNL     1       9.095  12.407  18.378  0.00  0.00    +0.000 A 
ATOM      8  C   UNL     1       9.655  12.282  19.645  0.00  0.00    +0.000 A 
ATOM      9 CL   UNL     1      10.280  13.666  20.450  0.00  0.00    +0.000 Cl
ATOM     10  C   UNL     1       9.708  11.036  20.269  0.00  0.00    +0.000 A 
ATOM     11  C   UNL     1       9.205   9.913  19.612  0.00  0.00    +0.000 A 
ENDBRANCH   4   5
ENDBRANCH   1   3
BRANCH   1  12
ATOM     12  C   UNL     1       7.051   5.276  18.400  0.00  0.00    +0.000 C 
BRANCH  12  13
ATOM     13  C   UNL     1       5.837   5.651  19.255  0.00  0.00    +0.000 C 
BRANCH  13  14
ATOM     14  N   UNL     1       4.549   5.053  18.817  0.00  0.00    +0.000 NA
BRANCH  14  16
ATOM     15  C   UNL     1       3.222   7.087  17.975  0.00  0.00    +0.000 C 
ATOM     16  C   UNL     1       4.035   5.832  17.665  0.00  0.00    +0.000 C 
ENDBRANCH  14  16
BRANCH  14  17
ATOM     17  C   UNL     1       4.665   3.611  18.546  0.00  0.00    +0.000 C 
ATOM     18  C   UNL     1       4.366   2.679  19.716  0.00  0.00    +0.000 C 
ENDBRANCH  14  17
ENDBRANCH  13  14
ENDBRANCH  12  13
ENDBRANCH   1  12
TORSDOF 7
ENDMDL
