MODEL 1
REMARK VINA RESULT:      -9.1      0.000      0.000
REMARK  Name = 
REMARK  8 active torsions:
REMARK  status: ('A' for Active; 'I' for Inactive)
REMARK    1  A    between atoms: C_1  and  C_2
REMARK    2  A    between atoms: C_8  and  O_9
REMARK    3  A    between atoms: C_16  and  N_17
REMARK    4  A    between atoms: C_18  and  C_20
REMARK    5  A    between atoms: C_20  and  C_21
REMARK    6  A    between atoms: C_20  and  C_22
REMARK    7  A    between atoms: C_20  and  O_23
REMARK    8  A    between atoms: O_23  and  C_24
REMARK                            x       y       z     vdW  Elec       q    Type
REMARK                         _______ _______ _______ _____ _____    ______ ____
ROOT
ATOM      1  C   UNL     1      -0.076   9.018  22.397  0.00  0.00    +0.000 C 
ATOM      2  C   UNL     1       0.247   9.709  21.105  0.00  0.00    +0.000 A 
ATOM      3  N   UNL     1      -0.233  10.961  20.985  0.00  0.00    +0.000 NA
ATOM      4  C   UNL     1      -0.019  11.628  19.842  0.00  0.00    +0.000 A 
ATOM      5  N   UNL     1      -0.550  12.884  19.718  0.00  0.00    +0.000 N 
ATOM      6  C   UNL     1      -1.247  13.511  20.829  0.00  0.00    +0.000 C 
ATOM      7  C   UNL     1      -0.542  14.815  21.192  0.00  0.00    +0.000 C 
ATOM      8  C   UNL     1      -0.328  15.710  19.972  0.00  0.00    +0.000 C 
ATOM      9  C   UNL     1       0.321  14.963  18.805  0.00  0.00    +0.000 C 
ATOM     10  C   UNL     1      -0.395  13.651  18.491  0.00  0.00    +0.000 C 
ATOM     11  N   UNL     1       0.679  11.097  18.828  0.00  0.00    +0.000 NA
ATOM     12  C   UNL     1       1.172   9.861  18.955  0.00  0.00    +0.000 A 
ATOM     13  C   UNL     1       1.909   9.307  17.917  0.00  0.00    +0.000 A 
ATOM     14  C   UNL     1       2.446   8.016  17.990  0.00  0.00    +0.000 A 
ATOM     15  C   UNL     1       2.250   7.239  19.127  0.00  0.00    +0.000 A 
ATOM     16  C   UNL     1       1.500   7.772  20.172  0.00  0.00    +0.000 A 
ATOM     17  C   UNL     1       0.976   9.085  20.097  0.00  0.00    +0.000 A 
ENDROOT
BRANCH  15  18
ATOM     18  N   UNL     1       2.750   5.930  19.281  0.00  0.00    +0.000 N 
ATOM     19  C   UNL     1       2.364   4.806  18.563  0.00  0.00    +0.000 C 
ATOM     20  O   UNL     1       1.575   4.849  17.614  0.00  0.00    +0.000 OA
ATOM     21  H   UNL     1       3.524   5.841  19.923  0.00  0.00    +0.000 HD
BRANCH  19  22
ATOM     22  C   UNL     1       3.039   3.452  18.976  0.00  0.00    +0.000 C 
ATOM     23  C   UNL     1       3.425   3.499  20.469  0.00  0.00    +0.000 C 
ATOM     24  C   UNL     1       1.980   2.364  18.671  0.00  0.00    +0.000 C 
BRANCH  22  25
ATOM     25  O   UNL     1       4.191   3.344  18.118  0.00  0.00    +0.000 OA
BRANCH  25  26
ATOM     26  C   UNL     1       5.107   4.370  17.996  0.00  0.00    +0.000 A 
ATOM     27  C   UNL     1       6.053   4.715  18.952  0.00  0.00    +0.000 A 
ATOM     28  C   UNL     1       6.892   5.821  18.785  0.00  0.00    +0.000 A 
ATOM     29  C   UNL     1       6.809   6.571  17.627  0.00  0.00    +0.000 A 
ATOM     30 CL   UNL     1       7.839   7.935  17.436  0.00  0.00    +0.000 Cl
ATOM     31  C   UNL     1       5.902   6.220  16.632  0.00  0.00    +0.000 A 
ATOM     32  C   UNL     1       5.042   5.117  16.821  0.00  0.00    +0.000 A 
ENDBRANCH  25  26
ENDBRANCH  22  25
ENDBRANCH  19  22
ENDBRANCH  15  18
BRANCH   8  33
ATOM     33  O   UNL     1      -1.562  16.302  19.564  0.00  0.00    +0.000 OA
ATOM     34  H   UNL     1      -1.722  17.097  20.098  0.00  0.00    +0.000 HD
ENDBRANCH   8  33
TORSDOF 5
ENDMDL
MODEL 2
REMARK VINA RESULT:      -9.1      1.040      1.373
REMARK  Name = 
REMARK  8 active torsions:
REMARK  status: ('A' for Active; 'I' for Inactive)
REMARK    1  A    between atoms: C_1  and  C_2
REMARK    2  A    between atoms: C_8  and  O_9
REMARK    3  A    between atoms: C_16  and  N_17
REMARK    4  A    between atoms: C_18  and  C_20
REMARK    5  A    between atoms: C_20  and  C_21
REMARK    6  A    between atoms: C_20  and  C_22
REMARK    7  A    between atoms: C_20  and  O_23
REMARK    8  A    between atoms: O_23  and  C_24
REMARK                            x       y       z     vdW  Elec       q    Type
REMARK                         _______ _______ _______ _____ _____    ______ ____
ROOT
ATOM      1  C   UNL     1      -0.364   9.190  22.645  0.00  0.00    +0.000 C 
ATOM      2  C   UNL     1       0.049   9.797  21.337  0.00  0.00    +0.000 A 
ATOM      3  N   UNL     1      -0.415  11.039  21.105  0.00  0.00    +0.000 NA
ATOM      4  C   UNL     1      -0.121  11.631  19.938  0.00  0.00    +0.000 A 
ATOM      5  N   UNL     1      -0.634  12.877  19.699  0.00  0.00    +0.000 N 
ATOM      6  C   UNL     1      -1.402  13.575  20.718  0.00  0.00    +0.000 C 
ATOM      7  C   UNL     1      -0.715  14.899  21.044  0.00  0.00    +0.000 C 
ATOM      8  C   UNL     1      -0.414  15.713  19.786  0.00  0.00    +0.000 C 
ATOM      9  C   UNL     1       0.308  14.892  18.716  0.00  0.00    +0.000 C 
ATOM     10  C   UNL     1      -0.392  13.563  18.439  0.00  0.00    +0.000 C 
ATOM     11  N   UNL     1       0.642  11.035  19.010  0.00  0.00    +0.000 NA
ATOM     12  C   UNL     1       1.118   9.809  19.249  0.00  0.00    +0.000 A 
ATOM     13  C   UNL     1       1.920   9.189  18.301  0.00  0.00    +0.000 A 
ATOM     14  C   UNL     1       2.444   7.905  18.493  0.00  0.00    +0.000 A 
ATOM     15  C   UNL     1       2.167   7.202  19.661  0.00  0.00    +0.000 A 
ATOM     16  C   UNL     1       1.352   7.802  20.616  0.00  0.00    +0.000 A 
ATOM     17  C   UNL     1       0.841   9.108  20.422  0.00  0.00    +0.000 A 
ENDROOT
BRANCH  15  18
ATOM     18  N   UNL     1       2.648   5.905  19.932  0.00  0.00    +0.000 N 
ATOM     19  C   UNL     1       2.265   4.731  19.298  0.00  0.00    +0.000 C 
ATOM     20  O   UNL     1       1.498   4.704  18.331  0.00  0.00    +0.000 OA
ATOM     21  H   UNL     1       3.407   5.861  20.597  0.00  0.00    +0.000 HD
BRANCH  19  22
ATOM     22  C   UNL     1       2.915   3.407  19.835  0.00  0.00    +0.000 C 
ATOM     23  C   UNL     1       2.486   3.176  21.299  0.00  0.00    +0.000 C 
ATOM     24  C   UNL     1       2.407   2.295  18.886  0.00  0.00    +0.000 C 
BRANCH  22  25
ATOM     25  O   UNL     1       4.334   3.623  19.709  0.00  0.00    +0.000 OA
BRANCH  25  26
ATOM     26  C   UNL     1       4.917   3.944  18.499  0.00  0.00    +0.000 A 
ATOM     27  C   UNL     1       4.455   3.534  17.255  0.00  0.00    +0.000 A 
ATOM     28  C   UNL     1       5.150   3.837  16.081  0.00  0.00    +0.000 A 
ATOM     29  C   UNL     1       6.305   4.593  16.148  0.00  0.00    +0.000 A 
ATOM     30 CL   UNL     1       7.158   4.951  14.698  0.00  0.00    +0.000 Cl
ATOM     31  C   UNL     1       6.765   5.056  17.376  0.00  0.00    +0.000 A 
ATOM     32  C   UNL     1       6.070   4.724  18.559  0.00  0.00    +0.000 A 
ENDBRANCH  25  26
ENDBRANCH  22  25
ENDBRANCH  19  22
ENDBRANCH  15  18
BRANCH   8  33
ATOM     33  O   UNL     1      -1.614  16.279  19.258  0.00  0.00    +0.000 OA
ATOM     34  H   UNL     1      -2.200  15.561  18.967  0.00  0.00    +0.000 HD
ENDBRANCH   8  33
TORSDOF 5
ENDMDL
MODEL 3
REMARK VINA RESULT:      -8.9      1.146      1.379
REMARK  Name = 
REMARK  8 active torsions:
REMARK  status: ('A' for Active; 'I' for Inactive)
REMARK    1  A    between atoms: C_1  and  C_2
REMARK    2  A    between atoms: C_8  and  O_9
REMARK    3  A    between atoms: C_16  and  N_17
REMARK    4  A    between atoms: C_18  and  C_20
REMARK    5  A    between atoms: C_20  and  C_21
REMARK    6  A    between atoms: C_20  and  C_22
REMARK    7  A    between atoms: C_20  and  O_23
REMARK    8  A    between atoms: O_23  and  C_24
REMARK                            x       y       z     vdW  Elec       q    Type
REMARK                         _______ _______ _______ _____ _____    ______ ____
ROOT
ATOM      1  C   UNL     1      -0.458   9.439  22.949  0.00  0.00    +0.000 C 
ATOM      2  C   UNL     1      -0.035   9.951  21.604  0.00  0.00    +0.000 A 
ATOM      3  N   UNL     1      -0.435  11.202  21.310  0.00  0.00    +0.000 NA
ATOM      4  C   UNL     1      -0.130  11.713  20.109  0.00  0.00    +0.000 A 
ATOM      5  N   UNL     1      -0.580  12.970  19.809  0.00  0.00    +0.000 N 
ATOM      6  C   UNL     1      -1.292  13.763  20.798  0.00  0.00    +0.000 C 
ATOM      7  C   UNL     1      -0.530  15.064  21.042  0.00  0.00    +0.000 C 
ATOM      8  C   UNL     1      -0.207  15.791  19.737  0.00  0.00    +0.000 C 
ATOM      9  C   UNL     1       0.452  14.875  18.704  0.00  0.00    +0.000 C 
ATOM     10  C   UNL     1      -0.323  13.574  18.510  0.00  0.00    +0.000 C 
ATOM     11  N   UNL     1       0.584  11.028  19.204  0.00  0.00    +0.000 NA
ATOM     12  C   UNL     1       0.997   9.792  19.503  0.00  0.00    +0.000 A 
ATOM     13  C   UNL     1       1.749   9.079  18.580  0.00  0.00    +0.000 A 
ATOM     14  C   UNL     1       2.206   7.781  18.834  0.00  0.00    +0.000 A 
ATOM     15  C   UNL     1       1.912   7.158  20.043  0.00  0.00    +0.000 A 
ATOM     16  C   UNL     1       1.147   7.853  20.975  0.00  0.00    +0.000 A 
ATOM     17  C   UNL     1       0.703   9.172  20.717  0.00  0.00    +0.000 A 
ENDROOT
BRANCH  15  18
ATOM     18  N   UNL     1       2.328   5.854  20.378  0.00  0.00    +0.000 N 
ATOM     19  C   UNL     1       1.994   4.682  19.712  0.00  0.00    +0.000 C 
ATOM     20  O   UNL     1       1.344   4.662  18.663  0.00  0.00    +0.000 OA
ATOM     21  H   UNL     1       3.003   5.799  21.127  0.00  0.00    +0.000 HD
BRANCH  19  22
ATOM     22  C   UNL     1       2.545   3.349  20.332  0.00  0.00    +0.000 C 
ATOM     23  C   UNL     1       2.232   3.311  21.841  0.00  0.00    +0.000 C 
ATOM     24  C   UNL     1       1.836   2.218  19.549  0.00  0.00    +0.000 C 
BRANCH  22  25
ATOM     25  O   UNL     1       3.961   3.386  20.068  0.00  0.00    +0.000 OA
BRANCH  25  26
ATOM     26  C   UNL     1       4.472   3.925  18.904  0.00  0.00    +0.000 A 
ATOM     27  C   UNL     1       5.168   5.123  18.815  0.00  0.00    +0.000 A 
ATOM     28  C   UNL     1       5.582   5.639  17.583  0.00  0.00    +0.000 A 
ATOM     29  C   UNL     1       5.328   4.927  16.426  0.00  0.00    +0.000 A 
ATOM     30 CL   UNL     1       5.834   5.575  14.915  0.00  0.00    +0.000 Cl
ATOM     31  C   UNL     1       4.674   3.701  16.491  0.00  0.00    +0.000 A 
ATOM     32  C   UNL     1       4.237   3.201  17.737  0.00  0.00    +0.000 A 
ENDBRANCH  25  26
ENDBRANCH  22  25
ENDBRANCH  19  22
ENDBRANCH  15  18
BRANCH   8  33
ATOM     33  O   UNL     1      -1.384  16.392  19.196  0.00  0.00    +0.000 OA
ATOM     34  H   UNL     1      -1.142  16.907  18.409  0.00  0.00    +0.000 HD
ENDBRANCH   8  33
TORSDOF 5
ENDMDL
MODEL 4
REMARK VINA RESULT:      -8.8      2.268      3.248
REMARK  Name = 
REMARK  8 active torsions:
REMARK  status: ('A' for Active; 'I' for Inactive)
REMARK    1  A    between atoms: C_1  and  C_2
REMARK    2  A    between atoms: C_8  and  O_9
REMARK    3  A    between atoms: C_16  and  N_17
REMARK    4  A    between atoms: C_18  and  C_20
REMARK    5  A    between atoms: C_20  and  C_21
REMARK    6  A    between atoms: C_20  and  C_22
REMARK    7  A    between atoms: C_20  and  O_23
REMARK    8  A    between atoms: O_23  and  C_24
REMARK                            x       y       z     vdW  Elec       q    Type
REMARK                         _______ _______ _______ _____ _____    ______ ____
ROOT
ATOM      1  C   UNL     1      -1.101  10.539  18.025  0.00  0.00    +0.000 C 
ATOM      2  C   UNL     1      -0.924  10.711  19.504  0.00  0.00    +0.000 A 
ATOM      3  N   UNL     1      -1.646  11.702  20.060  0.00  0.00    +0.000 NA
ATOM      4  C   UNL     1      -1.509  11.943  21.372  0.00  0.00    +0.000 A 
ATOM      5  N   UNL     1      -2.217  12.981  21.915  0.00  0.00    +0.000 N 
ATOM      6  C   UNL     1      -3.159  13.742  21.110  0.00  0.00    +0.000 C 
ATOM      7  C   UNL     1      -4.549  13.642  21.734  0.00  0.00    +0.000 C 
ATOM      8  C   UNL     1      -4.535  13.991  23.222  0.00  0.00    +0.000 C 
ATOM      9  C   UNL     1      -3.456  13.228  23.993  0.00  0.00    +0.000 C 
ATOM     10  C   UNL     1      -2.088  13.328  23.322  0.00  0.00    +0.000 C 
ATOM     11  N   UNL     1      -0.698  11.212  22.150  0.00  0.00    +0.000 NA
ATOM     12  C   UNL     1       0.005  10.215  21.601  0.00  0.00    +0.000 A 
ATOM     13  C   UNL     1       0.836   9.442  22.399  0.00  0.00    +0.000 A 
ATOM     14  C   UNL     1       1.599   8.390  21.881  0.00  0.00    +0.000 A 
ATOM     15  C   UNL     1       1.543   8.085  20.524  0.00  0.00    +0.000 A 
ATOM     16  C   UNL     1       0.726   8.859  19.706  0.00  0.00    +0.000 A 
ATOM     17  C   UNL     1      -0.056   9.911  20.241  0.00  0.00    +0.000 A 
ENDROOT
BRANCH  15  18
ATOM     18  N   UNL     1       2.281   7.047  19.920  0.00  0.00    +0.000 N 
ATOM     19  C   UNL     1       2.079   5.683  20.084  0.00  0.00    +0.000 C 
ATOM     20  O   UNL     1       1.140   5.212  20.732  0.00  0.00    +0.000 OA
ATOM     21  H   UNL     1       2.963   7.348  19.239  0.00  0.00    +0.000 HD
BRANCH  19  22
ATOM     22  C   UNL     1       3.085   4.737  19.339  0.00  0.00    +0.000 C 
ATOM     23  C   UNL     1       3.377   3.500  20.213  0.00  0.00    +0.000 C 
ATOM     24  C   UNL     1       2.385   4.372  18.008  0.00  0.00    +0.000 C 
BRANCH  22  25
ATOM     25  O   UNL     1       4.258   5.547  19.131  0.00  0.00    +0.000 OA
BRANCH  25  26
ATOM     26  C   UNL     1       4.968   5.511  17.946  0.00  0.00    +0.000 A 
ATOM     27  C   UNL     1       4.668   6.254  16.812  0.00  0.00    +0.000 A 
ATOM     28  C   UNL     1       5.389   6.098  15.625  0.00  0.00    +0.000 A 
ATOM     29  C   UNL     1       6.451   5.214  15.582  0.00  0.00    +0.000 A 
ATOM     30 CL   UNL     1       7.326   5.025  14.114  0.00  0.00    +0.000 Cl
ATOM     31  C   UNL     1       6.802   4.492  16.718  0.00  0.00    +0.000 A 
ATOM     32  C   UNL     1       6.052   4.637  17.905  0.00  0.00    +0.000 A 
ENDBRANCH  25  26
ENDBRANCH  22  25
ENDBRANCH  19  22
ENDBRANCH  15  18
BRANCH   8  33
ATOM     33  O   UNL     1      -4.378  15.399  23.403  0.00  0.00    +0.000 OA
ATOM     34  H   UNL     1      -3.451  15.588  23.624  0.00  0.00    +0.000 HD
ENDBRANCH   8  33
TORSDOF 5
ENDMDL
MODEL 5
REMARK VINA RESULT:      -8.8      0.571      1.021
REMARK  Name = 
REMARK  8 active torsions:
REMARK  status: ('A' for Active; 'I' for Inactive)
REMARK    1  A    between atoms: C_1  and  C_2
REMARK    2  A    between atoms: C_8  and  O_9
REMARK    3  A    between atoms: C_16  and  N_17
REMARK    4  A    between atoms: C_18  and  C_20
REMARK    5  A    between atoms: C_20  and  C_21
REMARK    6  A    between atoms: C_20  and  C_22
REMARK    7  A    between atoms: C_20  and  O_23
REMARK    8  A    between atoms: O_23  and  C_24
REMARK                            x       y       z     vdW  Elec       q    Type
REMARK                         _______ _______ _______ _____ _____    ______ ____
ROOT
ATOM      1  C   UNL     1       0.777   9.266  22.791  0.00  0.00    +0.000 C 
ATOM      2  C   UNL     1       0.867   9.848  21.411  0.00  0.00    +0.000 A 
ATOM      3  N   UNL     1       0.486  11.134  21.301  0.00  0.00    +0.000 NA
ATOM      4  C   UNL     1       0.501  11.711  20.091  0.00  0.00    +0.000 A 
ATOM      5  N   UNL     1       0.071  13.006  19.988  0.00  0.00    +0.000 N 
ATOM      6  C   UNL     1      -0.305  13.763  21.172  0.00  0.00    +0.000 C 
ATOM      7  C   UNL     1       0.577  15.005  21.274  0.00  0.00    +0.000 C 
ATOM      8  C   UNL     1       0.596  15.804  19.971  0.00  0.00    +0.000 C 
ATOM      9  C   UNL     1       0.900  14.930  18.753  0.00  0.00    +0.000 C 
ATOM     10  C   UNL     1       0.019  13.684  18.702  0.00  0.00    +0.000 C 
ATOM     11  N   UNL     1       0.907  11.056  18.995  0.00  0.00    +0.000 NA
ATOM     12  C   UNL     1       1.303   9.783  19.107  0.00  0.00    +0.000 A 
ATOM     13  C   UNL     1       1.740   9.099  17.981  0.00  0.00    +0.000 A 
ATOM     14  C   UNL     1       2.162   7.766  18.036  0.00  0.00    +0.000 A 
ATOM     15  C   UNL     1       2.154   7.077  19.245  0.00  0.00    +0.000 A 
ATOM     16  C   UNL     1       1.704   7.742  20.382  0.00  0.00    +0.000 A 
ATOM     17  C   UNL     1       1.296   9.097  20.321  0.00  0.00    +0.000 A 
ENDROOT
BRANCH  15  18
ATOM     18  N   UNL     1       2.556   5.734  19.388  0.00  0.00    +0.000 N 
ATOM     19  C   UNL     1       2.141   4.658  18.614  0.00  0.00    +0.000 C 
ATOM     20  O   UNL     1       1.415   4.779  17.622  0.00  0.00    +0.000 OA
ATOM     21  H   UNL     1       3.282   5.576  20.071  0.00  0.00    +0.000 HD
BRANCH  19  22
ATOM     22  C   UNL     1       2.699   3.250  19.024  0.00  0.00    +0.000 C 
ATOM     23  C   UNL     1       2.968   3.222  20.543  0.00  0.00    +0.000 C 
ATOM     24  C   UNL     1       1.605   2.243  18.596  0.00  0.00    +0.000 C 
BRANCH  22  25
ATOM     25  O   UNL     1       3.907   3.100  18.253  0.00  0.00    +0.000 OA
BRANCH  25  26
ATOM     26  C   UNL     1       4.758   4.163  18.018  0.00  0.00    +0.000 A 
ATOM     27  C   UNL     1       4.818   4.893  16.839  0.00  0.00    +0.000 A 
ATOM     28  C   UNL     1       5.765   5.904  16.653  0.00  0.00    +0.000 A 
ATOM     29  C   UNL     1       6.642   6.214  17.675  0.00  0.00    +0.000 A 
ATOM     30 CL   UNL     1       7.809   7.454  17.432  0.00  0.00    +0.000 Cl
ATOM     31  C   UNL     1       6.573   5.530  18.884  0.00  0.00    +0.000 A 
ATOM     32  C   UNL     1       5.629   4.493  19.054  0.00  0.00    +0.000 A 
ENDBRANCH  25  26
ENDBRANCH  22  25
ENDBRANCH  19  22
ENDBRANCH  15  18
BRANCH   8  33
ATOM     33  O   UNL     1      -0.640  16.497  19.794  0.00  0.00    +0.000 OA
ATOM     34  H   UNL     1      -1.188  16.373  20.586  0.00  0.00    +0.000 HD
ENDBRANCH   8  33
TORSDOF 5
ENDMDL
MODEL 6
REMARK VINA RESULT:      -8.4      2.418      3.554
REMARK  Name = 
REMARK  8 active torsions:
REMARK  status: ('A' for Active; 'I' for Inactive)
REMARK    1  A    between atoms: C_1  and  C_2
REMARK    2  A    between atoms: C_8  and  O_9
REMARK    3  A    between atoms: C_16  and  N_17
REMARK    4  A    between atoms: C_18  and  C_20
REMARK    5  A    between atoms: C_20  and  C_21
REMARK    6  A    between atoms: C_20  and  C_22
REMARK    7  A    between atoms: C_20  and  O_23
REMARK    8  A    between atoms: O_23  and  C_24
REMARK                            x       y       z     vdW  Elec       q    Type
REMARK                         _______ _______ _______ _____ _____    ______ ____
ROOT
ATOM      1  C   UNL     1      -1.382  10.793  18.310  0.00  0.00    +0.000 C 
ATOM      2  C   UNL     1      -1.212  11.100  19.769  0.00  0.00    +0.000 A 
ATOM      3  N   UNL     1      -1.858  12.197  20.206  0.00  0.00    +0.000 NA
ATOM      4  C   UNL     1      -1.721  12.559  21.490  0.00  0.00    +0.000 A 
ATOM      5  N   UNL     1      -2.350  13.700  21.910  0.00  0.00    +0.000 N 
ATOM      6  C   UNL     1      -3.214  14.449  21.012  0.00  0.00    +0.000 C 
ATOM      7  C   UNL     1      -4.616  14.524  21.612  0.00  0.00    +0.000 C 
ATOM      8  C   UNL     1      -4.595  15.021  23.057  0.00  0.00    +0.000 C 
ATOM      9  C   UNL     1      -3.594  14.256  23.924  0.00  0.00    +0.000 C 
ATOM     10  C   UNL     1      -2.212  14.177  23.278  0.00  0.00    +0.000 C 
ATOM     11  N   UNL     1      -0.984  11.848  22.355  0.00  0.00    +0.000 NA
ATOM     12  C   UNL     1      -0.358  10.747  21.925  0.00  0.00    +0.000 A 
ATOM     13  C   UNL     1       0.396   9.995  22.815  0.00  0.00    +0.000 A 
ATOM     14  C   UNL     1       1.077   8.838  22.422  0.00  0.00    +0.000 A 
ATOM     15  C   UNL     1       1.016   8.402  21.102  0.00  0.00    +0.000 A 
ATOM     16  C   UNL     1       0.277   9.152  20.192  0.00  0.00    +0.000 A 
ATOM     17  C   UNL     1      -0.424  10.312  20.602  0.00  0.00    +0.000 A 
ENDROOT
BRANCH  15  18
ATOM     18  N   UNL     1       1.675   7.252  20.622  0.00  0.00    +0.000 N 
ATOM     19  C   UNL     1       2.346   7.127  19.413  0.00  0.00    +0.000 C 
ATOM     20  O   UNL     1       2.522   8.070  18.636  0.00  0.00    +0.000 OA
ATOM     21  H   UNL     1       1.724   6.484  21.275  0.00  0.00    +0.000 HD
BRANCH  19  22
ATOM     22  C   UNL     1       2.944   5.712  19.093  0.00  0.00    +0.000 C 
ATOM     23  C   UNL     1       2.855   4.816  20.346  0.00  0.00    +0.000 C 
ATOM     24  C   UNL     1       2.096   5.172  17.916  0.00  0.00    +0.000 C 
BRANCH  22  25
ATOM     25  O   UNL     1       4.307   5.974  18.705  0.00  0.00    +0.000 OA
BRANCH  25  26
ATOM     26  C   UNL     1       4.811   5.554  17.489  0.00  0.00    +0.000 A 
ATOM     27  C   UNL     1       4.970   6.359  16.369  0.00  0.00    +0.000 A 
ATOM     28  C   UNL     1       5.413   5.836  15.151  0.00  0.00    +0.000 A 
ATOM     29  C   UNL     1       5.738   4.496  15.061  0.00  0.00    +0.000 A 
ATOM     30 CL   UNL     1       6.274   3.861  13.555  0.00  0.00    +0.000 Cl
ATOM     31  C   UNL     1       5.633   3.677  16.181  0.00  0.00    +0.000 A 
ATOM     32  C   UNL     1       5.161   4.208  17.401  0.00  0.00    +0.000 A 
ENDBRANCH  25  26
ENDBRANCH  22  25
ENDBRANCH  19  22
ENDBRANCH  15  18
BRANCH   8  33
ATOM     33  O   UNL     1      -4.326  16.423  23.099  0.00  0.00    +0.000 OA
ATOM     34  H   UNL     1      -3.621  16.589  23.746  0.00  0.00    +0.000 HD
ENDBRANCH   8  33
TORSDOF 5
ENDMDL
MODEL 7
REMARK VINA RESULT:      -8.4      1.408      2.412
REMARK  Name = 
REMARK  8 active torsions:
REMARK  status: ('A' for Active; 'I' for Inactive)
REMARK    1  A    between atoms: C_1  and  C_2
REMARK    2  A    between atoms: C_8  and  O_9
REMARK    3  A    between atoms: C_16  and  N_17
REMARK    4  A    between atoms: C_18  and  C_20
REMARK    5  A    between atoms: C_20  and  C_21
REMARK    6  A    between atoms: C_20  and  C_22
REMARK    7  A    between atoms: C_20  and  O_23
REMARK    8  A    between atoms: O_23  and  C_24
REMARK                            x       y       z     vdW  Elec       q    Type
REMARK                         _______ _______ _______ _____ _____    ______ ____
ROOT
ATOM      1  C   UNL     1       2.122  10.291  17.756  0.00  0.00    +0.000 C 
ATOM      2  C   UNL     1       1.423  10.029  19.056  0.00  0.00    +0.000 A 
ATOM      3  N   UNL     1       0.737  11.070  19.563  0.00  0.00    +0.000 NA
ATOM      4  C   UNL     1       0.120  10.923  20.744  0.00  0.00    +0.000 A 
ATOM      5  N   UNL     1      -0.538  12.003  21.267  0.00  0.00    +0.000 N 
ATOM      6  C   UNL     1      -0.640  13.247  20.521  0.00  0.00    +0.000 C 
ATOM      7  C   UNL     1      -2.114  13.583  20.305  0.00  0.00    +0.000 C 
ATOM      8  C   UNL     1      -2.909  13.542  21.609  0.00  0.00    +0.000 C 
ATOM      9  C   UNL     1      -2.680  12.248  22.393  0.00  0.00    +0.000 C 
ATOM     10  C   UNL     1      -1.196  11.931  22.564  0.00  0.00    +0.000 C 
ATOM     11  N   UNL     1       0.142   9.766  21.420  0.00  0.00    +0.000 NA
ATOM     12  C   UNL     1       0.807   8.726  20.907  0.00  0.00    +0.000 A 
ATOM     13  C   UNL     1       0.825   7.518  21.591  0.00  0.00    +0.000 A 
ATOM     14  C   UNL     1       1.507   6.397  21.107  0.00  0.00    +0.000 A 
ATOM     15  C   UNL     1       2.201   6.465  19.903  0.00  0.00    +0.000 A 
ATOM     16  C   UNL     1       2.208   7.672  19.210  0.00  0.00    +0.000 A 
ATOM     17  C   UNL     1       1.499   8.796  19.699  0.00  0.00    +0.000 A 
ENDROOT
BRANCH  15  18
ATOM     18  N   UNL     1       2.919   5.386  19.346  0.00  0.00    +0.000 N 
ATOM     19  C   UNL     1       2.483   4.532  18.341  0.00  0.00    +0.000 C 
ATOM     20  O   UNL     1       1.415   4.685  17.741  0.00  0.00    +0.000 OA
ATOM     21  H   UNL     1       3.872   5.298  19.665  0.00  0.00    +0.000 HD
BRANCH  19  22
ATOM     22  C   UNL     1       3.460   3.370  17.945  0.00  0.00    +0.000 C 
ATOM     23  C   UNL     1       4.355   3.012  19.149  0.00  0.00    +0.000 C 
ATOM     24  C   UNL     1       2.541   2.200  17.518  0.00  0.00    +0.000 C 
BRANCH  22  25
ATOM     25  O   UNL     1       4.218   3.896  16.838  0.00  0.00    +0.000 OA
BRANCH  25  26
ATOM     26  C   UNL     1       5.186   4.867  17.014  0.00  0.00    +0.000 A 
ATOM     27  C   UNL     1       6.473   4.637  17.481  0.00  0.00    +0.000 A 
ATOM     28  C   UNL     1       7.367   5.687  17.707  0.00  0.00    +0.000 A 
ATOM     29  C   UNL     1       6.981   6.984  17.426  0.00  0.00    +0.000 A 
ATOM     30 CL   UNL     1       8.085   8.270  17.716  0.00  0.00    +0.000 Cl
ATOM     31  C   UNL     1       5.713   7.238  16.912  0.00  0.00    +0.000 A 
ATOM     32  C   UNL     1       4.808   6.173  16.711  0.00  0.00    +0.000 A 
ENDBRANCH  25  26
ENDBRANCH  22  25
ENDBRANCH  19  22
ENDBRANCH  15  18
BRANCH   8  33
ATOM     33  O   UNL     1      -2.601  14.678  22.418  0.00  0.00    +0.000 OA
ATOM     34  H   UNL     1      -2.317  14.374  23.295  0.00  0.00    +0.000 HD
ENDBRANCH   8  33
TORSDOF 5
ENDMDL
MODEL 8
REMARK VINA RESULT:      -8.3      1.974      2.446
REMARK  Name = 
REMARK  8 active torsions:
REMARK  status: ('A' for Active; 'I' for Inactive)
REMARK    1  A    between atoms: C_1  and  C_2
REMARK    2  A    between atoms: C_8  and  O_9
REMARK    3  A    between atoms: C_16  and  N_17
REMARK    4  A    between atoms: C_18  and  C_20
REMARK    5  A    between atoms: C_20  and  C_21
REMARK    6  A    between atoms: C_20  and  C_22
REMARK    7  A    between atoms: C_20  and  O_23
REMARK    8  A    between atoms: O_23  and  C_24
REMARK                            x       y       z     vdW  Elec       q    Type
REMARK                         _______ _______ _______ _____ _____    ______ ____
ROOT
ATOM      1  C   UNL     1       0.165   9.326  23.433  0.00  0.00    +0.000 C 
ATOM      2  C   UNL     1       0.091  10.348  22.338  0.00  0.00    +0.000 A 
ATOM      3  N   UNL     1      -0.465  11.525  22.683  0.00  0.00    +0.000 NA
ATOM      4  C   UNL     1      -0.603  12.474  21.746  0.00  0.00    +0.000 A 
ATOM      5  N   UNL     1      -1.209  13.649  22.102  0.00  0.00    +0.000 N 
ATOM      6  C   UNL     1      -1.609  13.894  23.478  0.00  0.00    +0.000 C 
ATOM      7  C   UNL     1      -0.897  15.143  23.993  0.00  0.00    +0.000 C 
ATOM      8  C   UNL     1      -1.067  16.330  23.046  0.00  0.00    +0.000 C 
ATOM      9  C   UNL     1      -0.723  15.977  21.597  0.00  0.00    +0.000 C 
ATOM     10  C   UNL     1      -1.431  14.708  21.129  0.00  0.00    +0.000 C 
ATOM     11  N   UNL     1      -0.181  12.297  20.486  0.00  0.00    +0.000 NA
ATOM     12  C   UNL     1       0.389  11.136  20.148  0.00  0.00    +0.000 A 
ATOM     13  C   UNL     1       0.843  10.947  18.851  0.00  0.00    +0.000 A 
ATOM     14  C   UNL     1       1.443   9.753  18.437  0.00  0.00    +0.000 A 
ATOM     15  C   UNL     1       1.602   8.701  19.334  0.00  0.00    +0.000 A 
ATOM     16  C   UNL     1       1.138   8.866  20.635  0.00  0.00    +0.000 A 
ATOM     17  C   UNL     1       0.549  10.085  21.050  0.00  0.00    +0.000 A 
ENDROOT
BRANCH  15  18
ATOM     18  N   UNL     1       2.189   7.464  18.999  0.00  0.00    +0.000 N 
ATOM     19  C   UNL     1       2.172   6.305  19.764  0.00  0.00    +0.000 C 
ATOM     20  O   UNL     1       1.541   6.202  20.820  0.00  0.00    +0.000 OA
ATOM     21  H   UNL     1       2.582   7.414  18.070  0.00  0.00    +0.000 HD
BRANCH  19  22
ATOM     22  C   UNL     1       2.957   5.077  19.184  0.00  0.00    +0.000 C 
ATOM     23  C   UNL     1       3.118   4.000  20.277  0.00  0.00    +0.000 C 
ATOM     24  C   UNL     1       2.109   4.586  17.986  0.00  0.00    +0.000 C 
BRANCH  22  25
ATOM     25  O   UNL     1       4.224   5.622  18.764  0.00  0.00    +0.000 OA
BRANCH  25  26
ATOM     26  C   UNL     1       4.788   5.298  17.546  0.00  0.00    +0.000 A 
ATOM     27  C   UNL     1       5.375   4.078  17.236  0.00  0.00    +0.000 A 
ATOM     28  C   UNL     1       5.996   3.859  16.003  0.00  0.00    +0.000 A 
ATOM     29  C   UNL     1       5.999   4.862  15.052  0.00  0.00    +0.000 A 
ATOM     30 CL   UNL     1       6.775   4.584  13.543  0.00  0.00    +0.000 Cl
ATOM     31  C   UNL     1       5.378   6.077  15.319  0.00  0.00    +0.000 A 
ATOM     32  C   UNL     1       4.774   6.299  16.576  0.00  0.00    +0.000 A 
ENDBRANCH  25  26
ENDBRANCH  22  25
ENDBRANCH  19  22
ENDBRANCH  15  18
BRANCH   8  33
ATOM     33  O   UNL     1      -2.393  16.853  23.133  0.00  0.00    +0.000 OA
ATOM     34  H   UNL     1      -2.457  17.422  23.917  0.00  0.00    +0.000 HD
ENDBRANCH   8  33
TORSDOF 5
ENDMDL
MODEL 9
REMARK VINA RESULT:      -8.1      2.292      3.560
REMARK  Name = 
REMARK  8 active torsions:
REMARK  status: ('A' for Active; 'I' for Inactive)
REMARK    1  A    between atoms: C_1  and  C_2
REMARK    2  A    between atoms: C_8  and  O_9
REMARK    3  A    between atoms: C_16  and  N_17
REMARK    4  A    between atoms: C_18  and  C_20
REMARK    5  A    between atoms: C_20  and  C_21
REMARK    6  A    between atoms: C_20  and  C_22
REMARK    7  A    between atoms: C_20  and  O_23
REMARK    8  A    between atoms: O_23  and  C_24
REMARK                            x       y       z     vdW  Elec       q    Type
REMARK                         _______ _______ _______ _____ _____    ______ ____
ROOT
ATOM      1  C   UNL     1       1.447  12.300  19.244  0.00  0.00    +0.000 C 
ATOM      2  C   UNL     1       0.674  12.133  20.518  0.00  0.00    +0.000 A 
ATOM      3  N   UNL     1       0.102  13.254  20.997  0.00  0.00    +0.000 NA
ATOM      4  C   UNL     1      -0.572  13.191  22.155  0.00  0.00    +0.000 A 
ATOM      5  N   UNL     1      -1.112  14.347  22.651  0.00  0.00    +0.000 N 
ATOM      6  C   UNL     1      -1.035  15.589  21.898  0.00  0.00    +0.000 C 
ATOM      7  C   UNL     1      -2.447  16.100  21.626  0.00  0.00    +0.000 C 
ATOM      8  C   UNL     1      -3.288  16.164  22.901  0.00  0.00    +0.000 C 
ATOM      9  C   UNL     1      -3.248  14.858  23.696  0.00  0.00    +0.000 C 
ATOM     10  C   UNL     1      -1.820  14.365  23.922  0.00  0.00    +0.000 C 
ATOM     11  N   UNL     1      -0.715  12.044  22.834  0.00  0.00    +0.000 NA
ATOM     12  C   UNL     1      -0.163  10.928  22.349  0.00  0.00    +0.000 A 
ATOM     13  C   UNL     1      -0.318   9.732  23.036  0.00  0.00    +0.000 A 
ATOM     14  C   UNL     1       0.241   8.532  22.580  0.00  0.00    +0.000 A 
ATOM     15  C   UNL     1       0.981   8.507  21.402  0.00  0.00    +0.000 A 
ATOM     16  C   UNL     1       1.160   9.700  20.708  0.00  0.00    +0.000 A 
ATOM     17  C   UNL     1       0.576  10.905  21.167  0.00  0.00    +0.000 A 
ENDROOT
BRANCH  15  18
ATOM     18  N   UNL     1       1.582   7.346  20.875  0.00  0.00    +0.000 N 
ATOM     19  C   UNL     1       2.151   7.206  19.617  0.00  0.00    +0.000 C 
ATOM     20  O   UNL     1       2.278   8.144  18.824  0.00  0.00    +0.000 OA
ATOM     21  H   UNL     1       1.671   6.578  21.525  0.00  0.00    +0.000 HD
BRANCH  19  22
ATOM     22  C   UNL     1       2.700   5.781  19.256  0.00  0.00    +0.000 C 
ATOM     23  C   UNL     1       2.527   4.838  20.464  0.00  0.00    +0.000 C 
ATOM     24  C   UNL     1       1.874   5.330  18.028  0.00  0.00    +0.000 C 
BRANCH  22  25
ATOM     25  O   UNL     1       4.086   5.999  18.928  0.00  0.00    +0.000 OA
BRANCH  25  26
ATOM     26  C   UNL     1       4.616   5.613  17.712  0.00  0.00    +0.000 A 
ATOM     27  C   UNL     1       4.862   6.463  16.642  0.00  0.00    +0.000 A 
ATOM     28  C   UNL     1       5.325   5.979  15.415  0.00  0.00    +0.000 A 
ATOM     29  C   UNL     1       5.582   4.629  15.268  0.00  0.00    +0.000 A 
ATOM     30 CL   UNL     1       6.143   4.042  13.752  0.00  0.00    +0.000 Cl
ATOM     31  C   UNL     1       5.389   3.762  16.338  0.00  0.00    +0.000 A 
ATOM     32  C   UNL     1       4.897   4.256  17.566  0.00  0.00    +0.000 A 
ENDBRANCH  25  26
ENDBRANCH  22  25
ENDBRANCH  19  22
ENDBRANCH  15  18
BRANCH   8  33
ATOM     33  O   UNL     1      -2.874  17.261  23.717  0.00  0.00    +0.000 OA
ATOM     34  H   UNL     1      -1.924  17.411  23.584  0.00  0.00    +0.000 HD
ENDBRANCH   8  33
TORSDOF 5
ENDMDL
