MODEL 1
REMARK VINA RESULT:      -7.0      0.000      0.000
REMARK  Name = 
REMARK  7 active torsions:
REMARK  status: ('A' for Active; 'I' for Inactive)
REMARK    1  A    between atoms: C_1  and  C_2
REMARK    2  A    between atoms: C_7  and  C_8
REMARK    3  A    between atoms: N_10  and  C_11
REMARK    4  A    between atoms: C_13  and  S_14
REMARK    5  A    between atoms: S_14  and  N_17
REMARK    6  A    between atoms: C_25  and  N_26
REMARK    7  A    between atoms: N_29  and  C_30
REMARK                            x       y       z     vdW  Elec       q    Type
REMARK                         _______ _______ _______ _____ _____    ______ ____
ROOT
ATOM      1  C   UNL     1      -0.011  12.838  21.771  0.00  0.00    +0.000 A 
ATOM      2  C   UNL     1      -1.123  12.593  22.574  0.00  0.00    +0.000 A 
ATOM      3  C   UNL     1      -1.860  13.664  23.072  0.00  0.00    +0.000 A 
ATOM      4  C   UNL     1      -1.474  14.974  22.794  0.00  0.00    +0.000 A 
ATOM      5  C   UNL     1      -0.349  15.211  21.991  0.00  0.00    +0.000 A 
ATOM      6  C   UNL     1       0.396  14.155  21.440  0.00  0.00    +0.000 A 
ENDROOT
BRANCH   6   7
ATOM      7  N   UNL     1       1.480  14.355  20.571  0.00  0.00    +0.000 N 
ATOM      8  C   UNL     1       1.223  14.930  19.236  0.00  0.00    +0.000 C 
ATOM      9  C   UNL     1       2.430  14.607  18.323  0.00  0.00    +0.000 C 
ATOM     10  N   UNL     1       3.725  15.102  18.847  0.00  0.00    +0.000 NA
ATOM     11  C   UNL     1       4.823  14.562  18.039  0.00  0.00    +0.000 C 
ATOM     12  C   UNL     1       3.905  14.713  20.268  0.00  0.00    +0.000 C 
ATOM     13  C   UNL     1       2.676  14.996  21.176  0.00  0.00    +0.000 C 
ENDBRANCH   6   7
BRANCH   1  16
ATOM     14  C   UNL     1       0.093  11.037  20.090  0.00  0.00    +0.000 C 
ATOM     15  O   UNL     1      -1.010  11.273  19.607  0.00  0.00    +0.000 OA
ATOM     16  N   UNL     1       0.635  11.753  21.147  0.00  0.00    +0.000 N 
ATOM     17  H   UNL     1       1.408  11.394  21.689  0.00  0.00    +0.000 HD
BRANCH  14  24
ATOM     18  C   UNL     1       0.735   8.649  21.824  0.00  0.00    +0.000 C 
ATOM     19  C   UNL     1       1.201   8.768  20.398  0.00  0.00    +0.000 A 
ATOM     20  C   UNL     1       1.947   7.703  19.856  0.00  0.00    +0.000 A 
ATOM     21  C   UNL     1       2.402   7.737  18.538  0.00  0.00    +0.000 A 
ATOM     22  C   UNL     1       2.141   8.843  17.746  0.00  0.00    +0.000 A 
ATOM     23  C   UNL     1       1.412   9.913  18.264  0.00  0.00    +0.000 A 
ATOM     24  C   UNL     1       0.914   9.885  19.582  0.00  0.00    +0.000 A 
ENDBRANCH  14  24
ENDBRANCH   1  16
BRANCH   3  25
ATOM     25  S   UNL     1      -3.429  13.316  23.820  0.00  0.00    +0.000 S 
ATOM     26  O   UNL     1      -3.555  11.871  23.930  0.00  0.00    +0.000 OA
ATOM     27  O   UNL     1      -3.518  14.135  25.005  0.00  0.00    +0.000 OA
BRANCH  25  28
ATOM     28  N   UNL     1      -4.609  13.831  22.698  0.00  0.00    +0.000 NA
ATOM     29  C   UNL     1      -5.066  15.257  22.736  0.00  0.00    +0.000 C 
ATOM     30  C   UNL     1      -5.971  15.529  23.936  0.00  0.00    +0.000 C 
ATOM     31  O   UNL     1      -7.119  14.664  23.920  0.00  0.00    +0.000 OA
ATOM     32  C   UNL     1      -6.749  13.277  23.891  0.00  0.00    +0.000 C 
ATOM     33  C   UNL     1      -5.832  12.953  22.699  0.00  0.00    +0.000 C 
ENDBRANCH  25  28
ENDBRANCH   3  25
TORSDOF 5
ENDMDL
MODEL 2
REMARK VINA RESULT:      -6.8      1.300      1.468
REMARK  Name = 
REMARK  7 active torsions:
REMARK  status: ('A' for Active; 'I' for Inactive)
REMARK    1  A    between atoms: C_1  and  C_2
REMARK    2  A    between atoms: C_7  and  C_8
REMARK    3  A    between atoms: N_10  and  C_11
REMARK    4  A    between atoms: C_13  and  S_14
REMARK    5  A    between atoms: S_14  and  N_17
REMARK    6  A    between atoms: C_25  and  N_26
REMARK    7  A    between atoms: N_29  and  C_30
REMARK                            x       y       z     vdW  Elec       q    Type
REMARK                         _______ _______ _______ _____ _____    ______ ____
ROOT
ATOM      1  C   UNL     1      -0.699  12.641  21.425  0.00  0.00    +0.000 A 
ATOM      2  C   UNL     1      -1.869  12.357  22.128  0.00  0.00    +0.000 A 
ATOM      3  C   UNL     1      -2.728  13.395  22.479  0.00  0.00    +0.000 A 
ATOM      4  C   UNL     1      -2.410  14.711  22.156  0.00  0.00    +0.000 A 
ATOM      5  C   UNL     1      -1.226  14.989  21.456  0.00  0.00    +0.000 A 
ATOM      6  C   UNL     1      -0.355  13.964  21.052  0.00  0.00    +0.000 A 
ENDROOT
BRANCH   6   7
ATOM      7  N   UNL     1       0.798  14.197  20.285  0.00  0.00    +0.000 N 
ATOM      8  C   UNL     1       0.672  14.256  18.815  0.00  0.00    +0.000 C 
ATOM      9  C   UNL     1       2.072  14.033  18.195  0.00  0.00    +0.000 C 
ATOM     10  N   UNL     1       3.091  15.006  18.656  0.00  0.00    +0.000 NA
ATOM     11  C   UNL     1       4.418  14.586  18.194  0.00  0.00    +0.000 C 
ATOM     12  C   UNL     1       3.083  15.121  20.135  0.00  0.00    +0.000 C 
ATOM     13  C   UNL     1       1.672  15.300  20.762  0.00  0.00    +0.000 C 
ENDBRANCH   6   7
BRANCH   1  16
ATOM     14  C   UNL     1      -0.313  10.732  19.913  0.00  0.00    +0.000 C 
ATOM     15  O   UNL     1      -1.392  10.826  19.337  0.00  0.00    +0.000 OA
ATOM     16  N   UNL     1       0.083  11.575  20.941  0.00  0.00    +0.000 N 
ATOM     17  H   UNL     1       0.842  11.333  21.562  0.00  0.00    +0.000 HD
BRANCH  14  24
ATOM     18  C   UNL     1       0.537   8.656  21.935  0.00  0.00    +0.000 C 
ATOM     19  C   UNL     1       1.026   8.653  20.512  0.00  0.00    +0.000 A 
ATOM     20  C   UNL     1       1.896   7.620  20.115  0.00  0.00    +0.000 A 
ATOM     21  C   UNL     1       2.381   7.545  18.808  0.00  0.00    +0.000 A 
ATOM     22  C   UNL     1       2.023   8.512  17.883  0.00  0.00    +0.000 A 
ATOM     23  C   UNL     1       1.169   9.548  18.256  0.00  0.00    +0.000 A 
ATOM     24  C   UNL     1       0.641   9.625  19.561  0.00  0.00    +0.000 A 
ENDBRANCH  14  24
ENDBRANCH   1  16
BRANCH   3  25
ATOM     25  S   UNL     1      -4.338  12.969  23.086  0.00  0.00    +0.000 S 
ATOM     26  O   UNL     1      -4.176  11.898  24.057  0.00  0.00    +0.000 OA
ATOM     27  O   UNL     1      -4.975  14.203  23.481  0.00  0.00    +0.000 OA
BRANCH  25  28
ATOM     28  N   UNL     1      -5.182  12.307  21.758  0.00  0.00    +0.000 NA
ATOM     29  C   UNL     1      -4.907  12.848  20.388  0.00  0.00    +0.000 C 
ATOM     30  C   UNL     1      -5.522  14.232  20.192  0.00  0.00    +0.000 C 
ATOM     31  O   UNL     1      -6.942  14.201  20.412  0.00  0.00    +0.000 OA
ATOM     32  C   UNL     1      -7.274  13.698  21.715  0.00  0.00    +0.000 C 
ATOM     33  C   UNL     1      -6.674  12.303  21.962  0.00  0.00    +0.000 C 
ENDBRANCH  25  28
ENDBRANCH   3  25
TORSDOF 5
ENDMDL
MODEL 3
REMARK VINA RESULT:      -6.6      1.534      1.831
REMARK  Name = 
REMARK  7 active torsions:
REMARK  status: ('A' for Active; 'I' for Inactive)
REMARK    1  A    between atoms: C_1  and  C_2
REMARK    2  A    between atoms: C_7  and  C_8
REMARK    3  A    between atoms: N_10  and  C_11
REMARK    4  A    between atoms: C_13  and  S_14
REMARK    5  A    between atoms: S_14  and  N_17
REMARK    6  A    between atoms: C_25  and  N_26
REMARK    7  A    between atoms: N_29  and  C_30
REMARK                            x       y       z     vdW  Elec       q    Type
REMARK                         _______ _______ _______ _____ _____    ______ ____
ROOT
ATOM      1  C   UNL     1      -0.770  13.249  20.649  0.00  0.00    +0.000 A 
ATOM      2  C   UNL     1      -2.091  13.084  21.064  0.00  0.00    +0.000 A 
ATOM      3  C   UNL     1      -2.914  14.199  21.194  0.00  0.00    +0.000 A 
ATOM      4  C   UNL     1      -2.417  15.474  20.939  0.00  0.00    +0.000 A 
ATOM      5  C   UNL     1      -1.084  15.632  20.530  0.00  0.00    +0.000 A 
ATOM      6  C   UNL     1      -0.235  14.527  20.351  0.00  0.00    +0.000 A 
ENDROOT
BRANCH   6   7
ATOM      7  N   UNL     1       1.079  14.641  19.870  0.00  0.00    +0.000 N 
ATOM      8  C   UNL     1       1.348  15.572  18.757  0.00  0.00    +0.000 C 
ATOM      9  C   UNL     1       2.694  15.177  18.103  0.00  0.00    +0.000 C 
ATOM     10  N   UNL     1       3.837  15.169  19.046  0.00  0.00    +0.000 NA
ATOM     11  C   UNL     1       5.009  14.576  18.396  0.00  0.00    +0.000 C 
ATOM     12  C   UNL     1       3.503  14.412  20.277  0.00  0.00    +0.000 C 
ATOM     13  C   UNL     1       2.131  14.777  20.909  0.00  0.00    +0.000 C 
ENDBRANCH   6   7
BRANCH   1  16
ATOM     14  C   UNL     1      -0.388  11.095  19.510  0.00  0.00    +0.000 C 
ATOM     15  O   UNL     1      -1.463  11.091  18.918  0.00  0.00    +0.000 OA
ATOM     16  N   UNL     1       0.007  12.108  20.372  0.00  0.00    +0.000 N 
ATOM     17  H   UNL     1       0.759  11.977  21.033  0.00  0.00    +0.000 HD
BRANCH  14  24
ATOM     18  C   UNL     1      -0.014   9.070  21.719  0.00  0.00    +0.000 C 
ATOM     19  C   UNL     1       0.720   8.989  20.408  0.00  0.00    +0.000 A 
ATOM     20  C   UNL     1       1.598   7.906  20.208  0.00  0.00    +0.000 A 
ATOM     21  C   UNL     1       2.304   7.758  19.013  0.00  0.00    +0.000 A 
ATOM     22  C   UNL     1       2.164   8.701  18.008  0.00  0.00    +0.000 A 
ATOM     23  C   UNL     1       1.307   9.786  18.187  0.00  0.00    +0.000 A 
ATOM     24  C   UNL     1       0.559   9.937  19.372  0.00  0.00    +0.000 A 
ENDBRANCH  14  24
ENDBRANCH   1  16
BRANCH   3  25
ATOM     25  S   UNL     1      -4.652  13.926  21.416  0.00  0.00    +0.000 S 
ATOM     26  O   UNL     1      -5.360  14.879  20.575  0.00  0.00    +0.000 OA
ATOM     27  O   UNL     1      -4.877  12.510  21.241  0.00  0.00    +0.000 OA
BRANCH  25  28
ATOM     28  N   UNL     1      -4.991  14.348  23.035  0.00  0.00    +0.000 NA
ATOM     29  C   UNL     1      -4.063  13.876  24.112  0.00  0.00    +0.000 C 
ATOM     30  C   UNL     1      -4.224  12.382  24.383  0.00  0.00    +0.000 C 
ATOM     31  O   UNL     1      -5.577  12.069  24.754  0.00  0.00    +0.000 OA
ATOM     32  C   UNL     1      -6.520  12.489  23.756  0.00  0.00    +0.000 C 
ATOM     33  C   UNL     1      -6.395  13.991  23.446  0.00  0.00    +0.000 C 
ENDBRANCH  25  28
ENDBRANCH   3  25
TORSDOF 5
ENDMDL
MODEL 4
REMARK VINA RESULT:      -6.5      4.716      8.464
REMARK  Name = 
REMARK  7 active torsions:
REMARK  status: ('A' for Active; 'I' for Inactive)
REMARK    1  A    between atoms: C_1  and  C_2
REMARK    2  A    between atoms: C_7  and  C_8
REMARK    3  A    between atoms: N_10  and  C_11
REMARK    4  A    between atoms: C_13  and  S_14
REMARK    5  A    between atoms: S_14  and  N_17
REMARK    6  A    between atoms: C_25  and  N_26
REMARK    7  A    between atoms: N_29  and  C_30
REMARK                            x       y       z     vdW  Elec       q    Type
REMARK                         _______ _______ _______ _____ _____    ______ ____
ROOT
ATOM      1  C   UNL     1       2.389   7.018  18.701  0.00  0.00    +0.000 A 
ATOM      2  C   UNL     1       2.081   8.374  18.785  0.00  0.00    +0.000 A 
ATOM      3  C   UNL     1       1.316   8.840  19.851  0.00  0.00    +0.000 A 
ATOM      4  C   UNL     1       0.838   7.954  20.814  0.00  0.00    +0.000 A 
ATOM      5  C   UNL     1       1.146   6.589  20.717  0.00  0.00    +0.000 A 
ATOM      6  C   UNL     1       1.947   6.089  19.677  0.00  0.00    +0.000 A 
ENDROOT
BRANCH   6   7
ATOM      7  N   UNL     1       2.339   4.744  19.591  0.00  0.00    +0.000 N 
ATOM      8  C   UNL     1       2.568   3.990  20.839  0.00  0.00    +0.000 C 
ATOM      9  C   UNL     1       3.430   2.748  20.511  0.00  0.00    +0.000 C 
ATOM     10  N   UNL     1       2.832   1.860  19.485  0.00  0.00    +0.000 NA
ATOM     11  C   UNL     1       3.809   0.844  19.083  0.00  0.00    +0.000 C 
ATOM     12  C   UNL     1       2.395   2.639  18.300  0.00  0.00    +0.000 C 
ATOM     13  C   UNL     1       1.567   3.912  18.633  0.00  0.00    +0.000 C 
ENDBRANCH   6   7
BRANCH   1  16
ATOM     14  C   UNL     1       4.542   6.053  17.983  0.00  0.00    +0.000 C 
ATOM     15  O   UNL     1       4.993   5.931  19.117  0.00  0.00    +0.000 OA
ATOM     16  N   UNL     1       3.288   6.581  17.709  0.00  0.00    +0.000 N 
ATOM     17  H   UNL     1       3.041   6.907  16.786  0.00  0.00    +0.000 HD
BRANCH  14  24
ATOM     18  C   UNL     1       7.340   7.123  17.596  0.00  0.00    +0.000 C 
ATOM     19  C   UNL     1       6.688   6.178  16.623  0.00  0.00    +0.000 A 
ATOM     20  C   UNL     1       7.435   5.765  15.502  0.00  0.00    +0.000 A 
ATOM     21  C   UNL     1       6.901   4.881  14.563  0.00  0.00    +0.000 A 
ATOM     22  C   UNL     1       5.607   4.412  14.715  0.00  0.00    +0.000 A 
ATOM     23  C   UNL     1       4.847   4.813  15.812  0.00  0.00    +0.000 A 
ATOM     24  C   UNL     1       5.377   5.679  16.790  0.00  0.00    +0.000 A 
ENDBRANCH  14  24
ENDBRANCH   1  16
BRANCH   3  25
ATOM     25  S   UNL     1       1.209  10.592  20.093  0.00  0.00    +0.000 S 
ATOM     26  O   UNL     1       1.625  10.877  21.458  0.00  0.00    +0.000 OA
ATOM     27  O   UNL     1       1.905  11.209  18.989  0.00  0.00    +0.000 OA
BRANCH  25  28
ATOM     28  N   UNL     1      -0.451  10.981  19.992  0.00  0.00    +0.000 NA
ATOM     29  C   UNL     1      -0.999  11.464  18.684  0.00  0.00    +0.000 C 
ATOM     30  C   UNL     1      -0.563  12.896  18.382  0.00  0.00    +0.000 C 
ATOM     31  O   UNL     1      -0.976  13.791  19.427  0.00  0.00    +0.000 OA
ATOM     32  C   UNL     1      -0.474  13.388  20.711  0.00  0.00    +0.000 C 
ATOM     33  C   UNL     1      -0.886  11.948  21.061  0.00  0.00    +0.000 C 
ENDBRANCH  25  28
ENDBRANCH   3  25
TORSDOF 5
ENDMDL
MODEL 5
REMARK VINA RESULT:      -6.4      1.133      1.325
REMARK  Name = 
REMARK  7 active torsions:
REMARK  status: ('A' for Active; 'I' for Inactive)
REMARK    1  A    between atoms: C_1  and  C_2
REMARK    2  A    between atoms: C_7  and  C_8
REMARK    3  A    between atoms: N_10  and  C_11
REMARK    4  A    between atoms: C_13  and  S_14
REMARK    5  A    between atoms: S_14  and  N_17
REMARK    6  A    between atoms: C_25  and  N_26
REMARK    7  A    between atoms: N_29  and  C_30
REMARK                            x       y       z     vdW  Elec       q    Type
REMARK                         _______ _______ _______ _____ _____    ______ ____
ROOT
ATOM      1  C   UNL     1       0.194  13.582  21.746  0.00  0.00    +0.000 A 
ATOM      2  C   UNL     1      -0.941  13.481  22.548  0.00  0.00    +0.000 A 
ATOM      3  C   UNL     1      -1.570  14.640  22.996  0.00  0.00    +0.000 A 
ATOM      4  C   UNL     1      -1.056  15.892  22.668  0.00  0.00    +0.000 A 
ATOM      5  C   UNL     1       0.092  15.983  21.866  0.00  0.00    +0.000 A 
ATOM      6  C   UNL     1       0.731  14.837  21.365  0.00  0.00    +0.000 A 
ENDROOT
BRANCH   6   7
ATOM      7  N   UNL     1       1.834  14.893  20.499  0.00  0.00    +0.000 N 
ATOM      8  C   UNL     1       1.652  15.473  19.154  0.00  0.00    +0.000 C 
ATOM      9  C   UNL     1       2.814  14.994  18.252  0.00  0.00    +0.000 C 
ATOM     10  N   UNL     1       4.158  15.341  18.776  0.00  0.00    +0.000 NA
ATOM     11  C   UNL     1       5.186  14.662  17.981  0.00  0.00    +0.000 C 
ATOM     12  C   UNL     1       4.285  14.956  20.203  0.00  0.00    +0.000 C 
ATOM     13  C   UNL     1       3.095  15.398  21.100  0.00  0.00    +0.000 C 
ENDBRANCH   6   7
BRANCH   1  16
ATOM     14  C   UNL     1       0.035  11.589  20.302  0.00  0.00    +0.000 C 
ATOM     15  O   UNL     1      -1.126  11.793  19.960  0.00  0.00    +0.000 OA
ATOM     16  N   UNL     1       0.733  12.414  21.173  0.00  0.00    +0.000 N 
ATOM     17  H   UNL     1       1.575  12.103  21.635  0.00  0.00    +0.000 HD
BRANCH  14  24
ATOM     18  C   UNL     1       0.402   9.165  22.065  0.00  0.00    +0.000 C 
ATOM     19  C   UNL     1       0.922   9.231  20.654  0.00  0.00    +0.000 A 
ATOM     20  C   UNL     1       1.584   8.100  20.140  0.00  0.00    +0.000 A 
ATOM     21  C   UNL     1       2.081   8.083  18.837  0.00  0.00    +0.000 A 
ATOM     22  C   UNL     1       1.947   9.203  18.032  0.00  0.00    +0.000 A 
ATOM     23  C   UNL     1       1.303  10.337  18.523  0.00  0.00    +0.000 A 
ATOM     24  C   UNL     1       0.763  10.364  19.824  0.00  0.00    +0.000 A 
ENDBRANCH  14  24
ENDBRANCH   1  16
BRANCH   3  25
ATOM     25  S   UNL     1      -3.170  14.479  23.742  0.00  0.00    +0.000 S 
ATOM     26  O   UNL     1      -2.991  14.526  25.185  0.00  0.00    +0.000 OA
ATOM     27  O   UNL     1      -4.031  15.441  23.095  0.00  0.00    +0.000 OA
BRANCH  25  28
ATOM     28  N   UNL     1      -3.710  12.904  23.363  0.00  0.00    +0.000 NA
ATOM     29  C   UNL     1      -4.338  12.661  22.024  0.00  0.00    +0.000 C 
ATOM     30  C   UNL     1      -5.744  13.249  21.944  0.00  0.00    +0.000 C 
ATOM     31  O   UNL     1      -6.591  12.704  22.969  0.00  0.00    +0.000 OA
ATOM     32  C   UNL     1      -6.048  12.911  24.283  0.00  0.00    +0.000 C 
ATOM     33  C   UNL     1      -4.627  12.336  24.413  0.00  0.00    +0.000 C 
ENDBRANCH  25  28
ENDBRANCH   3  25
TORSDOF 5
ENDMDL
MODEL 6
REMARK VINA RESULT:      -6.4      1.521      1.998
REMARK  Name = 
REMARK  7 active torsions:
REMARK  status: ('A' for Active; 'I' for Inactive)
REMARK    1  A    between atoms: C_1  and  C_2
REMARK    2  A    between atoms: C_7  and  C_8
REMARK    3  A    between atoms: N_10  and  C_11
REMARK    4  A    between atoms: C_13  and  S_14
REMARK    5  A    between atoms: S_14  and  N_17
REMARK    6  A    between atoms: C_25  and  N_26
REMARK    7  A    between atoms: N_29  and  C_30
REMARK                            x       y       z     vdW  Elec       q    Type
REMARK                         _______ _______ _______ _____ _____    ______ ____
ROOT
ATOM      1  C   UNL     1      -1.201  12.549  21.557  0.00  0.00    +0.000 A 
ATOM      2  C   UNL     1      -2.383  12.274  22.241  0.00  0.00    +0.000 A 
ATOM      3  C   UNL     1      -3.109  13.320  22.806  0.00  0.00    +0.000 A 
ATOM      4  C   UNL     1      -2.644  14.629  22.712  0.00  0.00    +0.000 A 
ATOM      5  C   UNL     1      -1.448  14.895  22.029  0.00  0.00    +0.000 A 
ATOM      6  C   UNL     1      -0.710  13.871  21.414  0.00  0.00    +0.000 A 
ENDROOT
BRANCH   6   7
ATOM      7  N   UNL     1       0.449  14.109  20.658  0.00  0.00    +0.000 N 
ATOM      8  C   UNL     1       0.427  15.185  19.648  0.00  0.00    +0.000 C 
ATOM      9  C   UNL     1       1.584  14.942  18.649  0.00  0.00    +0.000 C 
ATOM     10  N   UNL     1       2.920  14.873  19.288  0.00  0.00    +0.000 NA
ATOM     11  C   UNL     1       3.913  14.425  18.307  0.00  0.00    +0.000 C 
ATOM     12  C   UNL     1       2.904  13.951  20.451  0.00  0.00    +0.000 C 
ATOM     13  C   UNL     1       1.717  14.166  21.430  0.00  0.00    +0.000 C 
ENDBRANCH   6   7
BRANCH   1  16
ATOM     14  C   UNL     1       0.293  10.588  21.459  0.00  0.00    +0.000 C 
ATOM     15  O   UNL     1       0.575  10.604  22.653  0.00  0.00    +0.000 OA
ATOM     16  N   UNL     1      -0.556  11.508  20.860  0.00  0.00    +0.000 N 
ATOM     17  H   UNL     1      -0.575  11.638  19.859  0.00  0.00    +0.000 HD
BRANCH  14  24
ATOM     18  C   UNL     1       0.950  11.228  18.581  0.00  0.00    +0.000 C 
ATOM     19  C   UNL     1       1.231   9.886  19.201  0.00  0.00    +0.000 A 
ATOM     20  C   UNL     1       1.849   8.905  18.401  0.00  0.00    +0.000 A 
ATOM     21  C   UNL     1       2.152   7.642  18.911  0.00  0.00    +0.000 A 
ATOM     22  C   UNL     1       1.823   7.329  20.220  0.00  0.00    +0.000 A 
ATOM     23  C   UNL     1       1.204   8.281  21.027  0.00  0.00    +0.000 A 
ATOM     24  C   UNL     1       0.919   9.574  20.544  0.00  0.00    +0.000 A 
ENDBRANCH  14  24
ENDBRANCH   1  16
BRANCH   3  25
ATOM     25  S   UNL     1      -4.747  12.973  23.388  0.00  0.00    +0.000 S 
ATOM     26  O   UNL     1      -4.653  11.893  24.357  0.00  0.00    +0.000 OA
ATOM     27  O   UNL     1      -5.327  14.237  23.778  0.00  0.00    +0.000 OA
BRANCH  25  28
ATOM     28  N   UNL     1      -5.603  12.359  22.045  0.00  0.00    +0.000 NA
ATOM     29  C   UNL     1      -5.334  12.941  20.691  0.00  0.00    +0.000 C 
ATOM     30  C   UNL     1      -5.941  14.334  20.543  0.00  0.00    +0.000 C 
ATOM     31  O   UNL     1      -7.360  14.304  20.771  0.00  0.00    +0.000 OA
ATOM     32  C   UNL     1      -7.687  13.762  22.060  0.00  0.00    +0.000 C 
ATOM     33  C   UNL     1      -7.094  12.357  22.259  0.00  0.00    +0.000 C 
ENDBRANCH  25  28
ENDBRANCH   3  25
TORSDOF 5
ENDMDL
MODEL 7
REMARK VINA RESULT:      -6.4      0.533      1.284
REMARK  Name = 
REMARK  7 active torsions:
REMARK  status: ('A' for Active; 'I' for Inactive)
REMARK    1  A    between atoms: C_1  and  C_2
REMARK    2  A    between atoms: C_7  and  C_8
REMARK    3  A    between atoms: N_10  and  C_11
REMARK    4  A    between atoms: C_13  and  S_14
REMARK    5  A    between atoms: S_14  and  N_17
REMARK    6  A    between atoms: C_25  and  N_26
REMARK    7  A    between atoms: N_29  and  C_30
REMARK                            x       y       z     vdW  Elec       q    Type
REMARK                         _______ _______ _______ _____ _____    ______ ____
ROOT
ATOM      1  C   UNL     1      -0.305  12.655  22.002  0.00  0.00    +0.000 A 
ATOM      2  C   UNL     1      -1.422  12.487  22.818  0.00  0.00    +0.000 A 
ATOM      3  C   UNL     1      -2.180  13.598  23.181  0.00  0.00    +0.000 A 
ATOM      4  C   UNL     1      -1.810  14.871  22.756  0.00  0.00    +0.000 A 
ATOM      5  C   UNL     1      -0.678  15.031  21.942  0.00  0.00    +0.000 A 
ATOM      6  C   UNL     1       0.087  13.930  21.525  0.00  0.00    +0.000 A 
ENDROOT
BRANCH   6   7
ATOM      7  N   UNL     1       1.179  14.045  20.650  0.00  0.00    +0.000 N 
ATOM      8  C   UNL     1       0.934  14.492  19.265  0.00  0.00    +0.000 C 
ATOM      9  C   UNL     1       2.146  14.082  18.396  0.00  0.00    +0.000 C 
ATOM     10  N   UNL     1       3.439  14.621  18.881  0.00  0.00    +0.000 NA
ATOM     11  C   UNL     1       4.541  14.005  18.135  0.00  0.00    +0.000 C 
ATOM     12  C   UNL     1       3.607  14.367  20.333  0.00  0.00    +0.000 C 
ATOM     13  C   UNL     1       2.372  14.738  21.201  0.00  0.00    +0.000 C 
ENDBRANCH   6   7
BRANCH   1  16
ATOM     14  C   UNL     1      -0.139  10.695  20.515  0.00  0.00    +0.000 C 
ATOM     15  O   UNL     1      -1.222  10.878  19.970  0.00  0.00    +0.000 OA
ATOM     16  N   UNL     1       0.364  11.515  21.515  0.00  0.00    +0.000 N 
ATOM     17  H   UNL     1       1.116  11.214  22.119  0.00  0.00    +0.000 HD
BRANCH  14  24
ATOM     18  C   UNL     1       1.287  10.488  17.860  0.00  0.00    +0.000 C 
ATOM     19  C   UNL     1       1.371   9.418  18.914  0.00  0.00    +0.000 A 
ATOM     20  C   UNL     1       2.170   8.289  18.647  0.00  0.00    +0.000 A 
ATOM     21  C   UNL     1       2.305   7.262  19.582  0.00  0.00    +0.000 A 
ATOM     22  C   UNL     1       1.629   7.332  20.788  0.00  0.00    +0.000 A 
ATOM     23  C   UNL     1       0.825   8.436  21.071  0.00  0.00    +0.000 A 
ATOM     24  C   UNL     1       0.700   9.500  20.156  0.00  0.00    +0.000 A 
ENDBRANCH  14  24
ENDBRANCH   1  16
BRANCH   3  25
ATOM     25  S   UNL     1      -3.753  13.314  23.948  0.00  0.00    +0.000 S 
ATOM     26  O   UNL     1      -3.885  11.882  24.169  0.00  0.00    +0.000 OA
ATOM     27  O   UNL     1      -3.842  14.223  25.066  0.00  0.00    +0.000 OA
BRANCH  25  28
ATOM     28  N   UNL     1      -4.927  13.744  22.785  0.00  0.00    +0.000 NA
ATOM     29  C   UNL     1      -5.382  15.170  22.714  0.00  0.00    +0.000 C 
ATOM     30  C   UNL     1      -6.292  15.532  23.886  0.00  0.00    +0.000 C 
ATOM     31  O   UNL     1      -7.441  14.671  23.931  0.00  0.00    +0.000 OA
ATOM     32  C   UNL     1      -7.073  13.285  24.008  0.00  0.00    +0.000 C 
ATOM     33  C   UNL     1      -6.152  12.871  22.848  0.00  0.00    +0.000 C 
ENDBRANCH  25  28
ENDBRANCH   3  25
TORSDOF 5
ENDMDL
MODEL 8
REMARK VINA RESULT:      -6.4      1.690      1.931
REMARK  Name = 
REMARK  7 active torsions:
REMARK  status: ('A' for Active; 'I' for Inactive)
REMARK    1  A    between atoms: C_1  and  C_2
REMARK    2  A    between atoms: C_7  and  C_8
REMARK    3  A    between atoms: N_10  and  C_11
REMARK    4  A    between atoms: C_13  and  S_14
REMARK    5  A    between atoms: S_14  and  N_17
REMARK    6  A    between atoms: C_25  and  N_26
REMARK    7  A    between atoms: N_29  and  C_30
REMARK                            x       y       z     vdW  Elec       q    Type
REMARK                         _______ _______ _______ _____ _____    ______ ____
ROOT
ATOM      1  C   UNL     1      -1.230  12.968  20.326  0.00  0.00    +0.000 A 
ATOM      2  C   UNL     1      -2.552  12.761  20.715  0.00  0.00    +0.000 A 
ATOM      3  C   UNL     1      -3.331  13.847  21.105  0.00  0.00    +0.000 A 
ATOM      4  C   UNL     1      -2.786  15.129  21.133  0.00  0.00    +0.000 A 
ATOM      5  C   UNL     1      -1.452  15.326  20.748  0.00  0.00    +0.000 A 
ATOM      6  C   UNL     1      -0.648  14.260  20.312  0.00  0.00    +0.000 A 
ENDROOT
BRANCH   6   7
ATOM      7  N   UNL     1       0.665  14.432  19.847  0.00  0.00    +0.000 N 
ATOM      8  C   UNL     1       0.951  15.549  18.926  0.00  0.00    +0.000 C 
ATOM      9  C   UNL     1       2.282  15.253  18.194  0.00  0.00    +0.000 C 
ATOM     10  N   UNL     1       3.431  15.041  19.107  0.00  0.00    +0.000 NA
ATOM     11  C   UNL     1       4.583  14.553  18.343  0.00  0.00    +0.000 C 
ATOM     12  C   UNL     1       3.086  14.073  20.177  0.00  0.00    +0.000 C 
ATOM     13  C   UNL     1       1.727  14.345  20.881  0.00  0.00    +0.000 C 
ENDBRANCH   6   7
BRANCH   1  16
ATOM     14  C   UNL     1       0.262  11.017  20.552  0.00  0.00    +0.000 C 
ATOM     15  O   UNL     1       0.382  11.110  21.769  0.00  0.00    +0.000 OA
ATOM     16  N   UNL     1      -0.499  11.891  19.788  0.00  0.00    +0.000 N 
ATOM     17  H   UNL     1      -0.384  11.957  18.787  0.00  0.00    +0.000 HD
BRANCH  14  24
ATOM     18  C   UNL     1       0.985   8.372  21.818  0.00  0.00    +0.000 C 
ATOM     19  C   UNL     1       1.330   8.713  20.394  0.00  0.00    +0.000 A 
ATOM     20  C   UNL     1       1.997   7.741  19.624  0.00  0.00    +0.000 A 
ATOM     21  C   UNL     1       2.339   7.982  18.293  0.00  0.00    +0.000 A 
ATOM     22  C   UNL     1       2.041   9.204  17.714  0.00  0.00    +0.000 A 
ATOM     23  C   UNL     1       1.388  10.185  18.459  0.00  0.00    +0.000 A 
ATOM     24  C   UNL     1       1.005   9.952  19.795  0.00  0.00    +0.000 A 
ENDBRANCH  14  24
ENDBRANCH   1  16
BRANCH   3  25
ATOM     25  S   UNL     1      -5.075  13.594  21.290  0.00  0.00    +0.000 S 
ATOM     26  O   UNL     1      -5.744  14.328  20.226  0.00  0.00    +0.000 OA
ATOM     27  O   UNL     1      -5.279  12.170  21.415  0.00  0.00    +0.000 OA
BRANCH  25  28
ATOM     28  N   UNL     1      -5.508  14.350  22.758  0.00  0.00    +0.000 NA
ATOM     29  C   UNL     1      -5.266  13.618  24.043  0.00  0.00    +0.000 C 
ATOM     30  C   UNL     1      -6.264  12.480  24.242  0.00  0.00    +0.000 C 
ATOM     31  O   UNL     1      -7.615  12.970  24.223  0.00  0.00    +0.000 OA
ATOM     32  C   UNL     1      -7.915  13.676  23.010  0.00  0.00    +0.000 C 
ATOM     33  C   UNL     1      -6.933  14.835  22.763  0.00  0.00    +0.000 C 
ENDBRANCH  25  28
ENDBRANCH   3  25
TORSDOF 5
ENDMDL
MODEL 9
REMARK VINA RESULT:      -6.4      1.651      1.814
REMARK  Name = 
REMARK  7 active torsions:
REMARK  status: ('A' for Active; 'I' for Inactive)
REMARK    1  A    between atoms: C_1  and  C_2
REMARK    2  A    between atoms: C_7  and  C_8
REMARK    3  A    between atoms: N_10  and  C_11
REMARK    4  A    between atoms: C_13  and  S_14
REMARK    5  A    between atoms: S_14  and  N_17
REMARK    6  A    between atoms: C_25  and  N_26
REMARK    7  A    between atoms: N_29  and  C_30
REMARK                            x       y       z     vdW  Elec       q    Type
REMARK                         _______ _______ _______ _____ _____    ______ ____
ROOT
ATOM      1  C   UNL     1      -0.649  13.037  20.825  0.00  0.00    +0.000 A 
ATOM      2  C   UNL     1      -1.899  12.861  21.415  0.00  0.00    +0.000 A 
ATOM      3  C   UNL     1      -2.735  13.959  21.596  0.00  0.00    +0.000 A 
ATOM      4  C   UNL     1      -2.316  15.232  21.215  0.00  0.00    +0.000 A 
ATOM      5  C   UNL     1      -1.053  15.402  20.629  0.00  0.00    +0.000 A 
ATOM      6  C   UNL     1      -0.199  14.311  20.396  0.00  0.00    +0.000 A 
ENDROOT
BRANCH   6   7
ATOM      7  N   UNL     1       1.038  14.433  19.743  0.00  0.00    +0.000 N 
ATOM      8  C   UNL     1       1.143  14.000  18.336  0.00  0.00    +0.000 C 
ATOM      9  C   UNL     1       2.637  13.774  18.004  0.00  0.00    +0.000 C 
ATOM     10  N   UNL     1       3.488  14.966  18.233  0.00  0.00    +0.000 NA
ATOM     11  C   UNL     1       4.900  14.595  18.106  0.00  0.00    +0.000 C 
ATOM     12  C   UNL     1       3.235  15.547  19.574  0.00  0.00    +0.000 C 
ATOM     13  C   UNL     1       1.733  15.733  19.926  0.00  0.00    +0.000 C 
ENDBRANCH   6   7
BRANCH   1  16
ATOM     14  C   UNL     1      -0.299  10.898  19.648  0.00  0.00    +0.000 C 
ATOM     15  O   UNL     1      -1.395  10.895  19.097  0.00  0.00    +0.000 OA
ATOM     16  N   UNL     1       0.123  11.904  20.506  0.00  0.00    +0.000 N 
ATOM     17  H   UNL     1       0.900  11.769  21.138  0.00  0.00    +0.000 HD
BRANCH  14  24
ATOM     18  C   UNL     1       0.253   8.916  21.859  0.00  0.00    +0.000 C 
ATOM     19  C   UNL     1       0.893   8.819  20.500  0.00  0.00    +0.000 A 
ATOM     20  C   UNL     1       1.765   7.740  20.256  0.00  0.00    +0.000 A 
ATOM     21  C   UNL     1       2.385   7.578  19.016  0.00  0.00    +0.000 A 
ATOM     22  C   UNL     1       2.164   8.501  18.008  0.00  0.00    +0.000 A 
ATOM     23  C   UNL     1       1.311   9.581  18.230  0.00  0.00    +0.000 A 
ATOM     24  C   UNL     1       0.648   9.746  19.462  0.00  0.00    +0.000 A 
ENDBRANCH  14  24
ENDBRANCH   1  16
BRANCH   3  25
ATOM     25  S   UNL     1      -4.420  13.654  22.055  0.00  0.00    +0.000 S 
ATOM     26  O   UNL     1      -4.522  12.260  22.460  0.00  0.00    +0.000 OA
ATOM     27  O   UNL     1      -4.797  14.698  22.978  0.00  0.00    +0.000 OA
BRANCH  25  28
ATOM     28  N   UNL     1      -5.335  13.820  20.623  0.00  0.00    +0.000 NA
ATOM     29  C   UNL     1      -6.704  14.422  20.709  0.00  0.00    +0.000 C 
ATOM     30  C   UNL     1      -7.709  13.456  21.334  0.00  0.00    +0.000 C 
ATOM     31  O   UNL     1      -7.777  12.230  20.588  0.00  0.00    +0.000 OA
ATOM     32  C   UNL     1      -6.494  11.596  20.475  0.00  0.00    +0.000 C 
ATOM     33  C   UNL     1      -5.444  12.532  19.851  0.00  0.00    +0.000 C 
ENDBRANCH  25  28
ENDBRANCH   3  25
TORSDOF 5
ENDMDL
