MODEL 1
REMARK VINA RESULT:      -8.1      0.000      0.000
REMARK  Name = 
REMARK  9 active torsions:
REMARK  status: ('A' for Active; 'I' for Inactive)
REMARK    1  A    between atoms: C_1  and  C_2
REMARK    2  A    between atoms: C_2  and  C_3
REMARK    3  A    between atoms: C_2  and  C_16
REMARK    4  A    between atoms: C_2  and  S_20
REMARK    5  A    between atoms: C_3  and  C_4
REMARK    6  A    between atoms: C_4  and  C_5
REMARK    7  A    between atoms: C_8  and  C_9
REMARK    8  A    between atoms: N_18  and  O_19
REMARK    9  A    between atoms: S_20  and  C_21
REMARK                            x       y       z     vdW  Elec       q    Type
REMARK                         _______ _______ _______ _____ _____    ______ ____
ROOT
ATOM      1  C   UNL     1       5.206   6.682  17.339  0.00  0.00    +0.000 C 
ENDROOT
BRANCH   1   3
ATOM      2  C   UNL     1       5.159   4.331  18.304  0.00  0.00    +0.000 C 
ATOM      3  C   UNL     1       6.056   5.457  17.759  0.00  0.00    +0.000 C 
BRANCH   3   4
ATOM      4  C   UNL     1       7.108   5.851  18.789  0.00  0.00    +0.000 C 
ATOM      5  O   UNL     1       7.838   6.836  18.651  0.00  0.00    +0.000 OA
ATOM      6  N   UNL     1       7.245   5.026  19.882  0.00  0.00    +0.000 N 
ATOM      7  H   UNL     1       6.455   4.488  20.252  0.00  0.00    +0.000 HD
BRANCH   6   8
ATOM      8  O   UNL     1       8.201   5.449  20.838  0.00  0.00    +0.000 OA
ATOM      9  H   UNL     1       9.037   5.462  20.322  0.00  0.00    +0.000 HD
ENDBRANCH   6   8
ENDBRANCH   3   4
BRANCH   3  10
ATOM     10  S   UNL     1       6.948   4.856  16.294  0.00  0.00    +0.000 S 
ATOM     11  C   UNL     1       5.874   3.692  15.481  0.00  0.00    +0.000 C 
ATOM     12  O   UNL     1       7.131   5.973  15.386  0.00  0.00    +0.000 OA
ATOM     13  O   UNL     1       8.106   4.113  16.765  0.00  0.00    +0.000 OA
ENDBRANCH   3  10
ENDBRANCH   1   3
BRANCH   1  14
ATOM     14  C   UNL     1       3.703   6.397  17.203  0.00  0.00    +0.000 C 
BRANCH  14  15
ATOM     15  C   UNL     1       2.878   7.215  18.164  0.00  0.00    +0.000 A 
ATOM     16  C   UNL     1       2.640   6.757  19.466  0.00  0.00    +0.000 A 
ATOM     17  C   UNL     1       1.889   7.520  20.363  0.00  0.00    +0.000 A 
ATOM     18  C   UNL     1       1.379   8.769  19.997  0.00  0.00    +0.000 A 
ATOM     19  C   UNL     1       1.622   9.225  18.693  0.00  0.00    +0.000 A 
ATOM     20  C   UNL     1       2.363   8.457  17.786  0.00  0.00    +0.000 A 
BRANCH  18  21
ATOM     21  C   UNL     1       0.609   9.572  20.955  0.00  0.00    +0.000 C 
ATOM     22  C   UNL     1       0.190  10.832  20.776  0.00  0.00    +0.000 C 
ATOM     23  C   UNL     1      -0.499  11.377  21.980  0.00  0.00    +0.000 C 
ATOM     24  C   UNL     1      -0.674  10.153  22.874  0.00  0.00    +0.000 C 
ATOM     25  C   UNL     1       0.262   9.075  22.328  0.00  0.00    +0.000 C 
ENDBRANCH  18  21
ENDBRANCH  14  15
ENDBRANCH   1  14
TORSDOF 7
ENDMDL
MODEL 2
REMARK VINA RESULT:      -7.9      1.338      1.907
REMARK  Name = 
REMARK  9 active torsions:
REMARK  status: ('A' for Active; 'I' for Inactive)
REMARK    1  A    between atoms: C_1  and  C_2
REMARK    2  A    between atoms: C_2  and  C_3
REMARK    3  A    between atoms: C_2  and  C_16
REMARK    4  A    between atoms: C_2  and  S_20
REMARK    5  A    between atoms: C_3  and  C_4
REMARK    6  A    between atoms: C_4  and  C_5
REMARK    7  A    between atoms: C_8  and  C_9
REMARK    8  A    between atoms: N_18  and  O_19
REMARK    9  A    between atoms: S_20  and  C_21
REMARK                            x       y       z     vdW  Elec       q    Type
REMARK                         _______ _______ _______ _____ _____    ______ ____
ROOT
ATOM      1  C   UNL     1       4.583   6.288  17.533  0.00  0.00    +0.000 C 
ENDROOT
BRANCH   1   3
ATOM      2  C   UNL     1       4.729   3.805  17.011  0.00  0.00    +0.000 C 
ATOM      3  C   UNL     1       5.505   5.043  17.494  0.00  0.00    +0.000 C 
BRANCH   3   4
ATOM      4  C   UNL     1       6.129   4.787  18.861  0.00  0.00    +0.000 C 
ATOM      5  O   UNL     1       5.717   3.913  19.628  0.00  0.00    +0.000 OA
ATOM      6  N   UNL     1       7.167   5.611  19.233  0.00  0.00    +0.000 N 
ATOM      7  H   UNL     1       7.795   6.031  18.541  0.00  0.00    +0.000 HD
BRANCH   6   8
ATOM      8  O   UNL     1       7.750   5.314  20.490  0.00  0.00    +0.000 OA
ATOM      9  H   UNL     1       8.713   5.336  20.295  0.00  0.00    +0.000 HD
ENDBRANCH   6   8
ENDBRANCH   3   4
BRANCH   3  10
ATOM     10  S   UNL     1       6.869   5.383  16.344  0.00  0.00    +0.000 S 
ATOM     11  C   UNL     1       6.264   5.019  14.709  0.00  0.00    +0.000 C 
ATOM     12  O   UNL     1       7.154   6.805  16.386  0.00  0.00    +0.000 OA
ATOM     13  O   UNL     1       7.928   4.428  16.631  0.00  0.00    +0.000 OA
ENDBRANCH   3  10
ENDBRANCH   1   3
BRANCH   1  14
ATOM     14  C   UNL     1       3.172   6.017  18.077  0.00  0.00    +0.000 C 
BRANCH  14  15
ATOM     15  C   UNL     1       2.499   7.274  18.567  0.00  0.00    +0.000 A 
ATOM     16  C   UNL     1       2.283   8.351  17.699  0.00  0.00    +0.000 A 
ATOM     17  C   UNL     1       1.646   9.510  18.148  0.00  0.00    +0.000 A 
ATOM     18  C   UNL     1       1.185   9.617  19.463  0.00  0.00    +0.000 A 
ATOM     19  C   UNL     1       1.402   8.535  20.329  0.00  0.00    +0.000 A 
ATOM     20  C   UNL     1       2.051   7.377  19.887  0.00  0.00    +0.000 A 
BRANCH  18  21
ATOM     21  C   UNL     1       0.497  10.833  19.918  0.00  0.00    +0.000 C 
ATOM     22  C   UNL     1       1.068  11.893  20.504  0.00  0.00    +0.000 C 
ATOM     23  C   UNL     1       0.070  12.923  20.910  0.00  0.00    +0.000 C 
ATOM     24  C   UNL     1      -1.220  12.448  20.247  0.00  0.00    +0.000 C 
ATOM     25  C   UNL     1      -0.993  10.991  19.843  0.00  0.00    +0.000 C 
ENDBRANCH  18  21
ENDBRANCH  14  15
ENDBRANCH   1  14
TORSDOF 7
ENDMDL
MODEL 3
REMARK VINA RESULT:      -7.8      1.486      2.210
REMARK  Name = 
REMARK  9 active torsions:
REMARK  status: ('A' for Active; 'I' for Inactive)
REMARK    1  A    between atoms: C_1  and  C_2
REMARK    2  A    between atoms: C_2  and  C_3
REMARK    3  A    between atoms: C_2  and  C_16
REMARK    4  A    between atoms: C_2  and  S_20
REMARK    5  A    between atoms: C_3  and  C_4
REMARK    6  A    between atoms: C_4  and  C_5
REMARK    7  A    between atoms: C_8  and  C_9
REMARK    8  A    between atoms: N_18  and  O_19
REMARK    9  A    between atoms: S_20  and  C_21
REMARK                            x       y       z     vdW  Elec       q    Type
REMARK                         _______ _______ _______ _____ _____    ______ ____
ROOT
ATOM      1  C   UNL     1       4.723   6.432  17.752  0.00  0.00    +0.000 C 
ENDROOT
BRANCH   1   3
ATOM      2  C   UNL     1       5.342   5.346  15.540  0.00  0.00    +0.000 C 
ATOM      3  C   UNL     1       5.551   5.319  17.065  0.00  0.00    +0.000 C 
BRANCH   3   4
ATOM      4  C   UNL     1       5.197   3.949  17.631  0.00  0.00    +0.000 C 
ATOM      5  O   UNL     1       4.635   3.078  16.962  0.00  0.00    +0.000 OA
ATOM      6  N   UNL     1       5.495   3.729  18.957  0.00  0.00    +0.000 N 
ATOM      7  H   UNL     1       6.283   4.198  19.415  0.00  0.00    +0.000 HD
BRANCH   6   8
ATOM      8  O   UNL     1       5.191   2.431  19.434  0.00  0.00    +0.000 OA
ATOM      9  H   UNL     1       5.945   2.236  20.034  0.00  0.00    +0.000 HD
ENDBRANCH   6   8
ENDBRANCH   3   4
BRANCH   3  10
ATOM     10  S   UNL     1       7.306   5.607  17.435  0.00  0.00    +0.000 S 
ATOM     11  C   UNL     1       7.408   5.996  19.169  0.00  0.00    +0.000 C 
ATOM     12  O   UNL     1       8.022   4.361  17.234  0.00  0.00    +0.000 OA
ATOM     13  O   UNL     1       7.715   6.797  16.705  0.00  0.00    +0.000 OA
ENDBRANCH   3  10
ENDBRANCH   1   3
BRANCH   1  14
ATOM     14  C   UNL     1       3.201   6.254  17.642  0.00  0.00    +0.000 C 
BRANCH  14  15
ATOM     15  C   UNL     1       2.449   7.188  18.555  0.00  0.00    +0.000 A 
ATOM     16  C   UNL     1       2.229   6.849  19.895  0.00  0.00    +0.000 A 
ATOM     17  C   UNL     1       1.546   7.720  20.748  0.00  0.00    +0.000 A 
ATOM     18  C   UNL     1       1.088   8.960  20.295  0.00  0.00    +0.000 A 
ATOM     19  C   UNL     1       1.312   9.296  18.952  0.00  0.00    +0.000 A 
ATOM     20  C   UNL     1       1.984   8.422  18.091  0.00  0.00    +0.000 A 
BRANCH  18  21
ATOM     21  C   UNL     1       0.390   9.877  21.206  0.00  0.00    +0.000 C 
ATOM     22  C   UNL     1       0.208  11.191  21.021  0.00  0.00    +0.000 C 
ATOM     23  C   UNL     1      -0.475  11.837  22.177  0.00  0.00    +0.000 C 
ATOM     24  C   UNL     1      -0.931  10.655  23.027  0.00  0.00    +0.000 C 
ATOM     25  C   UNL     1      -0.150   9.436  22.535  0.00  0.00    +0.000 C 
ENDBRANCH  18  21
ENDBRANCH  14  15
ENDBRANCH   1  14
TORSDOF 7
ENDMDL
MODEL 4
REMARK VINA RESULT:      -7.8      1.660      2.657
REMARK  Name = 
REMARK  9 active torsions:
REMARK  status: ('A' for Active; 'I' for Inactive)
REMARK    1  A    between atoms: C_1  and  C_2
REMARK    2  A    between atoms: C_2  and  C_3
REMARK    3  A    between atoms: C_2  and  C_16
REMARK    4  A    between atoms: C_2  and  S_20
REMARK    5  A    between atoms: C_3  and  C_4
REMARK    6  A    between atoms: C_4  and  C_5
REMARK    7  A    between atoms: C_8  and  C_9
REMARK    8  A    between atoms: N_18  and  O_19
REMARK    9  A    between atoms: S_20  and  C_21
REMARK                            x       y       z     vdW  Elec       q    Type
REMARK                         _______ _______ _______ _____ _____    ______ ____
ROOT
ATOM      1  C   UNL     1       4.829   6.491  17.921  0.00  0.00    +0.000 C 
ENDROOT
BRANCH   1   3
ATOM      2  C   UNL     1       5.044   5.143  15.778  0.00  0.00    +0.000 C 
ATOM      3  C   UNL     1       5.500   5.271  17.242  0.00  0.00    +0.000 C 
BRANCH   3   4
ATOM      4  C   UNL     1       5.202   3.989  18.011  0.00  0.00    +0.000 C 
ATOM      5  O   UNL     1       5.493   3.843  19.201  0.00  0.00    +0.000 OA
ATOM      6  N   UNL     1       4.620   2.962  17.302  0.00  0.00    +0.000 N 
ATOM      7  H   UNL     1       4.005   3.141  16.503  0.00  0.00    +0.000 HD
BRANCH   6   8
ATOM      8  O   UNL     1       4.319   1.803  18.061  0.00  0.00    +0.000 OA
ATOM      9  H   UNL     1       5.044   1.186  17.815  0.00  0.00    +0.000 HD
ENDBRANCH   6   8
ENDBRANCH   3   4
BRANCH   3  10
ATOM     10  S   UNL     1       7.299   5.512  17.291  0.00  0.00    +0.000 S 
ATOM     11  C   UNL     1       7.696   6.085  18.930  0.00  0.00    +0.000 C 
ATOM     12  O   UNL     1       7.935   4.219  17.127  0.00  0.00    +0.000 OA
ATOM     13  O   UNL     1       7.618   6.593  16.372  0.00  0.00    +0.000 OA
ENDBRANCH   3  10
ENDBRANCH   1   3
BRANCH   1  14
ATOM     14  C   UNL     1       3.419   6.813  17.402  0.00  0.00    +0.000 C 
BRANCH  14  15
ATOM     15  C   UNL     1       2.605   7.590  18.405  0.00  0.00    +0.000 A 
ATOM     16  C   UNL     1       2.012   8.807  18.050  0.00  0.00    +0.000 A 
ATOM     17  C   UNL     1       1.244   9.521  18.973  0.00  0.00    +0.000 A 
ATOM     18  C   UNL     1       1.026   9.029  20.263  0.00  0.00    +0.000 A 
ATOM     19  C   UNL     1       1.621   7.809  20.614  0.00  0.00    +0.000 A 
ATOM     20  C   UNL     1       2.401   7.096  19.696  0.00  0.00    +0.000 A 
BRANCH  18  21
ATOM     21  C   UNL     1       0.200   9.778  21.219  0.00  0.00    +0.000 C 
ATOM     22  C   UNL     1      -0.031   9.447  22.496  0.00  0.00    +0.000 C 
ATOM     23  C   UNL     1      -0.979  10.384  23.163  0.00  0.00    +0.000 C 
ATOM     24  C   UNL     1      -1.115  11.526  22.159  0.00  0.00    +0.000 C 
ATOM     25  C   UNL     1      -0.572  11.004  20.828  0.00  0.00    +0.000 C 
ENDBRANCH  18  21
ENDBRANCH  14  15
ENDBRANCH   1  14
TORSDOF 7
ENDMDL
MODEL 5
REMARK VINA RESULT:      -7.8      3.129      3.678
REMARK  Name = 
REMARK  9 active torsions:
REMARK  status: ('A' for Active; 'I' for Inactive)
REMARK    1  A    between atoms: C_1  and  C_2
REMARK    2  A    between atoms: C_2  and  C_3
REMARK    3  A    between atoms: C_2  and  C_16
REMARK    4  A    between atoms: C_2  and  S_20
REMARK    5  A    between atoms: C_3  and  C_4
REMARK    6  A    between atoms: C_4  and  C_5
REMARK    7  A    between atoms: C_8  and  C_9
REMARK    8  A    between atoms: N_18  and  O_19
REMARK    9  A    between atoms: S_20  and  C_21
REMARK                            x       y       z     vdW  Elec       q    Type
REMARK                         _______ _______ _______ _____ _____    ______ ____
ROOT
ATOM      1  C   UNL     1       3.406   5.848  19.113  0.00  0.00    +0.000 C 
ENDROOT
BRANCH   1   3
ATOM      2  C   UNL     1       1.743   4.536  17.709  0.00  0.00    +0.000 C 
ATOM      3  C   UNL     1       2.744   4.467  18.876  0.00  0.00    +0.000 C 
BRANCH   3   4
ATOM      4  C   UNL     1       2.058   3.968  20.142  0.00  0.00    +0.000 C 
ATOM      5  O   UNL     1       0.936   4.347  20.485  0.00  0.00    +0.000 OA
ATOM      6  N   UNL     1       2.771   3.091  20.929  0.00  0.00    +0.000 N 
ATOM      7  H   UNL     1       3.462   2.449  20.527  0.00  0.00    +0.000 HD
BRANCH   6   8
ATOM      8  O   UNL     1       2.084   2.616  22.073  0.00  0.00    +0.000 OA
ATOM      9  H   UNL     1       2.490   1.733  22.221  0.00  0.00    +0.000 HD
ENDBRANCH   6   8
ENDBRANCH   3   4
BRANCH   3  10
ATOM     10  S   UNL     1       4.051   3.272  18.475  0.00  0.00    +0.000 S 
ATOM     11  C   UNL     1       4.673   3.711  16.866  0.00  0.00    +0.000 C 
ATOM     12  O   UNL     1       5.139   3.458  19.417  0.00  0.00    +0.000 OA
ATOM     13  O   UNL     1       3.423   1.966  18.350  0.00  0.00    +0.000 OA
ENDBRANCH   3  10
ENDBRANCH   1   3
BRANCH   1  14
ATOM     14  C   UNL     1       2.843   6.981  18.242  0.00  0.00    +0.000 C 
BRANCH  14  15
ATOM     15  C   UNL     1       1.999   7.946  19.036  0.00  0.00    +0.000 A 
ATOM     16  C   UNL     1       1.754   7.724  20.396  0.00  0.00    +0.000 A 
ATOM     17  C   UNL     1       0.986   8.624  21.138  0.00  0.00    +0.000 A 
ATOM     18  C   UNL     1       0.464   9.780  20.552  0.00  0.00    +0.000 A 
ATOM     19  C   UNL     1       0.713  10.000  19.189  0.00  0.00    +0.000 A 
ATOM     20  C   UNL     1       1.472   9.094  18.439  0.00  0.00    +0.000 A 
BRANCH  18  21
ATOM     21  C   UNL     1      -0.325  10.731  21.346  0.00  0.00    +0.000 C 
ATOM     22  C   UNL     1      -0.704  10.573  22.621  0.00  0.00    +0.000 C 
ATOM     23  C   UNL     1      -1.562  11.694  23.100  0.00  0.00    +0.000 C 
ATOM     24  C   UNL     1      -1.454  12.728  21.983  0.00  0.00    +0.000 C 
ATOM     25  C   UNL     1      -0.882  11.998  20.767  0.00  0.00    +0.000 C 
ENDBRANCH  18  21
ENDBRANCH  14  15
ENDBRANCH   1  14
TORSDOF 7
ENDMDL
MODEL 6
REMARK VINA RESULT:      -7.7      1.017      1.458
REMARK  Name = 
REMARK  9 active torsions:
REMARK  status: ('A' for Active; 'I' for Inactive)
REMARK    1  A    between atoms: C_1  and  C_2
REMARK    2  A    between atoms: C_2  and  C_3
REMARK    3  A    between atoms: C_2  and  C_16
REMARK    4  A    between atoms: C_2  and  S_20
REMARK    5  A    between atoms: C_3  and  C_4
REMARK    6  A    between atoms: C_4  and  C_5
REMARK    7  A    between atoms: C_8  and  C_9
REMARK    8  A    between atoms: N_18  and  O_19
REMARK    9  A    between atoms: S_20  and  C_21
REMARK                            x       y       z     vdW  Elec       q    Type
REMARK                         _______ _______ _______ _____ _____    ______ ____
ROOT
ATOM      1  C   UNL     1       4.656   6.636  17.636  0.00  0.00    +0.000 C 
ENDROOT
BRANCH   1   3
ATOM      2  C   UNL     1       5.165   4.164  17.928  0.00  0.00    +0.000 C 
ATOM      3  C   UNL     1       5.731   5.529  17.499  0.00  0.00    +0.000 C 
BRANCH   3   4
ATOM      4  C   UNL     1       6.974   5.874  18.310  0.00  0.00    +0.000 C 
ATOM      5  O   UNL     1       7.507   5.075  19.083  0.00  0.00    +0.000 OA
ATOM      6  N   UNL     1       7.467   7.153  18.176  0.00  0.00    +0.000 N 
ATOM      7  H   UNL     1       7.354   7.684  17.307  0.00  0.00    +0.000 HD
BRANCH   6   8
ATOM      8  O   UNL     1       8.647   7.422  18.912  0.00  0.00    +0.000 OA
ATOM      9  H   UNL     1       8.302   7.666  19.799  0.00  0.00    +0.000 HD
ENDBRANCH   6   8
ENDBRANCH   3   4
BRANCH   3  10
ATOM     10  S   UNL     1       6.241   5.446  15.757  0.00  0.00    +0.000 S 
ATOM     11  C   UNL     1       5.975   3.768  15.224  0.00  0.00    +0.000 C 
ATOM     12  O   UNL     1       5.347   6.286  14.983  0.00  0.00    +0.000 OA
ATOM     13  O   UNL     1       7.674   5.687  15.712  0.00  0.00    +0.000 OA
ENDBRANCH   3  10
ENDBRANCH   1   3
BRANCH   1  14
ATOM     14  C   UNL     1       3.236   6.115  17.906  0.00  0.00    +0.000 C 
BRANCH  14  15
ATOM     15  C   UNL     1       2.445   7.047  18.788  0.00  0.00    +0.000 A 
ATOM     16  C   UNL     1       2.086   6.666  20.086  0.00  0.00    +0.000 A 
ATOM     17  C   UNL     1       1.366   7.534  20.910  0.00  0.00    +0.000 A 
ATOM     18  C   UNL     1       1.008   8.813  20.473  0.00  0.00    +0.000 A 
ATOM     19  C   UNL     1       1.372   9.192  19.173  0.00  0.00    +0.000 A 
ATOM     20  C   UNL     1       2.082   8.320  18.339  0.00  0.00    +0.000 A 
BRANCH  18  21
ATOM     21  C   UNL     1       0.270   9.725  21.356  0.00  0.00    +0.000 C 
ATOM     22  C   UNL     1      -0.219   9.431  22.568  0.00  0.00    +0.000 C 
ATOM     23  C   UNL     1      -0.984  10.565  23.161  0.00  0.00    +0.000 C 
ATOM     24  C   UNL     1      -0.680  11.728  22.222  0.00  0.00    +0.000 C 
ATOM     25  C   UNL     1      -0.101  11.120  20.945  0.00  0.00    +0.000 C 
ENDBRANCH  18  21
ENDBRANCH  14  15
ENDBRANCH   1  14
TORSDOF 7
ENDMDL
MODEL 7
REMARK VINA RESULT:      -7.7      3.277      3.858
REMARK  Name = 
REMARK  9 active torsions:
REMARK  status: ('A' for Active; 'I' for Inactive)
REMARK    1  A    between atoms: C_1  and  C_2
REMARK    2  A    between atoms: C_2  and  C_3
REMARK    3  A    between atoms: C_2  and  C_16
REMARK    4  A    between atoms: C_2  and  S_20
REMARK    5  A    between atoms: C_3  and  C_4
REMARK    6  A    between atoms: C_4  and  C_5
REMARK    7  A    between atoms: C_8  and  C_9
REMARK    8  A    between atoms: N_18  and  O_19
REMARK    9  A    between atoms: S_20  and  C_21
REMARK                            x       y       z     vdW  Elec       q    Type
REMARK                         _______ _______ _______ _____ _____    ______ ____
ROOT
ATOM      1  C   UNL     1       3.305   5.524  19.305  0.00  0.00    +0.000 C 
ENDROOT
BRANCH   1   3
ATOM      2  C   UNL     1       1.682   4.450  17.671  0.00  0.00    +0.000 C 
ATOM      3  C   UNL     1       2.619   4.206  18.867  0.00  0.00    +0.000 C 
BRANCH   3   4
ATOM      4  C   UNL     1       1.856   3.578  20.027  0.00  0.00    +0.000 C 
ATOM      5  O   UNL     1       0.683   3.209  19.931  0.00  0.00    +0.000 OA
ATOM      6  N   UNL     1       2.526   3.473  21.226  0.00  0.00    +0.000 N 
ATOM      7  H   UNL     1       3.544   3.362  21.264  0.00  0.00    +0.000 HD
BRANCH   6   8
ATOM      8  O   UNL     1       1.799   2.845  22.267  0.00  0.00    +0.000 OA
ATOM      9  H   UNL     1       2.201   3.230  23.078  0.00  0.00    +0.000 HD
ENDBRANCH   6   8
ENDBRANCH   3   4
BRANCH   3  10
ATOM     10  S   UNL     1       3.913   3.026  18.384  0.00  0.00    +0.000 S 
ATOM     11  C   UNL     1       4.699   3.693  16.932  0.00  0.00    +0.000 C 
ATOM     12  O   UNL     1       4.913   2.995  19.434  0.00  0.00    +0.000 OA
ATOM     13  O   UNL     1       3.251   1.794  17.984  0.00  0.00    +0.000 OA
ENDBRANCH   3  10
ENDBRANCH   1   3
BRANCH   1  14
ATOM     14  C   UNL     1       2.927   6.749  18.459  0.00  0.00    +0.000 C 
BRANCH  14  15
ATOM     15  C   UNL     1       2.099   7.743  19.234  0.00  0.00    +0.000 A 
ATOM     16  C   UNL     1       1.635   8.913  18.621  0.00  0.00    +0.000 A 
ATOM     17  C   UNL     1       0.855   9.829  19.332  0.00  0.00    +0.000 A 
ATOM     18  C   UNL     1       0.495   9.590  20.662  0.00  0.00    +0.000 A 
ATOM     19  C   UNL     1       0.960   8.415  21.271  0.00  0.00    +0.000 A 
ATOM     20  C   UNL     1       1.753   7.502  20.566  0.00  0.00    +0.000 A 
BRANCH  18  21
ATOM     21  C   UNL     1      -0.343  10.549  21.393  0.00  0.00    +0.000 C 
ATOM     22  C   UNL     1      -0.828  11.702  20.914  0.00  0.00    +0.000 C 
ATOM     23  C   UNL     1      -1.577  12.473  21.947  0.00  0.00    +0.000 C 
ATOM     24  C   UNL     1      -1.706  11.487  23.104  0.00  0.00    +0.000 C 
ATOM     25  C   UNL     1      -0.696  10.370  22.840  0.00  0.00    +0.000 C 
ENDBRANCH  18  21
ENDBRANCH  14  15
ENDBRANCH   1  14
TORSDOF 7
ENDMDL
MODEL 8
REMARK VINA RESULT:      -7.6      2.712      3.337
REMARK  Name = 
REMARK  9 active torsions:
REMARK  status: ('A' for Active; 'I' for Inactive)
REMARK    1  A    between atoms: C_1  and  C_2
REMARK    2  A    between atoms: C_2  and  C_3
REMARK    3  A    between atoms: C_2  and  C_16
REMARK    4  A    between atoms: C_2  and  S_20
REMARK    5  A    between atoms: C_3  and  C_4
REMARK    6  A    between atoms: C_4  and  C_5
REMARK    7  A    between atoms: C_8  and  C_9
REMARK    8  A    between atoms: N_18  and  O_19
REMARK    9  A    between atoms: S_20  and  C_21
REMARK                            x       y       z     vdW  Elec       q    Type
REMARK                         _______ _______ _______ _____ _____    ______ ____
ROOT
ATOM      1  C   UNL     1       2.453   5.256  18.114  0.00  0.00    +0.000 C 
ENDROOT
BRANCH   1   3
ATOM      2  C   UNL     1       2.956   4.080  20.309  0.00  0.00    +0.000 C 
ATOM      3  C   UNL     1       3.197   4.077  18.789  0.00  0.00    +0.000 C 
BRANCH   3   4
ATOM      4  C   UNL     1       4.689   4.127  18.482  0.00  0.00    +0.000 C 
ATOM      5  O   UNL     1       5.532   4.438  19.326  0.00  0.00    +0.000 OA
ATOM      6  N   UNL     1       5.065   3.846  17.187  0.00  0.00    +0.000 N 
ATOM      7  H   UNL     1       4.520   3.212  16.595  0.00  0.00    +0.000 HD
BRANCH   6   8
ATOM      8  O   UNL     1       6.461   3.860  16.951  0.00  0.00    +0.000 OA
ATOM      9  H   UNL     1       6.814   3.315  17.689  0.00  0.00    +0.000 HD
ENDBRANCH   6   8
ENDBRANCH   3   4
BRANCH   3  10
ATOM     10  S   UNL     1       2.562   2.528  18.085  0.00  0.00    +0.000 S 
ATOM     11  C   UNL     1       1.007   2.198  18.887  0.00  0.00    +0.000 C 
ATOM     12  O   UNL     1       2.278   2.751  16.680  0.00  0.00    +0.000 OA
ATOM     13  O   UNL     1       3.478   1.467  18.474  0.00  0.00    +0.000 OA
ENDBRANCH   3  10
ENDBRANCH   1   3
BRANCH   1  14
ATOM     14  C   UNL     1       3.151   6.617  18.261  0.00  0.00    +0.000 C 
BRANCH  14  15
ATOM     15  C   UNL     1       2.327   7.597  19.056  0.00  0.00    +0.000 A 
ATOM     16  C   UNL     1       1.838   8.764  18.459  0.00  0.00    +0.000 A 
ATOM     17  C   UNL     1       1.061   9.667  19.189  0.00  0.00    +0.000 A 
ATOM     18  C   UNL     1       0.731   9.418  20.524  0.00  0.00    +0.000 A 
ATOM     19  C   UNL     1       1.221   8.247  21.119  0.00  0.00    +0.000 A 
ATOM     20  C   UNL     1       2.011   7.346  20.394  0.00  0.00    +0.000 A 
BRANCH  18  21
ATOM     21  C   UNL     1      -0.105  10.364  21.276  0.00  0.00    +0.000 C 
ATOM     22  C   UNL     1      -0.571  11.537  20.829  0.00  0.00    +0.000 C 
ATOM     23  C   UNL     1      -1.322  12.285  21.877  0.00  0.00    +0.000 C 
ATOM     24  C   UNL     1      -1.475  11.265  23.002  0.00  0.00    +0.000 C 
ATOM     25  C   UNL     1      -0.475  10.144  22.714  0.00  0.00    +0.000 C 
ENDBRANCH  18  21
ENDBRANCH  14  15
ENDBRANCH   1  14
TORSDOF 7
ENDMDL
MODEL 9
REMARK VINA RESULT:      -7.6      1.823      2.524
REMARK  Name = 
REMARK  9 active torsions:
REMARK  status: ('A' for Active; 'I' for Inactive)
REMARK    1  A    between atoms: C_1  and  C_2
REMARK    2  A    between atoms: C_2  and  C_3
REMARK    3  A    between atoms: C_2  and  C_16
REMARK    4  A    between atoms: C_2  and  S_20
REMARK    5  A    between atoms: C_3  and  C_4
REMARK    6  A    between atoms: C_4  and  C_5
REMARK    7  A    between atoms: C_8  and  C_9
REMARK    8  A    between atoms: N_18  and  O_19
REMARK    9  A    between atoms: S_20  and  C_21
REMARK                            x       y       z     vdW  Elec       q    Type
REMARK                         _______ _______ _______ _____ _____    ______ ____
ROOT
ATOM      1  C   UNL     1       4.484   6.319  17.819  0.00  0.00    +0.000 C 
ENDROOT
BRANCH   1   3
ATOM      2  C   UNL     1       4.538   4.165  16.473  0.00  0.00    +0.000 C 
ATOM      3  C   UNL     1       5.274   5.020  17.519  0.00  0.00    +0.000 C 
BRANCH   3   4
ATOM      4  C   UNL     1       5.513   4.221  18.794  0.00  0.00    +0.000 C 
ATOM      5  O   UNL     1       6.154   4.667  19.748  0.00  0.00    +0.000 OA
ATOM      6  N   UNL     1       5.011   2.939  18.826  0.00  0.00    +0.000 N 
ATOM      7  H   UNL     1       4.171   2.678  18.301  0.00  0.00    +0.000 HD
BRANCH   6   8
ATOM      8  O   UNL     1       5.215   2.244  20.043  0.00  0.00    +0.000 OA
ATOM      9  H   UNL     1       5.290   1.309  19.752  0.00  0.00    +0.000 HD
ENDBRANCH   6   8
ENDBRANCH   3   4
BRANCH   3  10
ATOM     10  S   UNL     1       6.906   5.486  16.871  0.00  0.00    +0.000 S 
ATOM     11  C   UNL     1       7.374   6.994  17.695  0.00  0.00    +0.000 C 
ATOM     12  O   UNL     1       7.859   4.468  17.271  0.00  0.00    +0.000 OA
ATOM     13  O   UNL     1       6.740   5.803  15.461  0.00  0.00    +0.000 OA
ENDBRANCH   3  10
ENDBRANCH   1   3
BRANCH   1  14
ATOM     14  C   UNL     1       3.322   6.142  18.808  0.00  0.00    +0.000 C 
BRANCH  14  15
ATOM     15  C   UNL     1       2.469   7.381  18.914  0.00  0.00    +0.000 A 
ATOM     16  C   UNL     1       1.886   7.741  20.134  0.00  0.00    +0.000 A 
ATOM     17  C   UNL     1       1.109   8.897  20.239  0.00  0.00    +0.000 A 
ATOM     18  C   UNL     1       0.914   9.736  19.138  0.00  0.00    +0.000 A 
ATOM     19  C   UNL     1       1.502   9.373  17.918  0.00  0.00    +0.000 A 
ATOM     20  C   UNL     1       2.271   8.209  17.806  0.00  0.00    +0.000 A 
BRANCH  18  21
ATOM     21  C   UNL     1       0.112  10.960  19.265  0.00  0.00    +0.000 C 
ATOM     22  C   UNL     1       0.544  12.147  19.713  0.00  0.00    +0.000 C 
ATOM     23  C   UNL     1      -0.550  13.157  19.786  0.00  0.00    +0.000 C 
ATOM     24  C   UNL     1      -1.709  12.480  19.060  0.00  0.00    +0.000 C 
ATOM     25  C   UNL     1      -1.359  10.994  18.968  0.00  0.00    +0.000 C 
ENDBRANCH  18  21
ENDBRANCH  14  15
ENDBRANCH   1  14
TORSDOF 7
ENDMDL
