MODEL 1
REMARK VINA RESULT:      -6.9      0.000      0.000
REMARK  Name = 
REMARK  11 active torsions:
REMARK  status: ('A' for Active; 'I' for Inactive)
REMARK    1  A    between atoms: C_1  and  C_2
REMARK    2  A    between atoms: C_2  and  C_3
REMARK    3  A    between atoms: C_3  and  C_4
REMARK    4  A    between atoms: C_4  and  N_5
REMARK    5  A    between atoms: N_5  and  C_6
REMARK    6  A    between atoms: C_15  and  C_16
REMARK    7  A    between atoms: N_18  and  C_19
REMARK    8  A    between atoms: C_19  and  C_20
REMARK    9  A    between atoms: C_19  and  C_21
REMARK   10  A    between atoms: C_26  and  O_27
REMARK   11  A    between atoms: O_27  and  C_28
REMARK                            x       y       z     vdW  Elec       q    Type
REMARK                         _______ _______ _______ _____ _____    ______ ____
ROOT
ATOM      1  C   UNL     1       1.657   7.167  21.027  0.00  0.00    +0.000 A 
ATOM      2  N   UNL     1       0.916   7.769  21.987  0.00  0.00    +0.000 NA
ATOM      3  C   UNL     1       0.237   8.851  21.663  0.00  0.00    +0.000 A 
ATOM      4  N   UNL     1      -0.675   9.318  22.576  0.00  0.00    +0.000 N 
ATOM      5  N   UNL     1       0.337   9.434  20.481  0.00  0.00    +0.000 NA
ATOM      6  C   UNL     1       1.207   8.924  19.598  0.00  0.00    +0.000 A 
ATOM      7  C   UNL     1       1.286   9.602  18.401  0.00  0.00    +0.000 A 
ATOM      8  C   UNL     1       2.133   9.201  17.376  0.00  0.00    +0.000 A 
ATOM      9  C   UNL     1       2.906   8.063  17.528  0.00  0.00    +0.000 A 
ATOM     10  C   UNL     1       2.817   7.274  18.693  0.00  0.00    +0.000 A 
ATOM     11  C   UNL     1       1.964   7.744  19.782  0.00  0.00    +0.000 A 
ATOM     12  H   UNL     1      -0.847   8.711  23.364  0.00  0.00    +0.000 HD
ATOM     13  H   UNL     1      -1.375   9.965  22.253  0.00  0.00    +0.000 HD
ENDROOT
BRANCH  10  14
ATOM     14  C   UNL     1       3.729   6.031  18.717  0.00  0.00    +0.000 C 
ATOM     15  O   UNL     1       4.508   5.856  19.646  0.00  0.00    +0.000 OA
ATOM     16  N   UNL     1       3.677   5.217  17.576  0.00  0.00    +0.000 N 
ATOM     17  H   UNL     1       2.961   5.436  16.901  0.00  0.00    +0.000 HD
BRANCH  16  18
ATOM     18  C   UNL     1       4.540   4.071  17.140  0.00  0.00    +0.000 C 
ATOM     19  C   UNL     1       3.765   2.760  16.941  0.00  0.00    +0.000 C 
BRANCH  18  20
ATOM     20  C   UNL     1       5.482   4.355  15.968  0.00  0.00    +0.000 A 
ATOM     21  C   UNL     1       5.219   3.716  14.746  0.00  0.00    +0.000 A 
ATOM     22  C   UNL     1       6.024   3.920  13.625  0.00  0.00    +0.000 A 
ATOM     23  C   UNL     1       7.149   4.736  13.713  0.00  0.00    +0.000 A 
ATOM     24  C   UNL     1       7.464   5.359  14.925  0.00  0.00    +0.000 A 
ATOM     25  C   UNL     1       6.631   5.186  16.050  0.00  0.00    +0.000 A 
BRANCH  25  26
ATOM     26  O   UNL     1       6.774   6.027  17.128  0.00  0.00    +0.000 OA
ATOM     27  C   UNL     1       7.642   5.607  18.179  0.00  0.00    +0.000 C 
ENDBRANCH  25  26
ENDBRANCH  18  20
ENDBRANCH  16  18
ENDBRANCH  10  14
BRANCH   1  28
ATOM     28  N   UNL     1       1.995   5.837  21.251  0.00  0.00    +0.000 N 
ATOM     29  H   UNL     1       2.129   5.719  22.263  0.00  0.00    +0.000 HD
BRANCH  28  30
ATOM     30  C   UNL     1       1.141   4.815  20.639  0.00  0.00    +0.000 C 
BRANCH  30  31
ATOM     31  C   UNL     1       1.417   3.324  21.018  0.00  0.00    +0.000 C 
BRANCH  31  33
ATOM     32  C   UNL     1       0.648   2.381  18.690  0.00  0.00    +0.000 C 
ATOM     33  C   UNL     1       1.551   2.275  19.920  0.00  0.00    +0.000 C 
ENDBRANCH  31  33
ENDBRANCH  30  31
ENDBRANCH  28  30
ENDBRANCH   1  28
TORSDOF 8
ENDMDL
MODEL 2
REMARK VINA RESULT:      -6.9      2.582      7.467
REMARK  Name = 
REMARK  11 active torsions:
REMARK  status: ('A' for Active; 'I' for Inactive)
REMARK    1  A    between atoms: C_1  and  C_2
REMARK    2  A    between atoms: C_2  and  C_3
REMARK    3  A    between atoms: C_3  and  C_4
REMARK    4  A    between atoms: C_4  and  N_5
REMARK    5  A    between atoms: N_5  and  C_6
REMARK    6  A    between atoms: C_15  and  C_16
REMARK    7  A    between atoms: N_18  and  C_19
REMARK    8  A    between atoms: C_19  and  C_20
REMARK    9  A    between atoms: C_19  and  C_21
REMARK   10  A    between atoms: C_26  and  O_27
REMARK   11  A    between atoms: O_27  and  C_28
REMARK                            x       y       z     vdW  Elec       q    Type
REMARK                         _______ _______ _______ _____ _____    ______ ____
ROOT
ATOM      1  C   UNL     1       4.566   4.373  19.503  0.00  0.00    +0.000 A 
ATOM      2  N   UNL     1       5.175   3.353  20.155  0.00  0.00    +0.000 NA
ATOM      3  C   UNL     1       4.686   2.139  20.006  0.00  0.00    +0.000 A 
ATOM      4  N   UNL     1       5.435   1.095  20.488  0.00  0.00    +0.000 N 
ATOM      5  N   UNL     1       3.567   1.891  19.346  0.00  0.00    +0.000 NA
ATOM      6  C   UNL     1       2.883   2.933  18.851  0.00  0.00    +0.000 A 
ATOM      7  C   UNL     1       1.711   2.606  18.205  0.00  0.00    +0.000 A 
ATOM      8  C   UNL     1       0.887   3.565  17.632  0.00  0.00    +0.000 A 
ATOM      9  C   UNL     1       1.257   4.898  17.664  0.00  0.00    +0.000 A 
ATOM     10  C   UNL     1       2.482   5.298  18.236  0.00  0.00    +0.000 A 
ATOM     11  C   UNL     1       3.306   4.281  18.886  0.00  0.00    +0.000 A 
ATOM     12  H   UNL     1       6.366   1.338  20.793  0.00  0.00    +0.000 HD
ATOM     13  H   UNL     1       5.218   0.169  20.160  0.00  0.00    +0.000 HD
ENDROOT
BRANCH  10  14
ATOM     14  C   UNL     1       2.765   6.813  18.193  0.00  0.00    +0.000 C 
ATOM     15  O   UNL     1       3.800   7.233  17.689  0.00  0.00    +0.000 OA
ATOM     16  N   UNL     1       1.834   7.625  18.858  0.00  0.00    +0.000 N 
ATOM     17  H   UNL     1       0.999   7.169  19.191  0.00  0.00    +0.000 HD
BRANCH  16  18
ATOM     18  C   UNL     1       1.869   9.081  19.213  0.00  0.00    +0.000 C 
ATOM     19  C   UNL     1       1.640  10.011  18.012  0.00  0.00    +0.000 C 
BRANCH  18  20
ATOM     20  C   UNL     1       1.021   9.493  20.417  0.00  0.00    +0.000 A 
ATOM     21  C   UNL     1       0.439   8.475  21.190  0.00  0.00    +0.000 A 
ATOM     22  C   UNL     1      -0.346   8.761  22.306  0.00  0.00    +0.000 A 
ATOM     23  C   UNL     1      -0.612  10.082  22.653  0.00  0.00    +0.000 A 
ATOM     24  C   UNL     1      -0.081  11.124  21.884  0.00  0.00    +0.000 A 
ATOM     25  C   UNL     1       0.745  10.839  20.778  0.00  0.00    +0.000 A 
BRANCH  25  26
ATOM     26  O   UNL     1       1.497  11.848  20.222  0.00  0.00    +0.000 OA
ATOM     27  C   UNL     1       1.263  13.175  20.690  0.00  0.00    +0.000 C 
ENDBRANCH  25  26
ENDBRANCH  18  20
ENDBRANCH  16  18
ENDBRANCH  10  14
BRANCH   1  28
ATOM     28  N   UNL     1       5.323   5.524  19.315  0.00  0.00    +0.000 N 
ATOM     29  H   UNL     1       5.207   6.110  20.152  0.00  0.00    +0.000 HD
BRANCH  28  30
ATOM     30  C   UNL     1       6.717   5.351  18.896  0.00  0.00    +0.000 C 
BRANCH  30  31
ATOM     31  C   UNL     1       7.065   5.664  17.405  0.00  0.00    +0.000 C 
BRANCH  31  33
ATOM     32  C   UNL     1       5.375   4.411  15.832  0.00  0.00    +0.000 C 
ATOM     33  C   UNL     1       6.806   4.613  16.331  0.00  0.00    +0.000 C 
ENDBRANCH  31  33
ENDBRANCH  30  31
ENDBRANCH  28  30
ENDBRANCH   1  28
TORSDOF 8
ENDMDL
MODEL 3
REMARK VINA RESULT:      -6.7      6.214     11.181
REMARK  Name = 
REMARK  11 active torsions:
REMARK  status: ('A' for Active; 'I' for Inactive)
REMARK    1  A    between atoms: C_1  and  C_2
REMARK    2  A    between atoms: C_2  and  C_3
REMARK    3  A    between atoms: C_3  and  C_4
REMARK    4  A    between atoms: C_4  and  N_5
REMARK    5  A    between atoms: N_5  and  C_6
REMARK    6  A    between atoms: C_15  and  C_16
REMARK    7  A    between atoms: N_18  and  C_19
REMARK    8  A    between atoms: C_19  and  C_20
REMARK    9  A    between atoms: C_19  and  C_21
REMARK   10  A    between atoms: C_26  and  O_27
REMARK   11  A    between atoms: O_27  and  C_28
REMARK                            x       y       z     vdW  Elec       q    Type
REMARK                         _______ _______ _______ _____ _____    ______ ____
ROOT
ATOM      1  C   UNL     1      -0.490  11.241  19.399  0.00  0.00    +0.000 A 
ATOM      2  N   UNL     1       0.382  10.787  18.467  0.00  0.00    +0.000 NA
ATOM      3  C   UNL     1       1.124   9.739  18.766  0.00  0.00    +0.000 A 
ATOM      4  N   UNL     1       1.835   9.160  17.745  0.00  0.00    +0.000 N 
ATOM      5  N   UNL     1       1.136   9.187  19.967  0.00  0.00    +0.000 NA
ATOM      6  C   UNL     1       0.394   9.755  20.929  0.00  0.00    +0.000 A 
ATOM      7  C   UNL     1       0.480   9.150  22.164  0.00  0.00    +0.000 A 
ATOM      8  C   UNL     1      -0.228   9.609  23.266  0.00  0.00    +0.000 A 
ATOM      9  C   UNL     1      -1.086  10.687  23.133  0.00  0.00    +0.000 A 
ATOM     10  C   UNL     1      -1.286  11.305  21.882  0.00  0.00    +0.000 A 
ATOM     11  C   UNL     1      -0.488  10.845  20.748  0.00  0.00    +0.000 A 
ATOM     12  H   UNL     1       1.621   9.504  16.821  0.00  0.00    +0.000 HD
ATOM     13  H   UNL     1       2.188   8.229  17.887  0.00  0.00    +0.000 HD
ENDROOT
BRANCH  10  14
ATOM     14  C   UNL     1      -2.276  12.487  21.882  0.00  0.00    +0.000 C 
ATOM     15  O   UNL     1      -1.933  13.580  21.449  0.00  0.00    +0.000 OA
ATOM     16  N   UNL     1      -3.510  12.246  22.506  0.00  0.00    +0.000 N 
ATOM     17  H   UNL     1      -3.695  11.294  22.779  0.00  0.00    +0.000 HD
BRANCH  16  18
ATOM     18  C   UNL     1      -4.622  13.176  22.888  0.00  0.00    +0.000 C 
ATOM     19  C   UNL     1      -4.173  14.325  23.804  0.00  0.00    +0.000 C 
BRANCH  18  20
ATOM     20  C   UNL     1      -5.495  13.678  21.737  0.00  0.00    +0.000 A 
ATOM     21  C   UNL     1      -5.346  15.015  21.336  0.00  0.00    +0.000 A 
ATOM     22  C   UNL     1      -6.099  15.556  20.294  0.00  0.00    +0.000 A 
ATOM     23  C   UNL     1      -7.062  14.780  19.654  0.00  0.00    +0.000 A 
ATOM     24  C   UNL     1      -7.266  13.455  20.052  0.00  0.00    +0.000 A 
ATOM     25  C   UNL     1      -6.480  12.894  21.080  0.00  0.00    +0.000 A 
BRANCH  25  26
ATOM     26  O   UNL     1      -6.475  11.530  21.254  0.00  0.00    +0.000 OA
ATOM     27  C   UNL     1      -7.330  10.757  20.414  0.00  0.00    +0.000 C 
ENDBRANCH  25  26
ENDBRANCH  18  20
ENDBRANCH  16  18
ENDBRANCH  10  14
BRANCH   1  28
ATOM     28  N   UNL     1      -1.537  12.028  18.932  0.00  0.00    +0.000 N 
ATOM     29  H   UNL     1      -1.144  12.693  18.254  0.00  0.00    +0.000 HD
BRANCH  28  30
ATOM     30  C   UNL     1      -2.741  11.336  18.462  0.00  0.00    +0.000 C 
BRANCH  30  31
ATOM     31  C   UNL     1      -2.554   9.921  17.824  0.00  0.00    +0.000 C 
BRANCH  31  33
ATOM     32  C   UNL     1      -3.041  10.964  15.463  0.00  0.00    +0.000 C 
ATOM     33  C   UNL     1      -2.758   9.733  16.325  0.00  0.00    +0.000 C 
ENDBRANCH  31  33
ENDBRANCH  30  31
ENDBRANCH  28  30
ENDBRANCH   1  28
TORSDOF 8
ENDMDL
MODEL 4
REMARK VINA RESULT:      -6.6      2.635      8.049
REMARK  Name = 
REMARK  11 active torsions:
REMARK  status: ('A' for Active; 'I' for Inactive)
REMARK    1  A    between atoms: C_1  and  C_2
REMARK    2  A    between atoms: C_2  and  C_3
REMARK    3  A    between atoms: C_3  and  C_4
REMARK    4  A    between atoms: C_4  and  N_5
REMARK    5  A    between atoms: N_5  and  C_6
REMARK    6  A    between atoms: C_15  and  C_16
REMARK    7  A    between atoms: N_18  and  C_19
REMARK    8  A    between atoms: C_19  and  C_20
REMARK    9  A    between atoms: C_19  and  C_21
REMARK   10  A    between atoms: C_26  and  O_27
REMARK   11  A    between atoms: O_27  and  C_28
REMARK                            x       y       z     vdW  Elec       q    Type
REMARK                         _______ _______ _______ _____ _____    ______ ____
ROOT
ATOM      1  C   UNL     1       5.365   6.257  17.779  0.00  0.00    +0.000 A 
ATOM      2  N   UNL     1       6.650   5.842  17.673  0.00  0.00    +0.000 NA
ATOM      3  C   UNL     1       6.975   4.678  18.199  0.00  0.00    +0.000 A 
ATOM      4  N   UNL     1       8.214   4.174  17.895  0.00  0.00    +0.000 N 
ATOM      5  N   UNL     1       6.133   3.957  18.920  0.00  0.00    +0.000 NA
ATOM      6  C   UNL     1       4.916   4.463  19.161  0.00  0.00    +0.000 A 
ATOM      7  C   UNL     1       4.103   3.675  19.947  0.00  0.00    +0.000 A 
ATOM      8  C   UNL     1       2.810   4.049  20.286  0.00  0.00    +0.000 A 
ATOM      9  C   UNL     1       2.285   5.233  19.797  0.00  0.00    +0.000 A 
ATOM     10  C   UNL     1       3.029   6.050  18.922  0.00  0.00    +0.000 A 
ATOM     11  C   UNL     1       4.408   5.668  18.624  0.00  0.00    +0.000 A 
ATOM     12  H   UNL     1       8.719   4.675  17.180  0.00  0.00    +0.000 HD
ATOM     13  H   UNL     1       8.377   3.195  18.062  0.00  0.00    +0.000 HD
ENDROOT
BRANCH  10  14
ATOM     14  C   UNL     1       2.314   7.332  18.450  0.00  0.00    +0.000 C 
ATOM     15  O   UNL     1       2.323   7.643  17.266  0.00  0.00    +0.000 OA
ATOM     16  N   UNL     1       1.779   8.138  19.466  0.00  0.00    +0.000 N 
ATOM     17  H   UNL     1       1.790   7.752  20.397  0.00  0.00    +0.000 HD
BRANCH  16  18
ATOM     18  C   UNL     1       1.214   9.526  19.431  0.00  0.00    +0.000 C 
ATOM     19  C   UNL     1       0.379   9.816  18.174  0.00  0.00    +0.000 C 
BRANCH  18  20
ATOM     20  C   UNL     1       0.500   9.987  20.703  0.00  0.00    +0.000 A 
ATOM     21  C   UNL     1       0.096   9.005  21.621  0.00  0.00    +0.000 A 
ATOM     22  C   UNL     1      -0.557   9.336  22.808  0.00  0.00    +0.000 A 
ATOM     23  C   UNL     1      -0.870  10.663  23.085  0.00  0.00    +0.000 A 
ATOM     24  C   UNL     1      -0.518  11.666  22.175  0.00  0.00    +0.000 A 
ATOM     25  C   UNL     1       0.177  11.340  20.993  0.00  0.00    +0.000 A 
BRANCH  25  26
ATOM     26  O   UNL     1       0.778  12.341  20.267  0.00  0.00    +0.000 OA
ATOM     27  C   UNL     1       0.063  13.567  20.123  0.00  0.00    +0.000 C 
ENDBRANCH  25  26
ENDBRANCH  18  20
ENDBRANCH  16  18
ENDBRANCH  10  14
BRANCH   1  28
ATOM     28  N   UNL     1       4.953   7.228  16.874  0.00  0.00    +0.000 N 
ATOM     29  H   UNL     1       5.392   8.115  17.151  0.00  0.00    +0.000 HD
BRANCH  28  30
ATOM     30  C   UNL     1       5.087   6.917  15.447  0.00  0.00    +0.000 C 
BRANCH  30  31
ATOM     31  C   UNL     1       5.093   5.408  15.038  0.00  0.00    +0.000 C 
BRANCH  31  33
ATOM     32  C   UNL     1       6.178   3.787  13.279  0.00  0.00    +0.000 C 
ATOM     33  C   UNL     1       6.343   4.798  14.413  0.00  0.00    +0.000 C 
ENDBRANCH  31  33
ENDBRANCH  30  31
ENDBRANCH  28  30
ENDBRANCH   1  28
TORSDOF 8
ENDMDL
MODEL 5
REMARK VINA RESULT:      -6.6      5.500     10.866
REMARK  Name = 
REMARK  11 active torsions:
REMARK  status: ('A' for Active; 'I' for Inactive)
REMARK    1  A    between atoms: C_1  and  C_2
REMARK    2  A    between atoms: C_2  and  C_3
REMARK    3  A    between atoms: C_3  and  C_4
REMARK    4  A    between atoms: C_4  and  N_5
REMARK    5  A    between atoms: N_5  and  C_6
REMARK    6  A    between atoms: C_15  and  C_16
REMARK    7  A    between atoms: N_18  and  C_19
REMARK    8  A    between atoms: C_19  and  C_20
REMARK    9  A    between atoms: C_19  and  C_21
REMARK   10  A    between atoms: C_26  and  O_27
REMARK   11  A    between atoms: O_27  and  C_28
REMARK                            x       y       z     vdW  Elec       q    Type
REMARK                         _______ _______ _______ _____ _____    ______ ____
ROOT
ATOM      1  C   UNL     1       0.424  10.122  18.752  0.00  0.00    +0.000 A 
ATOM      2  N   UNL     1       1.321   9.357  18.084  0.00  0.00    +0.000 NA
ATOM      3  C   UNL     1       1.910   8.375  18.737  0.00  0.00    +0.000 A 
ATOM      4  N   UNL     1       2.642   7.479  17.999  0.00  0.00    +0.000 N 
ATOM      5  N   UNL     1       1.750   8.178  20.034  0.00  0.00    +0.000 NA
ATOM      6  C   UNL     1       0.993   9.050  20.715  0.00  0.00    +0.000 A 
ATOM      7  C   UNL     1       0.897   8.805  22.069  0.00  0.00    +0.000 A 
ATOM      8  C   UNL     1       0.148   9.608  22.917  0.00  0.00    +0.000 A 
ATOM      9  C   UNL     1      -0.568  10.675  22.401  0.00  0.00    +0.000 A 
ATOM     10  C   UNL     1      -0.583  10.937  21.015  0.00  0.00    +0.000 A 
ATOM     11  C   UNL     1       0.259  10.116  20.148  0.00  0.00    +0.000 A 
ATOM     12  H   UNL     1       2.552   7.570  16.998  0.00  0.00    +0.000 HD
ATOM     13  H   UNL     1       2.873   6.597  18.425  0.00  0.00    +0.000 HD
ENDROOT
BRANCH  10  14
ATOM     14  C   UNL     1      -1.430  12.151  20.584  0.00  0.00    +0.000 C 
ATOM     15  O   UNL     1      -0.990  12.952  19.769  0.00  0.00    +0.000 OA
ATOM     16  N   UNL     1      -2.645  12.317  21.267  0.00  0.00    +0.000 N 
ATOM     17  H   UNL     1      -2.921  11.566  21.879  0.00  0.00    +0.000 HD
BRANCH  16  18
ATOM     18  C   UNL     1      -3.619  13.457  21.285  0.00  0.00    +0.000 C 
ATOM     19  C   UNL     1      -5.067  13.030  20.998  0.00  0.00    +0.000 C 
BRANCH  18  20
ATOM     20  C   UNL     1      -3.532  14.387  22.496  0.00  0.00    +0.000 A 
ATOM     21  C   UNL     1      -3.601  15.770  22.267  0.00  0.00    +0.000 A 
ATOM     22  C   UNL     1      -3.533  16.691  23.313  0.00  0.00    +0.000 A 
ATOM     23  C   UNL     1      -3.344  16.249  24.619  0.00  0.00    +0.000 A 
ATOM     24  C   UNL     1      -3.232  14.879  24.882  0.00  0.00    +0.000 A 
ATOM     25  C   UNL     1      -3.339  13.944  23.832  0.00  0.00    +0.000 A 
BRANCH  25  26
ATOM     26  O   UNL     1      -3.532  12.616  24.131  0.00  0.00    +0.000 OA
ATOM     27  C   UNL     1      -4.743  12.261  24.796  0.00  0.00    +0.000 C 
ENDBRANCH  25  26
ENDBRANCH  18  20
ENDBRANCH  16  18
ENDBRANCH  10  14
BRANCH   1  28
ATOM     28  N   UNL     1      -0.481  10.833  17.972  0.00  0.00    +0.000 N 
ATOM     29  H   UNL     1       0.061  11.468  17.372  0.00  0.00    +0.000 HD
BRANCH  28  30
ATOM     30  C   UNL     1      -1.503  10.063  17.257  0.00  0.00    +0.000 C 
BRANCH  30  31
ATOM     31  C   UNL     1      -2.922   9.974  17.905  0.00  0.00    +0.000 C 
BRANCH  31  33
ATOM     32  C   UNL     1      -4.614  11.569  16.683  0.00  0.00    +0.000 C 
ATOM     33  C   UNL     1      -3.819  11.207  17.937  0.00  0.00    +0.000 C 
ENDBRANCH  31  33
ENDBRANCH  30  31
ENDBRANCH  28  30
ENDBRANCH   1  28
TORSDOF 8
ENDMDL
MODEL 6
REMARK VINA RESULT:      -6.6      6.031      9.077
REMARK  Name = 
REMARK  11 active torsions:
REMARK  status: ('A' for Active; 'I' for Inactive)
REMARK    1  A    between atoms: C_1  and  C_2
REMARK    2  A    between atoms: C_2  and  C_3
REMARK    3  A    between atoms: C_3  and  C_4
REMARK    4  A    between atoms: C_4  and  N_5
REMARK    5  A    between atoms: N_5  and  C_6
REMARK    6  A    between atoms: C_15  and  C_16
REMARK    7  A    between atoms: N_18  and  C_19
REMARK    8  A    between atoms: C_19  and  C_20
REMARK    9  A    between atoms: C_19  and  C_21
REMARK   10  A    between atoms: C_26  and  O_27
REMARK   11  A    between atoms: O_27  and  C_28
REMARK                            x       y       z     vdW  Elec       q    Type
REMARK                         _______ _______ _______ _____ _____    ______ ____
ROOT
ATOM      1  C   UNL     1      -3.848  12.273  19.338  0.00  0.00    +0.000 A 
ATOM      2  N   UNL     1      -4.627  11.982  18.269  0.00  0.00    +0.000 NA
ATOM      3  C   UNL     1      -5.930  12.143  18.385  0.00  0.00    +0.000 A 
ATOM      4  N   UNL     1      -6.679  12.059  17.239  0.00  0.00    +0.000 N 
ATOM      5  N   UNL     1      -6.514  12.464  19.527  0.00  0.00    +0.000 NA
ATOM      6  C   UNL     1      -5.744  12.580  20.618  0.00  0.00    +0.000 A 
ATOM      7  C   UNL     1      -6.422  12.881  21.780  0.00  0.00    +0.000 A 
ATOM      8  C   UNL     1      -5.774  13.042  22.997  0.00  0.00    +0.000 A 
ATOM      9  C   UNL     1      -4.396  12.937  23.062  0.00  0.00    +0.000 A 
ATOM     10  C   UNL     1      -3.629  12.711  21.900  0.00  0.00    +0.000 A 
ATOM     11  C   UNL     1      -4.334  12.487  20.640  0.00  0.00    +0.000 A 
ATOM     12  H   UNL     1      -6.150  12.018  16.380  0.00  0.00    +0.000 HD
ATOM     13  H   UNL     1      -7.614  12.432  17.259  0.00  0.00    +0.000 HD
ENDROOT
BRANCH  10  14
ATOM     14  C   UNL     1      -2.106  12.628  22.123  0.00  0.00    +0.000 C 
ATOM     15  O   UNL     1      -1.428  13.648  22.139  0.00  0.00    +0.000 OA
ATOM     16  N   UNL     1      -1.570  11.332  22.181  0.00  0.00    +0.000 N 
ATOM     17  H   UNL     1      -2.234  10.574  22.205  0.00  0.00    +0.000 HD
BRANCH  16  18
ATOM     18  C   UNL     1      -0.151  10.849  22.172  0.00  0.00    +0.000 C 
ATOM     19  C   UNL     1       0.091   9.640  23.089  0.00  0.00    +0.000 C 
BRANCH  18  20
ATOM     20  C   UNL     1       0.475  10.645  20.792  0.00  0.00    +0.000 A 
ATOM     21  C   UNL     1       0.657   9.328  20.342  0.00  0.00    +0.000 A 
ATOM     22  C   UNL     1       1.218   9.051  19.095  0.00  0.00    +0.000 A 
ATOM     23  C   UNL     1       1.657  10.091  18.281  0.00  0.00    +0.000 A 
ATOM     24  C   UNL     1       1.528  11.415  18.712  0.00  0.00    +0.000 A 
ATOM     25  C   UNL     1       0.927  11.701  19.955  0.00  0.00    +0.000 A 
BRANCH  25  26
ATOM     26  O   UNL     1       0.532  12.989  20.231  0.00  0.00    +0.000 OA
ATOM     27  C   UNL     1       0.901  14.003  19.299  0.00  0.00    +0.000 C 
ENDBRANCH  25  26
ENDBRANCH  18  20
ENDBRANCH  16  18
ENDBRANCH  10  14
BRANCH   1  28
ATOM     28  N   UNL     1      -2.505  12.518  19.075  0.00  0.00    +0.000 N 
ATOM     29  H   UNL     1      -1.976  12.282  19.924  0.00  0.00    +0.000 HD
BRANCH  28  30
ATOM     30  C   UNL     1      -1.946  11.946  17.846  0.00  0.00    +0.000 C 
BRANCH  30  31
ATOM     31  C   UNL     1      -1.913  10.388  17.728  0.00  0.00    +0.000 C 
BRANCH  31  33
ATOM     32  C   UNL     1      -2.857  10.493  15.279  0.00  0.00    +0.000 C 
ATOM     33  C   UNL     1      -2.621   9.701  16.565  0.00  0.00    +0.000 C 
ENDBRANCH  31  33
ENDBRANCH  30  31
ENDBRANCH  28  30
ENDBRANCH   1  28
TORSDOF 8
ENDMDL
MODEL 7
REMARK VINA RESULT:      -6.5      5.199      9.331
REMARK  Name = 
REMARK  11 active torsions:
REMARK  status: ('A' for Active; 'I' for Inactive)
REMARK    1  A    between atoms: C_1  and  C_2
REMARK    2  A    between atoms: C_2  and  C_3
REMARK    3  A    between atoms: C_3  and  C_4
REMARK    4  A    between atoms: C_4  and  N_5
REMARK    5  A    between atoms: N_5  and  C_6
REMARK    6  A    between atoms: C_15  and  C_16
REMARK    7  A    between atoms: N_18  and  C_19
REMARK    8  A    between atoms: C_19  and  C_20
REMARK    9  A    between atoms: C_19  and  C_21
REMARK   10  A    between atoms: C_26  and  O_27
REMARK   11  A    between atoms: O_27  and  C_28
REMARK                            x       y       z     vdW  Elec       q    Type
REMARK                         _______ _______ _______ _____ _____    ______ ____
ROOT
ATOM      1  C   UNL     1       0.365  10.197  19.006  0.00  0.00    +0.000 A 
ATOM      2  N   UNL     1       1.241   9.388  18.364  0.00  0.00    +0.000 NA
ATOM      3  C   UNL     1       1.746   8.367  19.027  0.00  0.00    +0.000 A 
ATOM      4  N   UNL     1       2.453   7.437  18.307  0.00  0.00    +0.000 N 
ATOM      5  N   UNL     1       1.525   8.166  20.315  0.00  0.00    +0.000 NA
ATOM      6  C   UNL     1       0.793   9.074  20.977  0.00  0.00    +0.000 A 
ATOM      7  C   UNL     1       0.631   8.822  22.323  0.00  0.00    +0.000 A 
ATOM      8  C   UNL     1      -0.103   9.659  23.151  0.00  0.00    +0.000 A 
ATOM      9  C   UNL     1      -0.734  10.771  22.621  0.00  0.00    +0.000 A 
ATOM     10  C   UNL     1      -0.680  11.048  21.240  0.00  0.00    +0.000 A 
ATOM     11  C   UNL     1       0.146  10.187  20.395  0.00  0.00    +0.000 A 
ATOM     12  H   UNL     1       2.408   7.543  17.304  0.00  0.00    +0.000 HD
ATOM     13  H   UNL     1       2.616   6.538  18.730  0.00  0.00    +0.000 HD
ENDROOT
BRANCH  10  14
ATOM     14  C   UNL     1      -1.437  12.314  20.791  0.00  0.00    +0.000 C 
ATOM     15  O   UNL     1      -2.604  12.238  20.429  0.00  0.00    +0.000 OA
ATOM     16  N   UNL     1      -0.671  13.488  20.723  0.00  0.00    +0.000 N 
ATOM     17  H   UNL     1       0.264  13.434  21.095  0.00  0.00    +0.000 HD
BRANCH  16  18
ATOM     18  C   UNL     1      -0.981  14.836  20.146  0.00  0.00    +0.000 C 
ATOM     19  C   UNL     1      -1.798  15.733  21.088  0.00  0.00    +0.000 C 
BRANCH  18  20
ATOM     20  C   UNL     1       0.203  15.587  19.535  0.00  0.00    +0.000 A 
ATOM     21  C   UNL     1       0.287  16.971  19.756  0.00  0.00    +0.000 A 
ATOM     22  C   UNL     1       1.335  17.733  19.240  0.00  0.00    +0.000 A 
ATOM     23  C   UNL     1       2.306  17.134  18.442  0.00  0.00    +0.000 A 
ATOM     24  C   UNL     1       2.234  15.764  18.167  0.00  0.00    +0.000 A 
ATOM     25  C   UNL     1       1.198  14.984  18.720  0.00  0.00    +0.000 A 
BRANCH  25  26
ATOM     26  O   UNL     1       1.304  13.613  18.699  0.00  0.00    +0.000 OA
ATOM     27  C   UNL     1       2.598  13.057  18.469  0.00  0.00    +0.000 C 
ENDBRANCH  25  26
ENDBRANCH  18  20
ENDBRANCH  16  18
ENDBRANCH  10  14
BRANCH   1  28
ATOM     28  N   UNL     1      -0.466  10.969  18.201  0.00  0.00    +0.000 N 
ATOM     29  H   UNL     1       0.135  11.505  17.563  0.00  0.00    +0.000 HD
BRANCH  28  30
ATOM     30  C   UNL     1      -1.582  10.287  17.540  0.00  0.00    +0.000 C 
BRANCH  30  31
ATOM     31  C   UNL     1      -2.836  11.146  17.176  0.00  0.00    +0.000 C 
BRANCH  31  33
ATOM     32  C   UNL     1      -2.899   9.990  14.818  0.00  0.00    +0.000 C 
ATOM     33  C   UNL     1      -3.450  11.039  15.784  0.00  0.00    +0.000 C 
ENDBRANCH  31  33
ENDBRANCH  30  31
ENDBRANCH  28  30
ENDBRANCH   1  28
TORSDOF 8
ENDMDL
MODEL 8
REMARK VINA RESULT:      -6.5      5.987     11.265
REMARK  Name = 
REMARK  11 active torsions:
REMARK  status: ('A' for Active; 'I' for Inactive)
REMARK    1  A    between atoms: C_1  and  C_2
REMARK    2  A    between atoms: C_2  and  C_3
REMARK    3  A    between atoms: C_3  and  C_4
REMARK    4  A    between atoms: C_4  and  N_5
REMARK    5  A    between atoms: N_5  and  C_6
REMARK    6  A    between atoms: C_15  and  C_16
REMARK    7  A    between atoms: N_18  and  C_19
REMARK    8  A    between atoms: C_19  and  C_20
REMARK    9  A    between atoms: C_19  and  C_21
REMARK   10  A    between atoms: C_26  and  O_27
REMARK   11  A    between atoms: O_27  and  C_28
REMARK                            x       y       z     vdW  Elec       q    Type
REMARK                         _______ _______ _______ _____ _____    ______ ____
ROOT
ATOM      1  C   UNL     1       0.193  11.388  19.423  0.00  0.00    +0.000 A 
ATOM      2  N   UNL     1       1.030  10.790  18.541  0.00  0.00    +0.000 NA
ATOM      3  C   UNL     1       1.437   9.564  18.802  0.00  0.00    +0.000 A 
ATOM      4  N   UNL     1       2.100   8.895  17.803  0.00  0.00    +0.000 N 
ATOM      5  N   UNL     1       1.158   8.940  19.934  0.00  0.00    +0.000 NA
ATOM      6  C   UNL     1       0.472   9.611  20.870  0.00  0.00    +0.000 A 
ATOM      7  C   UNL     1       0.245   8.913  22.037  0.00  0.00    +0.000 A 
ATOM      8  C   UNL     1      -0.454   9.460  23.104  0.00  0.00    +0.000 A 
ATOM      9  C   UNL     1      -0.986  10.734  22.999  0.00  0.00    +0.000 A 
ATOM     10  C   UNL     1      -0.864  11.475  21.806  0.00  0.00    +0.000 A 
ATOM     11  C   UNL     1      -0.074  10.906  20.716  0.00  0.00    +0.000 A 
ATOM     12  H   UNL     1       2.097   9.352  16.904  0.00  0.00    +0.000 HD
ATOM     13  H   UNL     1       2.183   7.896  17.882  0.00  0.00    +0.000 HD
ENDROOT
BRANCH  10  14
ATOM     14  C   UNL     1      -1.513  12.874  21.830  0.00  0.00    +0.000 C 
ATOM     15  O   UNL     1      -0.813  13.877  21.890  0.00  0.00    +0.000 OA
ATOM     16  N   UNL     1      -2.914  12.892  21.898  0.00  0.00    +0.000 N 
ATOM     17  H   UNL     1      -3.379  12.004  21.793  0.00  0.00    +0.000 HD
BRANCH  16  18
ATOM     18  C   UNL     1      -3.876  14.015  22.147  0.00  0.00    +0.000 C 
ATOM     19  C   UNL     1      -3.862  15.089  21.048  0.00  0.00    +0.000 C 
BRANCH  18  20
ATOM     20  C   UNL     1      -5.301  13.601  22.515  0.00  0.00    +0.000 A 
ATOM     21  C   UNL     1      -5.903  14.231  23.616  0.00  0.00    +0.000 A 
ATOM     22  C   UNL     1      -7.201  13.917  24.021  0.00  0.00    +0.000 A 
ATOM     23  C   UNL     1      -7.916  12.924  23.359  0.00  0.00    +0.000 A 
ATOM     24  C   UNL     1      -7.335  12.246  22.282  0.00  0.00    +0.000 A 
ATOM     25  C   UNL     1      -6.038  12.588  21.846  0.00  0.00    +0.000 A 
BRANCH  25  26
ATOM     26  O   UNL     1      -5.601  12.142  20.621  0.00  0.00    +0.000 OA
ATOM     27  C   UNL     1      -6.592  11.817  19.648  0.00  0.00    +0.000 C 
ENDBRANCH  25  26
ENDBRANCH  18  20
ENDBRANCH  16  18
ENDBRANCH  10  14
BRANCH   1  28
ATOM     28  N   UNL     1      -0.552  12.457  18.938  0.00  0.00    +0.000 N 
ATOM     29  H   UNL     1       0.094  13.081  18.437  0.00  0.00    +0.000 HD
BRANCH  28  30
ATOM     30  C   UNL     1      -1.775  12.141  18.194  0.00  0.00    +0.000 C 
BRANCH  30  31
ATOM     31  C   UNL     1      -2.243  10.650  18.179  0.00  0.00    +0.000 C 
BRANCH  31  33
ATOM     32  C   UNL     1      -2.796  10.294  15.636  0.00  0.00    +0.000 C 
ATOM     33  C   UNL     1      -2.092   9.822  16.908  0.00  0.00    +0.000 C 
ENDBRANCH  31  33
ENDBRANCH  30  31
ENDBRANCH  28  30
ENDBRANCH   1  28
TORSDOF 8
ENDMDL
MODEL 9
REMARK VINA RESULT:      -6.5      2.133      7.068
REMARK  Name = 
REMARK  11 active torsions:
REMARK  status: ('A' for Active; 'I' for Inactive)
REMARK    1  A    between atoms: C_1  and  C_2
REMARK    2  A    between atoms: C_2  and  C_3
REMARK    3  A    between atoms: C_3  and  C_4
REMARK    4  A    between atoms: C_4  and  N_5
REMARK    5  A    between atoms: N_5  and  C_6
REMARK    6  A    between atoms: C_15  and  C_16
REMARK    7  A    between atoms: N_18  and  C_19
REMARK    8  A    between atoms: C_19  and  C_20
REMARK    9  A    between atoms: C_19  and  C_21
REMARK   10  A    between atoms: C_26  and  O_27
REMARK   11  A    between atoms: O_27  and  C_28
REMARK                            x       y       z     vdW  Elec       q    Type
REMARK                         _______ _______ _______ _____ _____    ______ ____
ROOT
ATOM      1  C   UNL     1       4.656   4.261  16.482  0.00  0.00    +0.000 A 
ATOM      2  N   UNL     1       4.932   4.009  15.179  0.00  0.00    +0.000 NA
ATOM      3  C   UNL     1       6.195   3.970  14.807  0.00  0.00    +0.000 A 
ATOM      4  N   UNL     1       6.466   3.499  13.546  0.00  0.00    +0.000 N 
ATOM      5  N   UNL     1       7.193   4.276  15.619  0.00  0.00    +0.000 NA
ATOM      6  C   UNL     1       6.893   4.691  16.858  0.00  0.00    +0.000 A 
ATOM      7  C   UNL     1       7.978   5.028  17.638  0.00  0.00    +0.000 A 
ATOM      8  C   UNL     1       7.842   5.470  18.947  0.00  0.00    +0.000 A 
ATOM      9  C   UNL     1       6.584   5.547  19.520  0.00  0.00    +0.000 A 
ATOM     10  C   UNL     1       5.436   5.142  18.809  0.00  0.00    +0.000 A 
ATOM     11  C   UNL     1       5.594   4.735  17.415  0.00  0.00    +0.000 A 
ATOM     12  H   UNL     1       5.680   3.092  13.061  0.00  0.00    +0.000 HD
ATOM     13  H   UNL     1       7.409   3.217  13.342  0.00  0.00    +0.000 HD
ENDROOT
BRANCH  10  14
ATOM     14  C   UNL     1       4.105   5.274  19.577  0.00  0.00    +0.000 C 
ATOM     15  O   UNL     1       3.679   4.336  20.238  0.00  0.00    +0.000 OA
ATOM     16  N   UNL     1       3.397   6.467  19.365  0.00  0.00    +0.000 N 
ATOM     17  H   UNL     1       3.874   7.184  18.841  0.00  0.00    +0.000 HD
BRANCH  16  18
ATOM     18  C   UNL     1       2.006   6.872  19.751  0.00  0.00    +0.000 C 
ATOM     19  C   UNL     1       1.621   6.457  21.179  0.00  0.00    +0.000 C 
BRANCH  18  20
ATOM     20  C   UNL     1       1.632   8.327  19.464  0.00  0.00    +0.000 A 
ATOM     21  C   UNL     1       2.106   8.904  18.275  0.00  0.00    +0.000 A 
ATOM     22  C   UNL     1       1.810  10.223  17.932  0.00  0.00    +0.000 A 
ATOM     23  C   UNL     1       1.070  11.020  18.801  0.00  0.00    +0.000 A 
ATOM     24  C   UNL     1       0.614  10.492  20.013  0.00  0.00    +0.000 A 
ATOM     25  C   UNL     1       0.878   9.147  20.345  0.00  0.00    +0.000 A 
BRANCH  25  26
ATOM     26  O   UNL     1       0.181   8.559  21.374  0.00  0.00    +0.000 OA
ATOM     27  C   UNL     1      -0.309   9.411  22.408  0.00  0.00    +0.000 C 
ENDBRANCH  25  26
ENDBRANCH  18  20
ENDBRANCH  16  18
ENDBRANCH  10  14
BRANCH   1  28
ATOM     28  N   UNL     1       3.399   3.873  16.932  0.00  0.00    +0.000 N 
ATOM     29  H   UNL     1       2.703   4.294  16.304  0.00  0.00    +0.000 HD
BRANCH  28  30
ATOM     30  C   UNL     1       3.188   2.444  17.185  0.00  0.00    +0.000 C 
BRANCH  30  31
ATOM     31  C   UNL     1       2.181   2.055  18.315  0.00  0.00    +0.000 C 
BRANCH  31  33
ATOM     32  C   UNL     1       0.585   3.154  20.089  0.00  0.00    +0.000 C 
ATOM     33  C   UNL     1       1.004   2.972  18.630  0.00  0.00    +0.000 C 
ENDBRANCH  31  33
ENDBRANCH  30  31
ENDBRANCH  28  30
ENDBRANCH   1  28
TORSDOF 8
ENDMDL
