MODEL 1
REMARK VINA RESULT:      -8.2      0.000      0.000
REMARK  Name = 
REMARK  4 active torsions:
REMARK  status: ('A' for Active; 'I' for Inactive)
REMARK    1  A    between atoms: C_1  and  C_2
REMARK    2  A    between atoms: N_4  and  C_19
REMARK    3  A    between atoms: C_19  and  C_20
REMARK    4  A    between atoms: C_19  and  C_21
REMARK                            x       y       z     vdW  Elec       q    Type
REMARK                         _______ _______ _______ _____ _____    ______ ____
ROOT
ATOM      1  C   UNL     1       4.871   1.952  20.268  0.00  0.00    +0.000 C 
ATOM      2  C   UNL     1       3.613   2.795  20.276  0.00  0.00    +0.000 C 
ATOM      3  O   UNL     1       2.752   2.560  21.129  0.00  0.00    +0.000 OA
ATOM      4  N   UNL     1       3.410   3.713  19.233  0.00  0.00    +0.000 N 
ATOM      5  C   UNL     1       4.369   4.031  18.272  0.00  0.00    +0.000 A 
ATOM      6  N   UNL     1       4.112   3.894  17.003  0.00  0.00    +0.000 NA
ATOM      7  C   UNL     1       5.115   4.222  16.055  0.00  0.00    +0.000 A 
ATOM      8  C   UNL     1       4.854   4.011  14.702  0.00  0.00    +0.000 A 
ATOM      9  C   UNL     1       5.820   4.318  13.734  0.00  0.00    +0.000 A 
ATOM     10  C   UNL     1       7.055   4.847  14.118  0.00  0.00    +0.000 A 
ATOM     11 CL   UNL     1       8.232   5.220  12.921  0.00  0.00    +0.000 Cl
ATOM     12  C   UNL     1       7.345   5.071  15.462  0.00  0.00    +0.000 A 
ATOM     13  C   UNL     1       6.373   4.744  16.412  0.00  0.00    +0.000 A 
ATOM     14  N   UNL     1       6.583   4.919  17.782  0.00  0.00    +0.000 N 
ATOM     15  C   UNL     1       7.633   5.398  18.506  0.00  0.00    +0.000 A 
ATOM     16  N   UNL     1       7.321   5.387  19.785  0.00  0.00    +0.000 NA
ATOM     17  N   UNL     1       6.037   4.897  19.907  0.00  0.00    +0.000 NA
ATOM     18  C   UNL     1       5.627   4.581  18.696  0.00  0.00    +0.000 A 
ENDROOT
BRANCH   4  19
ATOM     19  C   UNL     1       2.032   4.224  19.077  0.00  0.00    +0.000 C 
ATOM     20  C   UNL     1       1.961   5.640  18.496  0.00  0.00    +0.000 C 
ATOM     21  C   UNL     1       1.134   3.267  18.290  0.00  0.00    +0.000 C 
ENDBRANCH   4  19
TORSDOF 1
ENDMDL
MODEL 2
REMARK VINA RESULT:      -6.4      3.574      5.835
REMARK  Name = 
REMARK  4 active torsions:
REMARK  status: ('A' for Active; 'I' for Inactive)
REMARK    1  A    between atoms: C_1  and  C_2
REMARK    2  A    between atoms: N_4  and  C_19
REMARK    3  A    between atoms: C_19  and  C_20
REMARK    4  A    between atoms: C_19  and  C_21
REMARK                            x       y       z     vdW  Elec       q    Type
REMARK                         _______ _______ _______ _____ _____    ______ ____
ROOT
ATOM      1  C   UNL     1       7.510   5.017  19.110  0.00  0.00    +0.000 C 
ATOM      2  C   UNL     1       7.192   4.803  17.646  0.00  0.00    +0.000 C 
ATOM      3  O   UNL     1       8.102   4.446  16.892  0.00  0.00    +0.000 OA
ATOM      4  N   UNL     1       5.916   5.151  17.174  0.00  0.00    +0.000 N 
ATOM      5  C   UNL     1       4.854   5.525  17.995  0.00  0.00    +0.000 A 
ATOM      6  N   UNL     1       4.248   6.665  17.824  0.00  0.00    +0.000 NA
ATOM      7  C   UNL     1       3.175   7.014  18.683  0.00  0.00    +0.000 A 
ATOM      8  C   UNL     1       2.575   8.263  18.535  0.00  0.00    +0.000 A 
ATOM      9  C   UNL     1       1.513   8.647  19.366  0.00  0.00    +0.000 A 
ATOM     10  C   UNL     1       1.042   7.775  20.350  0.00  0.00    +0.000 A 
ATOM     11 CL   UNL     1      -0.261   8.257  21.364  0.00  0.00    +0.000 Cl
ATOM     12  C   UNL     1       1.619   6.519  20.522  0.00  0.00    +0.000 A 
ATOM     13  C   UNL     1       2.685   6.161  19.692  0.00  0.00    +0.000 A 
ATOM     14  N   UNL     1       3.336   4.930  19.804  0.00  0.00    +0.000 N 
ATOM     15  C   UNL     1       3.154   3.856  20.622  0.00  0.00    +0.000 A 
ATOM     16  N   UNL     1       4.019   2.915  20.305  0.00  0.00    +0.000 NA
ATOM     17  N   UNL     1       4.781   3.375  19.251  0.00  0.00    +0.000 NA
ATOM     18  C   UNL     1       4.384   4.604  18.993  0.00  0.00    +0.000 A 
ENDROOT
BRANCH   4  19
ATOM     19  C   UNL     1       5.779   5.281  15.708  0.00  0.00    +0.000 C 
ATOM     20  C   UNL     1       5.059   4.100  15.048  0.00  0.00    +0.000 C 
ATOM     21  C   UNL     1       5.143   6.609  15.291  0.00  0.00    +0.000 C 
ENDBRANCH   4  19
TORSDOF 1
ENDMDL
MODEL 3
REMARK VINA RESULT:      -6.4      3.617      5.789
REMARK  Name = 
REMARK  4 active torsions:
REMARK  status: ('A' for Active; 'I' for Inactive)
REMARK    1  A    between atoms: C_1  and  C_2
REMARK    2  A    between atoms: N_4  and  C_19
REMARK    3  A    between atoms: C_19  and  C_20
REMARK    4  A    between atoms: C_19  and  C_21
REMARK                            x       y       z     vdW  Elec       q    Type
REMARK                         _______ _______ _______ _____ _____    ______ ____
ROOT
ATOM      1  C   UNL     1       7.321   5.362  18.998  0.00  0.00    +0.000 C 
ATOM      2  C   UNL     1       7.036   4.903  17.585  0.00  0.00    +0.000 C 
ATOM      3  O   UNL     1       7.932   4.327  16.961  0.00  0.00    +0.000 OA
ATOM      4  N   UNL     1       5.819   5.271  16.989  0.00  0.00    +0.000 N 
ATOM      5  C   UNL     1       4.772   5.892  17.667  0.00  0.00    +0.000 A 
ATOM      6  N   UNL     1       4.291   7.030  17.254  0.00  0.00    +0.000 NA
ATOM      7  C   UNL     1       3.228   7.633  17.974  0.00  0.00    +0.000 A 
ATOM      8  C   UNL     1       2.763   8.882  17.563  0.00  0.00    +0.000 A 
ATOM      9  C   UNL     1       1.718   9.514  18.249  0.00  0.00    +0.000 A 
ATOM     10  C   UNL     1       1.126   8.893  19.352  0.00  0.00    +0.000 A 
ATOM     11 CL   UNL     1      -0.157   9.678  20.186  0.00  0.00    +0.000 Cl
ATOM     12  C   UNL     1       1.566   7.644  19.787  0.00  0.00    +0.000 A 
ATOM     13  C   UNL     1       2.619   7.038  19.096  0.00  0.00    +0.000 A 
ATOM     14  N   UNL     1       3.138   5.795  19.470  0.00  0.00    +0.000 N 
ATOM     15  C   UNL     1       2.820   4.919  20.463  0.00  0.00    +0.000 A 
ATOM     16  N   UNL     1       3.596   3.859  20.374  0.00  0.00    +0.000 NA
ATOM     17  N   UNL     1       4.438   4.037  19.296  0.00  0.00    +0.000 NA
ATOM     18  C   UNL     1       4.176   5.225  18.792  0.00  0.00    +0.000 A 
ENDROOT
BRANCH   4  19
ATOM     19  C   UNL     1       5.748   5.132  15.519  0.00  0.00    +0.000 C 
ATOM     20  C   UNL     1       7.049   5.506  14.800  0.00  0.00    +0.000 C 
ATOM     21  C   UNL     1       5.261   3.750  15.080  0.00  0.00    +0.000 C 
ENDBRANCH   4  19
TORSDOF 1
ENDMDL
MODEL 4
REMARK VINA RESULT:      -6.4      7.266      9.226
REMARK  Name = 
REMARK  4 active torsions:
REMARK  status: ('A' for Active; 'I' for Inactive)
REMARK    1  A    between atoms: C_1  and  C_2
REMARK    2  A    between atoms: N_4  and  C_19
REMARK    3  A    between atoms: C_19  and  C_20
REMARK    4  A    between atoms: C_19  and  C_21
REMARK                            x       y       z     vdW  Elec       q    Type
REMARK                         _______ _______ _______ _____ _____    ______ ____
ROOT
ATOM      1  C   UNL     1      -2.136  12.476  20.193  0.00  0.00    +0.000 C 
ATOM      2  C   UNL     1      -0.955  13.416  20.084  0.00  0.00    +0.000 C 
ATOM      3  O   UNL     1      -1.173  14.624  19.961  0.00  0.00    +0.000 OA
ATOM      4  N   UNL     1       0.335  12.869  19.987  0.00  0.00    +0.000 N 
ATOM      5  C   UNL     1       0.626  11.516  20.154  0.00  0.00    +0.000 A 
ATOM      6  N   UNL     1       1.241  10.846  19.222  0.00  0.00    +0.000 NA
ATOM      7  C   UNL     1       1.515   9.470  19.427  0.00  0.00    +0.000 A 
ATOM      8  C   UNL     1       2.115   8.744  18.398  0.00  0.00    +0.000 A 
ATOM      9  C   UNL     1       2.400   7.382  18.559  0.00  0.00    +0.000 A 
ATOM     10  C   UNL     1       2.088   6.737  19.758  0.00  0.00    +0.000 A 
ATOM     11 CL   UNL     1       2.441   5.064  19.944  0.00  0.00    +0.000 Cl
ATOM     12  C   UNL     1       1.489   7.433  20.806  0.00  0.00    +0.000 A 
ATOM     13  C   UNL     1       1.203   8.788  20.619  0.00  0.00    +0.000 A 
ATOM     14  N   UNL     1       0.588   9.562  21.608  0.00  0.00    +0.000 N 
ATOM     15  C   UNL     1       0.156   9.283  22.868  0.00  0.00    +0.000 A 
ATOM     16  N   UNL     1      -0.333  10.377  23.414  0.00  0.00    +0.000 NA
ATOM     17  N   UNL     1      -0.214  11.400  22.497  0.00  0.00    +0.000 NA
ATOM     18  C   UNL     1       0.302  10.881  21.402  0.00  0.00    +0.000 A 
ENDROOT
BRANCH   4  19
ATOM     19  C   UNL     1       1.394  13.784  19.510  0.00  0.00    +0.000 C 
ATOM     20  C   UNL     1       2.626  13.830  20.421  0.00  0.00    +0.000 C 
ATOM     21  C   UNL     1       1.798  13.512  18.059  0.00  0.00    +0.000 C 
ENDBRANCH   4  19
TORSDOF 1
ENDMDL
MODEL 5
REMARK VINA RESULT:      -6.3      7.608      9.506
REMARK  Name = 
REMARK  4 active torsions:
REMARK  status: ('A' for Active; 'I' for Inactive)
REMARK    1  A    between atoms: C_1  and  C_2
REMARK    2  A    between atoms: N_4  and  C_19
REMARK    3  A    between atoms: C_19  and  C_20
REMARK    4  A    between atoms: C_19  and  C_21
REMARK                            x       y       z     vdW  Elec       q    Type
REMARK                         _______ _______ _______ _____ _____    ______ ____
ROOT
ATOM      1  C   UNL     1      -2.782  12.339  20.878  0.00  0.00    +0.000 C 
ATOM      2  C   UNL     1      -1.798  13.485  20.782  0.00  0.00    +0.000 C 
ATOM      3  O   UNL     1      -2.226  14.639  20.879  0.00  0.00    +0.000 OA
ATOM      4  N   UNL     1      -0.464  13.202  20.448  0.00  0.00    +0.000 N 
ATOM      5  C   UNL     1       0.066  11.916  20.362  0.00  0.00    +0.000 A 
ATOM      6  N   UNL     1       0.641  11.502  19.269  0.00  0.00    +0.000 NA
ATOM      7  C   UNL     1       1.163  10.185  19.219  0.00  0.00    +0.000 A 
ATOM      8  C   UNL     1       1.719   9.728  18.024  0.00  0.00    +0.000 A 
ATOM      9  C   UNL     1       2.242   8.432  17.932  0.00  0.00    +0.000 A 
ATOM     10  C   UNL     1       2.216   7.583  19.041  0.00  0.00    +0.000 A 
ATOM     11 CL   UNL     1       2.861   5.994  18.915  0.00  0.00    +0.000 Cl
ATOM     12  C   UNL     1       1.669   8.010  20.250  0.00  0.00    +0.000 A 
ATOM     13  C   UNL     1       1.140   9.302  20.316  0.00  0.00    +0.000 A 
ATOM     14  N   UNL     1       0.556   9.809  21.480  0.00  0.00    +0.000 N 
ATOM     15  C   UNL     1       0.361   9.285  22.723  0.00  0.00    +0.000 A 
ATOM     16  N   UNL     1      -0.216  10.187  23.489  0.00  0.00    +0.000 NA
ATOM     17  N   UNL     1      -0.399  11.330  22.739  0.00  0.00    +0.000 NA
ATOM     18  C   UNL     1       0.033  11.068  21.522  0.00  0.00    +0.000 A 
ENDROOT
BRANCH   4  19
ATOM     19  C   UNL     1       0.352  14.351  20.001  0.00  0.00    +0.000 C 
ATOM     20  C   UNL     1       1.834  14.237  20.372  0.00  0.00    +0.000 C 
ATOM     21  C   UNL     1       0.184  14.649  18.509  0.00  0.00    +0.000 C 
ENDBRANCH   4  19
TORSDOF 1
ENDMDL
MODEL 6
REMARK VINA RESULT:      -6.2      7.612      9.670
REMARK  Name = 
REMARK  4 active torsions:
REMARK  status: ('A' for Active; 'I' for Inactive)
REMARK    1  A    between atoms: C_1  and  C_2
REMARK    2  A    between atoms: N_4  and  C_19
REMARK    3  A    between atoms: C_19  and  C_20
REMARK    4  A    between atoms: C_19  and  C_21
REMARK                            x       y       z     vdW  Elec       q    Type
REMARK                         _______ _______ _______ _____ _____    ______ ____
ROOT
ATOM      1  C   UNL     1      -0.490   8.552  22.132  0.00  0.00    +0.000 C 
ATOM      2  C   UNL     1      -0.227   9.987  22.535  0.00  0.00    +0.000 C 
ATOM      3  O   UNL     1       0.142  10.216  23.690  0.00  0.00    +0.000 OA
ATOM      4  N   UNL     1      -0.544  11.011  21.628  0.00  0.00    +0.000 N 
ATOM      5  C   UNL     1      -0.930  10.795  20.306  0.00  0.00    +0.000 A 
ATOM      6  N   UNL     1      -2.057  11.267  19.854  0.00  0.00    +0.000 NA
ATOM      7  C   UNL     1      -2.418  11.021  18.505  0.00  0.00    +0.000 A 
ATOM      8  C   UNL     1      -3.655  11.473  18.048  0.00  0.00    +0.000 A 
ATOM      9  C   UNL     1      -4.051  11.248  16.723  0.00  0.00    +0.000 A 
ATOM     10  C   UNL     1      -3.204  10.570  15.844  0.00  0.00    +0.000 A 
ATOM     11 CL   UNL     1      -3.701  10.298  14.220  0.00  0.00    +0.000 Cl
ATOM     12  C   UNL     1      -1.961  10.106  16.269  0.00  0.00    +0.000 A 
ATOM     13  C   UNL     1      -1.592  10.330  17.598  0.00  0.00    +0.000 A 
ATOM     14  N   UNL     1      -0.372   9.886  18.117  0.00  0.00    +0.000 N 
ATOM     15  C   UNL     1       0.678   9.213  17.570  0.00  0.00    +0.000 A 
ATOM     16  N   UNL     1       1.617   9.058  18.480  0.00  0.00    +0.000 NA
ATOM     17  N   UNL     1       1.181   9.648  19.648  0.00  0.00    +0.000 NA
ATOM     18  C   UNL     1      -0.034  10.102  19.422  0.00  0.00    +0.000 A 
ENDROOT
BRANCH   4  19
ATOM     19  C   UNL     1      -0.628  12.375  22.192  0.00  0.00    +0.000 C 
ATOM     20  C   UNL     1      -0.042  13.458  21.279  0.00  0.00    +0.000 C 
ATOM     21  C   UNL     1      -2.045  12.744  22.636  0.00  0.00    +0.000 C 
ENDBRANCH   4  19
TORSDOF 1
ENDMDL
MODEL 7
REMARK VINA RESULT:      -5.9      3.602      6.177
REMARK  Name = 
REMARK  4 active torsions:
REMARK  status: ('A' for Active; 'I' for Inactive)
REMARK    1  A    between atoms: C_1  and  C_2
REMARK    2  A    between atoms: N_4  and  C_19
REMARK    3  A    between atoms: C_19  and  C_20
REMARK    4  A    between atoms: C_19  and  C_21
REMARK                            x       y       z     vdW  Elec       q    Type
REMARK                         _______ _______ _______ _____ _____    ______ ____
ROOT
ATOM      1  C   UNL     1       5.035   5.172  15.103  0.00  0.00    +0.000 C 
ATOM      2  C   UNL     1       6.311   5.609  15.790  0.00  0.00    +0.000 C 
ATOM      3  O   UNL     1       7.264   5.966  15.091  0.00  0.00    +0.000 OA
ATOM      4  N   UNL     1       6.413   5.459  17.183  0.00  0.00    +0.000 N 
ATOM      5  C   UNL     1       5.353   5.091  18.010  0.00  0.00    +0.000 A 
ATOM      6  N   UNL     1       5.445   4.052  18.789  0.00  0.00    +0.000 NA
ATOM      7  C   UNL     1       4.344   3.705  19.612  0.00  0.00    +0.000 A 
ATOM      8  C   UNL     1       4.426   2.554  20.395  0.00  0.00    +0.000 A 
ATOM      9  C   UNL     1       3.358   2.175  21.219  0.00  0.00    +0.000 A 
ATOM     10  C   UNL     1       2.199   2.953  21.269  0.00  0.00    +0.000 A 
ATOM     11 CL   UNL     1       0.895   2.478  22.284  0.00  0.00    +0.000 Cl
ATOM     12  C   UNL     1       2.086   4.110  20.500  0.00  0.00    +0.000 A 
ATOM     13  C   UNL     1       3.157   4.462  19.675  0.00  0.00    +0.000 A 
ATOM     14  N   UNL     1       3.126   5.595  18.857  0.00  0.00    +0.000 N 
ATOM     15  C   UNL     1       2.191   6.564  18.650  0.00  0.00    +0.000 A 
ATOM     16  N   UNL     1       2.660   7.444  17.791  0.00  0.00    +0.000 NA
ATOM     17  N   UNL     1       3.931   7.052  17.428  0.00  0.00    +0.000 NA
ATOM     18  C   UNL     1       4.177   5.916  18.046  0.00  0.00    +0.000 A 
ENDROOT
BRANCH   4  19
ATOM     19  C   UNL     1       7.777   5.538  17.746  0.00  0.00    +0.000 C 
ATOM     20  C   UNL     1       7.893   6.475  18.953  0.00  0.00    +0.000 C 
ATOM     21  C   UNL     1       8.363   4.161  18.067  0.00  0.00    +0.000 C 
ENDBRANCH   4  19
TORSDOF 1
ENDMDL
MODEL 8
REMARK VINA RESULT:      -5.8      4.434      6.285
REMARK  Name = 
REMARK  4 active torsions:
REMARK  status: ('A' for Active; 'I' for Inactive)
REMARK    1  A    between atoms: C_1  and  C_2
REMARK    2  A    between atoms: N_4  and  C_19
REMARK    3  A    between atoms: C_19  and  C_20
REMARK    4  A    between atoms: C_19  and  C_21
REMARK                            x       y       z     vdW  Elec       q    Type
REMARK                         _______ _______ _______ _____ _____    ______ ____
ROOT
ATOM      1  C   UNL     1       1.377   3.674  17.453  0.00  0.00    +0.000 C 
ATOM      2  C   UNL     1       2.193   3.122  18.602  0.00  0.00    +0.000 C 
ATOM      3  O   UNL     1       2.460   1.917  18.610  0.00  0.00    +0.000 OA
ATOM      4  N   UNL     1       2.496   3.969  19.682  0.00  0.00    +0.000 N 
ATOM      5  C   UNL     1       2.242   5.339  19.697  0.00  0.00    +0.000 A 
ATOM      6  N   UNL     1       1.519   5.873  20.639  0.00  0.00    +0.000 NA
ATOM      7  C   UNL     1       1.278   7.271  20.618  0.00  0.00    +0.000 A 
ATOM      8  C   UNL     1       0.450   7.824  21.593  0.00  0.00    +0.000 A 
ATOM      9  C   UNL     1       0.184   9.200  21.605  0.00  0.00    +0.000 A 
ATOM     10  C   UNL     1       0.753  10.033  20.639  0.00  0.00    +0.000 A 
ATOM     11 CL   UNL     1       0.419  11.720  20.663  0.00  0.00    +0.000 Cl
ATOM     12  C   UNL     1       1.587   9.511  19.651  0.00  0.00    +0.000 A 
ATOM     13  C   UNL     1       1.828   8.134  19.650  0.00  0.00    +0.000 A 
ATOM     14  N   UNL     1       2.636   7.521  18.689  0.00  0.00    +0.000 N 
ATOM     15  C   UNL     1       3.340   8.001  17.627  0.00  0.00    +0.000 A 
ATOM     16  N   UNL     1       3.974   7.008  17.040  0.00  0.00    +0.000 NA
ATOM     17  N   UNL     1       3.689   5.850  17.734  0.00  0.00    +0.000 NA
ATOM     18  C   UNL     1       2.849   6.172  18.696  0.00  0.00    +0.000 A 
ENDROOT
BRANCH   4  19
ATOM     19  C   UNL     1       2.952   3.303  20.920  0.00  0.00    +0.000 C 
ATOM     20  C   UNL     1       1.834   2.576  21.677  0.00  0.00    +0.000 C 
ATOM     21  C   UNL     1       4.145   2.374  20.686  0.00  0.00    +0.000 C 
ENDBRANCH   4  19
TORSDOF 1
ENDMDL
MODEL 9
REMARK VINA RESULT:      -5.7      3.322      5.043
REMARK  Name = 
REMARK  4 active torsions:
REMARK  status: ('A' for Active; 'I' for Inactive)
REMARK    1  A    between atoms: C_1  and  C_2
REMARK    2  A    between atoms: N_4  and  C_19
REMARK    3  A    between atoms: C_19  and  C_20
REMARK    4  A    between atoms: C_19  and  C_21
REMARK                            x       y       z     vdW  Elec       q    Type
REMARK                         _______ _______ _______ _____ _____    ______ ____
ROOT
ATOM      1  C   UNL     1       2.583   2.531  16.986  0.00  0.00    +0.000 C 
ATOM      2  C   UNL     1       3.292   2.226  18.288  0.00  0.00    +0.000 C 
ATOM      3  O   UNL     1       3.509   1.046  18.578  0.00  0.00    +0.000 OA
ATOM      4  N   UNL     1       3.551   3.281  19.178  0.00  0.00    +0.000 N 
ATOM      5  C   UNL     1       3.352   4.627  18.875  0.00  0.00    +0.000 A 
ATOM      6  N   UNL     1       2.586   5.373  19.619  0.00  0.00    +0.000 NA
ATOM      7  C   UNL     1       2.404   6.736  19.276  0.00  0.00    +0.000 A 
ATOM      8  C   UNL     1       1.531   7.510  20.039  0.00  0.00    +0.000 A 
ATOM      9  C   UNL     1       1.320   8.861  19.731  0.00  0.00    +0.000 A 
ATOM     10  C   UNL     1       1.990   9.447  18.655  0.00  0.00    +0.000 A 
ATOM     11 CL   UNL     1       1.724  11.106  18.286  0.00  0.00    +0.000 Cl
ATOM     12  C   UNL     1       2.870   8.702  17.873  0.00  0.00    +0.000 A 
ATOM     13  C   UNL     1       3.055   7.353  18.190  0.00  0.00    +0.000 A 
ATOM     14  N   UNL     1       3.904   6.524  17.452  0.00  0.00    +0.000 N 
ATOM     15  C   UNL     1       4.701   6.743  16.369  0.00  0.00    +0.000 A 
ATOM     16  N   UNL     1       5.335   5.630  16.063  0.00  0.00    +0.000 NA
ATOM     17  N   UNL     1       4.954   4.660  16.968  0.00  0.00    +0.000 NA
ATOM     18  C   UNL     1       4.062   5.206  17.767  0.00  0.00    +0.000 A 
ENDROOT
BRANCH   4  19
ATOM     19  C   UNL     1       3.889   2.893  20.563  0.00  0.00    +0.000 C 
ATOM     20  C   UNL     1       2.673   2.501  21.409  0.00  0.00    +0.000 C 
ATOM     21  C   UNL     1       4.969   1.811  20.626  0.00  0.00    +0.000 C 
ENDBRANCH   4  19
TORSDOF 1
ENDMDL
