MODEL 1
REMARK VINA RESULT:      -6.5      0.000      0.000
REMARK  Name = 
REMARK  5 active torsions:
REMARK  status: ('A' for Active; 'I' for Inactive)
REMARK    1  A    between atoms: C_2  and  C_3
REMARK    2  A    between atoms: C_6  and  N_7
REMARK    3  A    between atoms: C_11  and  C_12
REMARK    4  A    between atoms: C_13  and  C_14
REMARK    5  A    between atoms: C_16  and  N_17
REMARK                            x       y       z     vdW  Elec       q    Type
REMARK                         _______ _______ _______ _____ _____    ______ ____
ROOT
ATOM      1  C   UNL     1      -6.814  13.122  21.070  0.00  0.00    +0.000 A 
ATOM      2  C   UNL     1      -7.295  11.813  21.329  0.00  0.00    +0.000 A 
ATOM      3  C   UNL     1      -7.475  10.926  20.264  0.00  0.00    +0.000 A 
ATOM      4  N   UNL     1      -7.397  11.311  18.984  0.00  0.00    +0.000 NA
ATOM      5  C   UNL     1      -7.144  12.613  18.722  0.00  0.00    +0.000 A 
ATOM      6  C   UNL     1      -6.798  13.547  19.711  0.00  0.00    +0.000 A 
ATOM      7  C   UNL     1      -6.560  14.984  19.291  0.00  0.00    +0.000 C 
ATOM      8  N   UNL     1      -6.372  15.208  17.853  0.00  0.00    +0.000 NA
ATOM      9  C   UNL     1      -7.408  14.504  17.097  0.00  0.00    +0.000 C 
ATOM     10  C   UNL     1      -7.241  13.001  17.269  0.00  0.00    +0.000 C 
ATOM     11  H   UNL     1      -5.451  14.860  17.579  0.00  0.00    +0.000 HD
ENDROOT
BRANCH   1  16
ATOM     12  N   UNL     1      -5.064  14.064  22.771  0.00  0.00    +0.000 N 
ATOM     13  C   UNL     1      -5.094  14.967  23.820  0.00  0.00    +0.000 A 
ATOM     14  C   UNL     1      -6.310  15.592  23.854  0.00  0.00    +0.000 A 
ATOM     15  C   UNL     1      -7.101  14.983  22.863  0.00  0.00    +0.000 A 
ATOM     16  C   UNL     1      -6.347  14.031  22.173  0.00  0.00    +0.000 A 
BRANCH  12  20
ATOM     17  C   UNL     1      -1.406  12.124  21.936  0.00  0.00    +0.000 A 
ATOM     18  C   UNL     1      -1.962  13.012  21.012  0.00  0.00    +0.000 A 
ATOM     19  C   UNL     1      -3.208  13.590  21.261  0.00  0.00    +0.000 A 
ATOM     20  C   UNL     1      -3.896  13.305  22.451  0.00  0.00    +0.000 A 
ATOM     21  C   UNL     1      -3.373  12.365  23.345  0.00  0.00    +0.000 A 
ATOM     22  C   UNL     1      -2.124  11.785  23.091  0.00  0.00    +0.000 A 
BRANCH  17  24
ATOM     23  N   UNL     1       0.961  11.139  21.545  0.00  0.00    +0.000 NA
ATOM     24  C   UNL     1      -0.096  11.579  21.714  0.00  0.00    +0.000 C 
ENDBRANCH  17  24
ENDBRANCH  12  20
ENDBRANCH   1  16
BRANCH   3  25
ATOM     25  N   UNL     1      -7.801   9.584  20.436  0.00  0.00    +0.000 N 
ATOM     26  H   UNL     1      -7.008   8.956  20.350  0.00  0.00    +0.000 HD
ATOM     27  H   UNL     1      -8.539   9.355  19.774  0.00  0.00    +0.000 HD
ENDBRANCH   3  25
BRANCH   2  28
ATOM     28  C   UNL     1      -7.656  11.351  22.638  0.00  0.00    +0.000 C 
ATOM     29  N   UNL     1      -7.916  10.951  23.699  0.00  0.00    +0.000 NA
ENDBRANCH   2  28
TORSDOF 5
ENDMDL
MODEL 2
REMARK VINA RESULT:      -6.3      4.380      6.507
REMARK  Name = 
REMARK  5 active torsions:
REMARK  status: ('A' for Active; 'I' for Inactive)
REMARK    1  A    between atoms: C_2  and  C_3
REMARK    2  A    between atoms: C_6  and  N_7
REMARK    3  A    between atoms: C_11  and  C_12
REMARK    4  A    between atoms: C_13  and  C_14
REMARK    5  A    between atoms: C_16  and  N_17
REMARK                            x       y       z     vdW  Elec       q    Type
REMARK                         _______ _______ _______ _____ _____    ______ ____
ROOT
ATOM      1  C   UNL     1      -0.739  11.127  20.232  0.00  0.00    +0.000 A 
ATOM      2  C   UNL     1       0.314  10.180  20.281  0.00  0.00    +0.000 A 
ATOM      3  C   UNL     1       0.677   9.497  19.117  0.00  0.00    +0.000 A 
ATOM      4  N   UNL     1      -0.049   9.552  17.993  0.00  0.00    +0.000 NA
ATOM      5  C   UNL     1      -1.181  10.292  17.998  0.00  0.00    +0.000 A 
ATOM      6  C   UNL     1      -1.549  11.132  19.061  0.00  0.00    +0.000 A 
ATOM      7  C   UNL     1      -2.856  11.894  18.956  0.00  0.00    +0.000 C 
ATOM      8  N   UNL     1      -3.453  11.959  17.617  0.00  0.00    +0.000 NA
ATOM      9  C   UNL     1      -3.459  10.629  17.007  0.00  0.00    +0.000 C 
ATOM     10  C   UNL     1      -2.030  10.168  16.760  0.00  0.00    +0.000 C 
ATOM     11  H   UNL     1      -2.906  12.600  17.038  0.00  0.00    +0.000 HD
ENDROOT
BRANCH   1  16
ATOM     12  N   UNL     1      -0.685  13.459  21.416  0.00  0.00    +0.000 N 
ATOM     13  C   UNL     1      -0.998  13.934  22.679  0.00  0.00    +0.000 A 
ATOM     14  C   UNL     1      -1.604  12.944  23.404  0.00  0.00    +0.000 A 
ATOM     15  C   UNL     1      -1.570  11.786  22.607  0.00  0.00    +0.000 A 
ATOM     16  C   UNL     1      -1.005  12.081  21.364  0.00  0.00    +0.000 A 
BRANCH  12  20
ATOM     17  C   UNL     1       1.073  16.192  18.717  0.00  0.00    +0.000 A 
ATOM     18  C   UNL     1      -0.299  16.237  18.975  0.00  0.00    +0.000 A 
ATOM     19  C   UNL     1      -0.885  15.283  19.808  0.00  0.00    +0.000 A 
ATOM     20  C   UNL     1      -0.097  14.291  20.413  0.00  0.00    +0.000 A 
ATOM     21  C   UNL     1       1.264  14.203  20.102  0.00  0.00    +0.000 A 
ATOM     22  C   UNL     1       1.848  15.160  19.264  0.00  0.00    +0.000 A 
BRANCH  17  24
ATOM     23  N   UNL     1       2.188  18.024  17.259  0.00  0.00    +0.000 NA
ATOM     24  C   UNL     1       1.690  17.210  17.914  0.00  0.00    +0.000 C 
ENDBRANCH  17  24
ENDBRANCH  12  20
ENDBRANCH   1  16
BRANCH   3  25
ATOM     25  N   UNL     1       1.787   8.662  19.037  0.00  0.00    +0.000 N 
ATOM     26  H   UNL     1       1.691   7.919  18.352  0.00  0.00    +0.000 HD
ATOM     27  H   UNL     1       1.970   8.296  19.969  0.00  0.00    +0.000 HD
ENDBRANCH   3  25
BRANCH   2  28
ATOM     28  C   UNL     1       1.015   9.842  21.487  0.00  0.00    +0.000 C 
ATOM     29  N   UNL     1       1.617   9.560  22.442  0.00  0.00    +0.000 NA
ENDBRANCH   2  28
TORSDOF 5
ENDMDL
MODEL 3
REMARK VINA RESULT:      -6.2      9.526     13.250
REMARK  Name = 
REMARK  5 active torsions:
REMARK  status: ('A' for Active; 'I' for Inactive)
REMARK    1  A    between atoms: C_2  and  C_3
REMARK    2  A    between atoms: C_6  and  N_7
REMARK    3  A    between atoms: C_11  and  C_12
REMARK    4  A    between atoms: C_13  and  C_14
REMARK    5  A    between atoms: C_16  and  N_17
REMARK                            x       y       z     vdW  Elec       q    Type
REMARK                         _______ _______ _______ _____ _____    ______ ____
ROOT
ATOM      1  C   UNL     1       3.817   5.057  18.433  0.00  0.00    +0.000 A 
ATOM      2  C   UNL     1       3.615   4.229  19.566  0.00  0.00    +0.000 A 
ATOM      3  C   UNL     1       2.576   4.523  20.454  0.00  0.00    +0.000 A 
ATOM      4  N   UNL     1       1.877   5.664  20.392  0.00  0.00    +0.000 NA
ATOM      5  C   UNL     1       2.203   6.563  19.437  0.00  0.00    +0.000 A 
ATOM      6  C   UNL     1       3.121   6.299  18.409  0.00  0.00    +0.000 A 
ATOM      7  C   UNL     1       3.419   7.400  17.410  0.00  0.00    +0.000 C 
ATOM      8  N   UNL     1       2.474   8.523  17.394  0.00  0.00    +0.000 NA
ATOM      9  C   UNL     1       2.214   8.977  18.760  0.00  0.00    +0.000 C 
ATOM     10  C   UNL     1       1.491   7.887  19.538  0.00  0.00    +0.000 C 
ATOM     11  H   UNL     1       1.600   8.216  16.962  0.00  0.00    +0.000 HD
ENDROOT
BRANCH   1  16
ATOM     12  N   UNL     1       5.938   5.282  16.919  0.00  0.00    +0.000 N 
ATOM     13  C   UNL     1       6.401   4.666  15.768  0.00  0.00    +0.000 A 
ATOM     14  C   UNL     1       5.597   3.602  15.463  0.00  0.00    +0.000 A 
ATOM     15  C   UNL     1       4.538   3.621  16.389  0.00  0.00    +0.000 A 
ATOM     16  C   UNL     1       4.729   4.656  17.307  0.00  0.00    +0.000 A 
BRANCH  12  20
ATOM     17  C   UNL     1       8.248   8.456  18.478  0.00  0.00    +0.000 A 
ATOM     18  C   UNL     1       8.355   7.173  19.019  0.00  0.00    +0.000 A 
ATOM     19  C   UNL     1       7.532   6.146  18.550  0.00  0.00    +0.000 A 
ATOM     20  C   UNL     1       6.616   6.391  17.515  0.00  0.00    +0.000 A 
ATOM     21  C   UNL     1       6.460   7.690  17.020  0.00  0.00    +0.000 A 
ATOM     22  C   UNL     1       7.285   8.717  17.494  0.00  0.00    +0.000 A 
BRANCH  17  24
ATOM     23  N   UNL     1       9.848  10.338  19.269  0.00  0.00    +0.000 NA
ATOM     24  C   UNL     1       9.137   9.498  18.912  0.00  0.00    +0.000 C 
ENDBRANCH  17  24
ENDBRANCH  12  20
ENDBRANCH   1  16
BRANCH   3  25
ATOM     25  N   UNL     1       2.212   3.689  21.506  0.00  0.00    +0.000 N 
ATOM     26  H   UNL     1       1.216   3.691  21.704  0.00  0.00    +0.000 HD
ATOM     27  H   UNL     1       2.760   3.957  22.321  0.00  0.00    +0.000 HD
ENDBRANCH   3  25
BRANCH   2  28
ATOM     28  C   UNL     1       4.455   3.111  19.886  0.00  0.00    +0.000 C 
ATOM     29  N   UNL     1       5.103   2.181  20.147  0.00  0.00    +0.000 NA
ENDBRANCH   2  28
TORSDOF 5
ENDMDL
MODEL 4
REMARK VINA RESULT:      -6.2      9.350     14.087
REMARK  Name = 
REMARK  5 active torsions:
REMARK  status: ('A' for Active; 'I' for Inactive)
REMARK    1  A    between atoms: C_2  and  C_3
REMARK    2  A    between atoms: C_6  and  N_7
REMARK    3  A    between atoms: C_11  and  C_12
REMARK    4  A    between atoms: C_13  and  C_14
REMARK    5  A    between atoms: C_16  and  N_17
REMARK                            x       y       z     vdW  Elec       q    Type
REMARK                         _______ _______ _______ _____ _____    ______ ____
ROOT
ATOM      1  C   UNL     1       5.302   4.466  16.727  0.00  0.00    +0.000 A 
ATOM      2  C   UNL     1       6.203   5.169  17.566  0.00  0.00    +0.000 A 
ATOM      3  C   UNL     1       7.183   5.982  16.990  0.00  0.00    +0.000 A 
ATOM      4  N   UNL     1       7.438   5.982  15.675  0.00  0.00    +0.000 NA
ATOM      5  C   UNL     1       6.721   5.152  14.884  0.00  0.00    +0.000 A 
ATOM      6  C   UNL     1       5.618   4.413  15.340  0.00  0.00    +0.000 A 
ATOM      7  C   UNL     1       4.909   3.500  14.359  0.00  0.00    +0.000 C 
ATOM      8  N   UNL     1       5.216   3.722  12.941  0.00  0.00    +0.000 NA
ATOM      9  C   UNL     1       6.662   3.833  12.753  0.00  0.00    +0.000 C 
ATOM     10  C   UNL     1       7.180   5.082  13.451  0.00  0.00    +0.000 C 
ATOM     11  H   UNL     1       4.763   4.585  12.633  0.00  0.00    +0.000 HD
ENDROOT
BRANCH   1  16
ATOM     12  N   UNL     1       3.006   4.399  17.979  0.00  0.00    +0.000 N 
ATOM     13  C   UNL     1       2.134   3.406  18.392  0.00  0.00    +0.000 A 
ATOM     14  C   UNL     1       2.538   2.201  17.886  0.00  0.00    +0.000 A 
ATOM     15  C   UNL     1       3.759   2.432  17.227  0.00  0.00    +0.000 A 
ATOM     16  C   UNL     1       4.071   3.794  17.269  0.00  0.00    +0.000 A 
BRANCH  12  20
ATOM     17  C   UNL     1       2.057   8.435  18.785  0.00  0.00    +0.000 A 
ATOM     18  C   UNL     1       2.515   8.056  17.520  0.00  0.00    +0.000 A 
ATOM     19  C   UNL     1       2.900   6.735  17.285  0.00  0.00    +0.000 A 
ATOM     20  C   UNL     1       2.802   5.776  18.305  0.00  0.00    +0.000 A 
ATOM     21  C   UNL     1       2.408   6.168  19.589  0.00  0.00    +0.000 A 
ATOM     22  C   UNL     1       2.025   7.495  19.823  0.00  0.00    +0.000 A 
BRANCH  17  24
ATOM     23  N   UNL     1       1.221  10.856  19.197  0.00  0.00    +0.000 NA
ATOM     24  C   UNL     1       1.599   9.778  19.013  0.00  0.00    +0.000 C 
ENDBRANCH  17  24
ENDBRANCH  12  20
ENDBRANCH   1  16
BRANCH   3  25
ATOM     25  N   UNL     1       8.012   6.819  17.730  0.00  0.00    +0.000 N 
ATOM     26  H   UNL     1       7.512   7.526  18.259  0.00  0.00    +0.000 HD
ATOM     27  H   UNL     1       8.688   7.233  17.091  0.00  0.00    +0.000 HD
ENDBRANCH   3  25
BRANCH   2  28
ATOM     28  C   UNL     1       6.197   5.061  18.997  0.00  0.00    +0.000 C 
ATOM     29  N   UNL     1       6.231   4.967  20.155  0.00  0.00    +0.000 NA
ENDBRANCH   2  28
TORSDOF 5
ENDMDL
MODEL 5
REMARK VINA RESULT:      -6.2      4.227      6.358
REMARK  Name = 
REMARK  5 active torsions:
REMARK  status: ('A' for Active; 'I' for Inactive)
REMARK    1  A    between atoms: C_2  and  C_3
REMARK    2  A    between atoms: C_6  and  N_7
REMARK    3  A    between atoms: C_11  and  C_12
REMARK    4  A    between atoms: C_13  and  C_14
REMARK    5  A    between atoms: C_16  and  N_17
REMARK                            x       y       z     vdW  Elec       q    Type
REMARK                         _______ _______ _______ _____ _____    ______ ____
ROOT
ATOM      1  C   UNL     1      -0.862  11.182  20.315  0.00  0.00    +0.000 A 
ATOM      2  C   UNL     1       0.225  10.271  20.328  0.00  0.00    +0.000 A 
ATOM      3  C   UNL     1       0.627   9.667  19.134  0.00  0.00    +0.000 A 
ATOM      4  N   UNL     1      -0.086   9.757  18.004  0.00  0.00    +0.000 NA
ATOM      5  C   UNL     1      -1.244  10.455  18.033  0.00  0.00    +0.000 A 
ATOM      6  C   UNL     1      -1.656  11.222  19.133  0.00  0.00    +0.000 A 
ATOM      7  C   UNL     1      -2.988  11.942  19.051  0.00  0.00    +0.000 C 
ATOM      8  N   UNL     1      -3.571  12.058  17.709  0.00  0.00    +0.000 NA
ATOM      9  C   UNL     1      -3.520  10.765  17.027  0.00  0.00    +0.000 C 
ATOM     10  C   UNL     1      -2.072  10.369  16.777  0.00  0.00    +0.000 C 
ATOM     11  H   UNL     1      -3.040  12.749  17.174  0.00  0.00    +0.000 HD
ENDROOT
BRANCH   1  16
ATOM     12  N   UNL     1      -0.729  13.388  21.715  0.00  0.00    +0.000 N 
ATOM     13  C   UNL     1      -1.155  13.788  22.970  0.00  0.00    +0.000 A 
ATOM     14  C   UNL     1      -1.947  12.816  23.518  0.00  0.00    +0.000 A 
ATOM     15  C   UNL     1      -1.925  11.731  22.624  0.00  0.00    +0.000 A 
ATOM     16  C   UNL     1      -1.176  12.063  21.492  0.00  0.00    +0.000 A 
BRANCH  12  20
ATOM     17  C   UNL     1       1.693  15.564  19.025  0.00  0.00    +0.000 A 
ATOM     18  C   UNL     1       2.273  14.826  20.060  0.00  0.00    +0.000 A 
ATOM     19  C   UNL     1       1.463  14.173  20.991  0.00  0.00    +0.000 A 
ATOM     20  C   UNL     1       0.065  14.229  20.876  0.00  0.00    +0.000 A 
ATOM     21  C   UNL     1      -0.517  15.022  19.881  0.00  0.00    +0.000 A 
ATOM     22  C   UNL     1       0.298  15.679  18.951  0.00  0.00    +0.000 A 
BRANCH  17  24
ATOM     23  N   UNL     1       3.184  16.679  17.219  0.00  0.00    +0.000 NA
ATOM     24  C   UNL     1       2.522  16.183  18.028  0.00  0.00    +0.000 C 
ENDBRANCH  17  24
ENDBRANCH  12  20
ENDBRANCH   1  16
BRANCH   3  25
ATOM     25  N   UNL     1       1.768   8.877  19.025  0.00  0.00    +0.000 N 
ATOM     26  H   UNL     1       2.609   9.326  19.373  0.00  0.00    +0.000 HD
ATOM     27  H   UNL     1       1.863   8.600  18.050  0.00  0.00    +0.000 HD
ENDBRANCH   3  25
BRANCH   2  28
ATOM     28  C   UNL     1       0.922   9.894  21.524  0.00  0.00    +0.000 C 
ATOM     29  N   UNL     1       1.489   9.549  22.479  0.00  0.00    +0.000 NA
ENDBRANCH   2  28
TORSDOF 5
ENDMDL
MODEL 6
REMARK VINA RESULT:      -6.1      3.308      7.868
REMARK  Name = 
REMARK  5 active torsions:
REMARK  status: ('A' for Active; 'I' for Inactive)
REMARK    1  A    between atoms: C_2  and  C_3
REMARK    2  A    between atoms: C_6  and  N_7
REMARK    3  A    between atoms: C_11  and  C_12
REMARK    4  A    between atoms: C_13  and  C_14
REMARK    5  A    between atoms: C_16  and  N_17
REMARK                            x       y       z     vdW  Elec       q    Type
REMARK                         _______ _______ _______ _____ _____    ______ ____
ROOT
ATOM      1  C   UNL     1       0.655  11.021  20.439  0.00  0.00    +0.000 A 
ATOM      2  C   UNL     1       0.151  10.710  21.727  0.00  0.00    +0.000 A 
ATOM      3  C   UNL     1       0.504   9.498  22.327  0.00  0.00    +0.000 A 
ATOM      4  N   UNL     1       1.143   8.525  21.665  0.00  0.00    +0.000 NA
ATOM      5  C   UNL     1       1.445   8.729  20.363  0.00  0.00    +0.000 A 
ATOM      6  C   UNL     1       1.273   9.962  19.714  0.00  0.00    +0.000 A 
ATOM      7  C   UNL     1       1.629  10.057  18.244  0.00  0.00    +0.000 C 
ATOM      8  N   UNL     1       2.443   8.959  17.709  0.00  0.00    +0.000 NA
ATOM      9  C   UNL     1       1.888   7.673  18.132  0.00  0.00    +0.000 C 
ATOM     10  C   UNL     1       2.007   7.531  19.642  0.00  0.00    +0.000 C 
ATOM     11  H   UNL     1       3.399   9.052  18.060  0.00  0.00    +0.000 HD
ENDROOT
BRANCH   1  16
ATOM     12  N   UNL     1      -0.599  12.978  19.239  0.00  0.00    +0.000 N 
ATOM     13  C   UNL     1      -0.243  14.217  18.733  0.00  0.00    +0.000 A 
ATOM     14  C   UNL     1       1.047  14.504  19.089  0.00  0.00    +0.000 A 
ATOM     15  C   UNL     1       1.545  13.363  19.743  0.00  0.00    +0.000 A 
ATOM     16  C   UNL     1       0.539  12.400  19.851  0.00  0.00    +0.000 A 
BRANCH  12  20
ATOM     17  C   UNL     1      -4.583  11.721  18.615  0.00  0.00    +0.000 A 
ATOM     18  C   UNL     1      -4.247  12.471  19.745  0.00  0.00    +0.000 A 
ATOM     19  C   UNL     1      -2.916  12.817  19.983  0.00  0.00    +0.000 A 
ATOM     20  C   UNL     1      -1.913  12.438  19.077  0.00  0.00    +0.000 A 
ATOM     21  C   UNL     1      -2.237  11.630  17.982  0.00  0.00    +0.000 A 
ATOM     22  C   UNL     1      -3.573  11.283  17.748  0.00  0.00    +0.000 A 
BRANCH  17  24
ATOM     23  N   UNL     1      -7.069  11.186  18.106  0.00  0.00    +0.000 NA
ATOM     24  C   UNL     1      -5.959  11.419  18.332  0.00  0.00    +0.000 C 
ENDBRANCH  17  24
ENDBRANCH  12  20
ENDBRANCH   1  16
BRANCH   3  25
ATOM     25  N   UNL     1       0.179   9.173  23.640  0.00  0.00    +0.000 N 
ATOM     26  H   UNL     1       0.977   8.894  24.202  0.00  0.00    +0.000 HD
ATOM     27  H   UNL     1      -0.537   8.450  23.615  0.00  0.00    +0.000 HD
ENDBRANCH   3  25
BRANCH   2  28
ATOM     28  C   UNL     1      -0.751  11.562  22.448  0.00  0.00    +0.000 C 
ATOM     29  N   UNL     1      -1.463  12.242  23.067  0.00  0.00    +0.000 NA
ENDBRANCH   2  28
TORSDOF 5
ENDMDL
MODEL 7
REMARK VINA RESULT:      -6.1     11.068     14.276
REMARK  Name = 
REMARK  5 active torsions:
REMARK  status: ('A' for Active; 'I' for Inactive)
REMARK    1  A    between atoms: C_2  and  C_3
REMARK    2  A    between atoms: C_6  and  N_7
REMARK    3  A    between atoms: C_11  and  C_12
REMARK    4  A    between atoms: C_13  and  C_14
REMARK    5  A    between atoms: C_16  and  N_17
REMARK                            x       y       z     vdW  Elec       q    Type
REMARK                         _______ _______ _______ _____ _____    ______ ____
ROOT
ATOM      1  C   UNL     1       7.661  14.268  21.741  0.00  0.00    +0.000 A 
ATOM      2  C   UNL     1       6.491  14.652  21.038  0.00  0.00    +0.000 A 
ATOM      3  C   UNL     1       5.243  14.493  21.647  0.00  0.00    +0.000 A 
ATOM      4  N   UNL     1       5.079  13.817  22.791  0.00  0.00    +0.000 NA
ATOM      5  C   UNL     1       6.169  13.261  23.367  0.00  0.00    +0.000 A 
ATOM      6  C   UNL     1       7.480  13.490  22.920  0.00  0.00    +0.000 A 
ATOM      7  C   UNL     1       8.617  12.790  23.638  0.00  0.00    +0.000 C 
ATOM      8  N   UNL     1       8.288  12.208  24.944  0.00  0.00    +0.000 NA
ATOM      9  C   UNL     1       7.046  11.441  24.852  0.00  0.00    +0.000 C 
ATOM     10  C   UNL     1       5.883  12.376  24.552  0.00  0.00    +0.000 C 
ATOM     11  H   UNL     1       8.176  12.961  25.626  0.00  0.00    +0.000 HD
ENDROOT
BRANCH   1  16
ATOM     12  N   UNL     1       9.862  13.934  20.368  0.00  0.00    +0.000 N 
ATOM     13  C   UNL     1      11.087  14.577  20.293  0.00  0.00    +0.000 A 
ATOM     14  C   UNL     1      11.043  15.734  21.022  0.00  0.00    +0.000 A 
ATOM     15  C   UNL     1       9.790  15.759  21.660  0.00  0.00    +0.000 A 
ATOM     16  C   UNL     1       9.035  14.651  21.267  0.00  0.00    +0.000 A 
BRANCH  12  20
ATOM     17  C   UNL     1       8.737  10.338  18.459  0.00  0.00    +0.000 A 
ATOM     18  C   UNL     1       9.363  10.310  19.708  0.00  0.00    +0.000 A 
ATOM     19  C   UNL     1       9.801  11.497  20.298  0.00  0.00    +0.000 A 
ATOM     20  C   UNL     1       9.590  12.727  19.654  0.00  0.00    +0.000 A 
ATOM     21  C   UNL     1       9.026  12.751  18.374  0.00  0.00    +0.000 A 
ATOM     22  C   UNL     1       8.591  11.558  17.784  0.00  0.00    +0.000 A 
BRANCH  17  24
ATOM     23  N   UNL     1       7.819   8.154  17.405  0.00  0.00    +0.000 NA
ATOM     24  C   UNL     1       8.227   9.127  17.880  0.00  0.00    +0.000 C 
ENDBRANCH  17  24
ENDBRANCH  12  20
ENDBRANCH   1  16
BRANCH   3  25
ATOM     25  N   UNL     1       4.059  14.974  21.096  0.00  0.00    +0.000 N 
ATOM     26  H   UNL     1       3.627  14.336  20.436  0.00  0.00    +0.000 HD
ATOM     27  H   UNL     1       4.256  15.880  20.674  0.00  0.00    +0.000 HD
ENDBRANCH   3  25
BRANCH   2  28
ATOM     28  C   UNL     1       6.508  15.164  19.698  0.00  0.00    +0.000 C 
ATOM     29  N   UNL     1       6.511  15.542  18.598  0.00  0.00    +0.000 NA
ENDBRANCH   2  28
TORSDOF 5
ENDMDL
MODEL 8
REMARK VINA RESULT:      -6.0      0.692      1.175
REMARK  Name = 
REMARK  5 active torsions:
REMARK  status: ('A' for Active; 'I' for Inactive)
REMARK    1  A    between atoms: C_2  and  C_3
REMARK    2  A    between atoms: C_6  and  N_7
REMARK    3  A    between atoms: C_11  and  C_12
REMARK    4  A    between atoms: C_13  and  C_14
REMARK    5  A    between atoms: C_16  and  N_17
REMARK                            x       y       z     vdW  Elec       q    Type
REMARK                         _______ _______ _______ _____ _____    ______ ____
ROOT
ATOM      1  C   UNL     1      -6.644  13.729  21.199  0.00  0.00    +0.000 A 
ATOM      2  C   UNL     1      -7.191  12.437  21.405  0.00  0.00    +0.000 A 
ATOM      3  C   UNL     1      -7.421  11.607  20.304  0.00  0.00    +0.000 A 
ATOM      4  N   UNL     1      -7.328  12.042  19.041  0.00  0.00    +0.000 NA
ATOM      5  C   UNL     1      -7.009  13.339  18.833  0.00  0.00    +0.000 A 
ATOM      6  C   UNL     1      -6.612  14.211  19.859  0.00  0.00    +0.000 A 
ATOM      7  C   UNL     1      -6.302  15.650  19.500  0.00  0.00    +0.000 C 
ATOM      8  N   UNL     1      -6.108  15.927  18.072  0.00  0.00    +0.000 NA
ATOM      9  C   UNL     1      -7.181  15.310  17.293  0.00  0.00    +0.000 C 
ATOM     10  C   UNL     1      -7.092  13.795  17.399  0.00  0.00    +0.000 C 
ATOM     11  H   UNL     1      -5.207  15.544  17.778  0.00  0.00    +0.000 HD
ENDROOT
BRANCH   1  16
ATOM     12  N   UNL     1      -4.836  14.518  22.917  0.00  0.00    +0.000 N 
ATOM     13  C   UNL     1      -4.816  15.370  24.009  0.00  0.00    +0.000 A 
ATOM     14  C   UNL     1      -6.006  16.040  24.090  0.00  0.00    +0.000 A 
ATOM     15  C   UNL     1      -6.833  15.511  23.083  0.00  0.00    +0.000 A 
ATOM     16  C   UNL     1      -6.127  14.564  22.337  0.00  0.00    +0.000 A 
BRANCH  12  20
ATOM     17  C   UNL     1      -1.733  11.910  21.730  0.00  0.00    +0.000 A 
ATOM     18  C   UNL     1      -2.285  11.815  23.010  0.00  0.00    +0.000 A 
ATOM     19  C   UNL     1      -3.256  12.730  23.421  0.00  0.00    +0.000 A 
ATOM     20  C   UNL     1      -3.703  13.730  22.544  0.00  0.00    +0.000 A 
ATOM     21  C   UNL     1      -3.103  13.869  21.288  0.00  0.00    +0.000 A 
ATOM     22  C   UNL     1      -2.127  12.951  20.879  0.00  0.00    +0.000 A 
BRANCH  17  24
ATOM     23  N   UNL     1      -0.008  10.150  20.919  0.00  0.00    +0.000 NA
ATOM     24  C   UNL     1      -0.782  10.932  21.280  0.00  0.00    +0.000 C 
ENDBRANCH  17  24
ENDBRANCH  12  20
ENDBRANCH   1  16
BRANCH   3  25
ATOM     25  N   UNL     1      -7.815  10.277  20.420  0.00  0.00    +0.000 N 
ATOM     26  H   UNL     1      -8.183  10.039  21.336  0.00  0.00    +0.000 HD
ATOM     27  H   UNL     1      -7.021   9.693  20.167  0.00  0.00    +0.000 HD
ENDBRANCH   3  25
BRANCH   2  28
ATOM     28  C   UNL     1      -7.571  11.938  22.695  0.00  0.00    +0.000 C 
ATOM     29  N   UNL     1      -7.916  11.530  23.728  0.00  0.00    +0.000 NA
ENDBRANCH   2  28
TORSDOF 5
ENDMDL
MODEL 9
REMARK VINA RESULT:      -6.0      3.356      5.674
REMARK  Name = 
REMARK  5 active torsions:
REMARK  status: ('A' for Active; 'I' for Inactive)
REMARK    1  A    between atoms: C_2  and  C_3
REMARK    2  A    between atoms: C_6  and  N_7
REMARK    3  A    between atoms: C_11  and  C_12
REMARK    4  A    between atoms: C_13  and  C_14
REMARK    5  A    between atoms: C_16  and  N_17
REMARK                            x       y       z     vdW  Elec       q    Type
REMARK                         _______ _______ _______ _____ _____    ______ ____
ROOT
ATOM      1  C   UNL     1      -1.970  12.020  20.115  0.00  0.00    +0.000 A 
ATOM      2  C   UNL     1      -0.810  11.277  19.780  0.00  0.00    +0.000 A 
ATOM      3  C   UNL     1      -0.649  10.808  18.474  0.00  0.00    +0.000 A 
ATOM      4  N   UNL     1      -1.630  10.861  17.563  0.00  0.00    +0.000 NA
ATOM      5  C   UNL     1      -2.821  11.381  17.935  0.00  0.00    +0.000 A 
ATOM      6  C   UNL     1      -3.035  12.014  19.169  0.00  0.00    +0.000 A 
ATOM      7  C   UNL     1      -4.424  12.538  19.478  0.00  0.00    +0.000 C 
ATOM      8  N   UNL     1      -5.336  12.647  18.334  0.00  0.00    +0.000 NA
ATOM      9  C   UNL     1      -5.297  11.417  17.543  0.00  0.00    +0.000 C 
ATOM     10  C   UNL     1      -3.921  11.250  16.914  0.00  0.00    +0.000 C 
ATOM     11  H   UNL     1      -5.048  13.437  17.752  0.00  0.00    +0.000 HD
ENDROOT
BRANCH   1  16
ATOM     12  N   UNL     1      -1.784  14.140  21.635  0.00  0.00    +0.000 N 
ATOM     13  C   UNL     1      -1.919  14.400  22.989  0.00  0.00    +0.000 A 
ATOM     14  C   UNL     1      -2.397  13.287  23.625  0.00  0.00    +0.000 A 
ATOM     15  C   UNL     1      -2.459  12.268  22.657  0.00  0.00    +0.000 A 
ATOM     16  C   UNL     1      -2.085  12.775  21.409  0.00  0.00    +0.000 A 
BRANCH  12  20
ATOM     17  C   UNL     1      -0.689  16.881  18.614  0.00  0.00    +0.000 A 
ATOM     18  C   UNL     1       0.096  15.752  18.862  0.00  0.00    +0.000 A 
ATOM     19  C   UNL     1      -0.230  14.892  19.912  0.00  0.00    +0.000 A 
ATOM     20  C   UNL     1      -1.362  15.140  20.706  0.00  0.00    +0.000 A 
ATOM     21  C   UNL     1      -2.108  16.306  20.502  0.00  0.00    +0.000 A 
ATOM     22  C   UNL     1      -1.777  17.167  19.449  0.00  0.00    +0.000 A 
BRANCH  17  24
ATOM     23  N   UNL     1      -0.166  18.422  16.594  0.00  0.00    +0.000 NA
ATOM     24  C   UNL     1      -0.395  17.732  17.494  0.00  0.00    +0.000 C 
ENDBRANCH  17  24
ENDBRANCH  12  20
ENDBRANCH   1  16
BRANCH   3  25
ATOM     25  N   UNL     1       0.517  10.200  18.019  0.00  0.00    +0.000 N 
ATOM     26  H   UNL     1       0.488   9.943  17.037  0.00  0.00    +0.000 HD
ATOM     27  H   UNL     1       0.702   9.395  18.615  0.00  0.00    +0.000 HD
ENDBRANCH   3  25
BRANCH   2  28
ATOM     28  C   UNL     1       0.208  10.934  20.731  0.00  0.00    +0.000 C 
ATOM     29  N   UNL     1       1.029  10.617  21.492  0.00  0.00    +0.000 NA
ENDBRANCH   2  28
TORSDOF 5
ENDMDL
