MODEL 1
REMARK VINA RESULT:      -8.2      0.000      0.000
REMARK  Name = 
REMARK  9 active torsions:
REMARK  status: ('A' for Active; 'I' for Inactive)
REMARK    1  A    between atoms: C_1  and  C_2
REMARK    2  A    between atoms: C_2  and  O_3
REMARK    3  A    between atoms: O_3  and  C_4
REMARK    4  A    between atoms: C_4  and  C_6
REMARK    5  A    between atoms: C_7  and  N_8
REMARK    6  A    between atoms: C_17  and  C_18
REMARK    7  A    between atoms: C_23  and  O_24
REMARK    8  A    between atoms: O_24  and  C_25
REMARK    9  A    between atoms: C_25  and  C_26
REMARK                            x       y       z     vdW  Elec       q    Type
REMARK                         _______ _______ _______ _____ _____    ______ ____
ROOT
ATOM      1  C   UNL     1       5.576   5.445  17.522  0.00  0.00    +0.000 C 
ATOM      2  C   UNL     1       6.316   4.653  18.335  0.00  0.00    +0.000 C 
ATOM      3  O   UNL     1       5.731   3.626  19.061  0.00  0.00    +0.000 OA
ATOM      4  C   UNL     1       4.447   3.212  18.774  0.00  0.00    +0.000 C 
ATOM      5  C   UNL     1       3.640   3.908  17.951  0.00  0.00    +0.000 C 
ATOM      6  C   UNL     1       2.283   3.367  17.666  0.00  0.00    +0.000 C 
ATOM      7  O   UNL     1       1.577   3.871  16.797  0.00  0.00    +0.000 OA
ATOM      8  C   UNL     1       1.830   2.122  18.402  0.00  0.00    +0.000 C 
ATOM      9  C   UNL     1       2.524   1.976  19.747  0.00  0.00    +0.000 C 
ATOM     10  C   UNL     1       4.033   2.003  19.561  0.00  0.00    +0.000 C 
ATOM     11  C   UNL     1       4.055   5.248  17.345  0.00  0.00    +0.000 C 
ENDROOT
BRANCH  11  12
ATOM     12  C   UNL     1       3.250   6.381  18.018  0.00  0.00    +0.000 A 
ATOM     13  C   UNL     1       2.928   7.503  17.200  0.00  0.00    +0.000 A 
ATOM     14  C   UNL     1       2.262   8.621  17.699  0.00  0.00    +0.000 A 
ATOM     15  C   UNL     1       1.828   8.617  19.009  0.00  0.00    +0.000 A 
ATOM     16  C   UNL     1       2.102   7.523  19.832  0.00  0.00    +0.000 A 
ATOM     17  C   UNL     1       2.867   6.427  19.381  0.00  0.00    +0.000 A 
BRANCH  17  18
ATOM     18  O   UNL     1       3.274   5.427  20.251  0.00  0.00    +0.000 OA
BRANCH  18  19
ATOM     19  C   UNL     1       2.251   5.025  21.186  0.00  0.00    +0.000 C 
ATOM     20  C   UNL     1       0.908   4.716  20.551  0.00  0.00    +0.000 C 
ENDBRANCH  18  19
ENDBRANCH  17  18
ENDBRANCH  11  12
BRANCH   2  21
ATOM     21  N   UNL     1       7.664   4.731  18.586  0.00  0.00    +0.000 N 
ATOM     22  H   UNL     1       8.063   3.894  19.009  0.00  0.00    +0.000 HD
ATOM     23  H   UNL     1       8.191   5.095  17.802  0.00  0.00    +0.000 HD
ENDBRANCH   2  21
BRANCH   1  24
ATOM     24  C   UNL     1       6.170   6.529  16.693  0.00  0.00    +0.000 C 
ATOM     25  O   UNL     1       6.659   7.549  17.151  0.00  0.00    +0.000 OA
BRANCH  24  26
ATOM     26  O   UNL     1       6.006   6.285  15.364  0.00  0.00    +0.000 OA
BRANCH  26  28
ATOM     27  C   UNL     1       5.831   4.226  14.154  0.00  0.00    +0.000 C 
ATOM     28  C   UNL     1       6.779   5.203  14.826  0.00  0.00    +0.000 C 
ENDBRANCH  26  28
ENDBRANCH  24  26
ENDBRANCH   1  24
TORSDOF 7
ENDMDL
MODEL 2
REMARK VINA RESULT:      -7.8      0.999      1.782
REMARK  Name = 
REMARK  9 active torsions:
REMARK  status: ('A' for Active; 'I' for Inactive)
REMARK    1  A    between atoms: C_1  and  C_2
REMARK    2  A    between atoms: C_2  and  O_3
REMARK    3  A    between atoms: O_3  and  C_4
REMARK    4  A    between atoms: C_4  and  C_6
REMARK    5  A    between atoms: C_7  and  N_8
REMARK    6  A    between atoms: C_17  and  C_18
REMARK    7  A    between atoms: C_23  and  O_24
REMARK    8  A    between atoms: O_24  and  C_25
REMARK    9  A    between atoms: C_25  and  C_26
REMARK                            x       y       z     vdW  Elec       q    Type
REMARK                         _______ _______ _______ _____ _____    ______ ____
ROOT
ATOM      1  C   UNL     1       5.642   5.564  17.787  0.00  0.00    +0.000 C 
ATOM      2  C   UNL     1       6.341   4.736  18.600  0.00  0.00    +0.000 C 
ATOM      3  O   UNL     1       5.733   3.648  19.208  0.00  0.00    +0.000 OA
ATOM      4  C   UNL     1       4.487   3.225  18.796  0.00  0.00    +0.000 C 
ATOM      5  C   UNL     1       3.724   3.957  17.962  0.00  0.00    +0.000 C 
ATOM      6  C   UNL     1       2.409   3.405  17.536  0.00  0.00    +0.000 C 
ATOM      7  O   UNL     1       1.756   3.952  16.651  0.00  0.00    +0.000 OA
ATOM      8  C   UNL     1       1.936   2.102  18.150  0.00  0.00    +0.000 C 
ATOM      9  C   UNL     1       2.531   1.879  19.532  0.00  0.00    +0.000 C 
ATOM     10  C   UNL     1       4.049   1.954  19.466  0.00  0.00    +0.000 C 
ATOM     11  C   UNL     1       4.146   5.345  17.481  0.00  0.00    +0.000 C 
ENDROOT
BRANCH  11  12
ATOM     12  C   UNL     1       3.260   6.409  18.163  0.00  0.00    +0.000 A 
ATOM     13  C   UNL     1       2.914   7.547  17.378  0.00  0.00    +0.000 A 
ATOM     14  C   UNL     1       2.174   8.610  17.891  0.00  0.00    +0.000 A 
ATOM     15  C   UNL     1       1.691   8.532  19.183  0.00  0.00    +0.000 A 
ATOM     16  C   UNL     1       1.988   7.420  19.972  0.00  0.00    +0.000 A 
ATOM     17  C   UNL     1       2.823   6.382  19.511  0.00  0.00    +0.000 A 
BRANCH  17  18
ATOM     18  O   UNL     1       3.246   5.368  20.357  0.00  0.00    +0.000 OA
BRANCH  18  19
ATOM     19  C   UNL     1       2.210   4.882  21.237  0.00  0.00    +0.000 C 
ATOM     20  C   UNL     1       0.928   4.479  20.532  0.00  0.00    +0.000 C 
ENDBRANCH  18  19
ENDBRANCH  17  18
ENDBRANCH  11  12
BRANCH   2  21
ATOM     21  N   UNL     1       7.664   4.827  18.959  0.00  0.00    +0.000 N 
ATOM     22  H   UNL     1       8.265   5.245  18.251  0.00  0.00    +0.000 HD
ATOM     23  H   UNL     1       7.794   5.200  19.892  0.00  0.00    +0.000 HD
ENDBRANCH   2  21
BRANCH   1  24
ATOM     24  C   UNL     1       6.266   6.717  17.082  0.00  0.00    +0.000 C 
ATOM     25  O   UNL     1       6.037   7.012  15.921  0.00  0.00    +0.000 OA
BRANCH  24  26
ATOM     26  O   UNL     1       7.197   7.331  17.862  0.00  0.00    +0.000 OA
BRANCH  26  28
ATOM     27  C   UNL     1       8.605   9.179  18.445  0.00  0.00    +0.000 C 
ATOM     28  C   UNL     1       7.515   8.684  17.511  0.00  0.00    +0.000 C 
ENDBRANCH  26  28
ENDBRANCH  24  26
ENDBRANCH   1  24
TORSDOF 7
ENDMDL
MODEL 3
REMARK VINA RESULT:      -7.4      2.043      4.845
REMARK  Name = 
REMARK  9 active torsions:
REMARK  status: ('A' for Active; 'I' for Inactive)
REMARK    1  A    between atoms: C_1  and  C_2
REMARK    2  A    between atoms: C_2  and  O_3
REMARK    3  A    between atoms: O_3  and  C_4
REMARK    4  A    between atoms: C_4  and  C_6
REMARK    5  A    between atoms: C_7  and  N_8
REMARK    6  A    between atoms: C_17  and  C_18
REMARK    7  A    between atoms: C_23  and  O_24
REMARK    8  A    between atoms: O_24  and  C_25
REMARK    9  A    between atoms: C_25  and  C_26
REMARK                            x       y       z     vdW  Elec       q    Type
REMARK                         _______ _______ _______ _____ _____    ______ ____
ROOT
ATOM      1  C   UNL     1       4.530   5.779  18.707  0.00  0.00    +0.000 C 
ATOM      2  C   UNL     1       4.546   6.363  17.485  0.00  0.00    +0.000 C 
ATOM      3  O   UNL     1       3.576   7.283  17.117  0.00  0.00    +0.000 OA
ATOM      4  C   UNL     1       2.737   7.828  18.066  0.00  0.00    +0.000 C 
ATOM      5  C   UNL     1       2.668   7.345  19.321  0.00  0.00    +0.000 C 
ATOM      6  C   UNL     1       1.764   8.020  20.291  0.00  0.00    +0.000 C 
ATOM      7  O   UNL     1       1.792   7.726  21.483  0.00  0.00    +0.000 OA
ATOM      8  C   UNL     1       0.876   9.144  19.794  0.00  0.00    +0.000 C 
ATOM      9  C   UNL     1       0.561   9.004  18.314  0.00  0.00    +0.000 C 
ATOM     10  C   UNL     1       1.850   8.906  17.512  0.00  0.00    +0.000 C 
ATOM     11  C   UNL     1       3.450   6.108  19.759  0.00  0.00    +0.000 C 
ENDROOT
BRANCH  11  12
ATOM     12  C   UNL     1       2.469   4.933  19.959  0.00  0.00    +0.000 A 
ATOM     13  C   UNL     1       2.355   4.418  21.283  0.00  0.00    +0.000 A 
ATOM     14  C   UNL     1       1.556   3.319  21.589  0.00  0.00    +0.000 A 
ATOM     15  C   UNL     1       0.785   2.749  20.595  0.00  0.00    +0.000 A 
ATOM     16  C   UNL     1       0.851   3.245  19.291  0.00  0.00    +0.000 A 
ATOM     17  C   UNL     1       1.732   4.287  18.936  0.00  0.00    +0.000 A 
BRANCH  17  18
ATOM     18  O   UNL     1       1.911   4.657  17.612  0.00  0.00    +0.000 OA
BRANCH  18  19
ATOM     19  C   UNL     1       2.557   3.645  16.812  0.00  0.00    +0.000 C 
ATOM     20  C   UNL     1       2.820   2.343  17.544  0.00  0.00    +0.000 C 
ENDBRANCH  18  19
ENDBRANCH  17  18
ENDBRANCH  11  12
BRANCH   2  21
ATOM     21  N   UNL     1       5.438   6.150  16.462  0.00  0.00    +0.000 N 
ATOM     22  H   UNL     1       6.186   6.840  16.404  0.00  0.00    +0.000 HD
ATOM     23  H   UNL     1       5.751   5.188  16.405  0.00  0.00    +0.000 HD
ENDBRANCH   2  21
BRANCH   1  24
ATOM     24  C   UNL     1       5.575   4.819  19.156  0.00  0.00    +0.000 C 
ATOM     25  O   UNL     1       5.474   3.607  19.066  0.00  0.00    +0.000 OA
BRANCH  24  26
ATOM     26  O   UNL     1       6.606   5.461  19.771  0.00  0.00    +0.000 OA
BRANCH  26  28
ATOM     27  C   UNL     1       8.073   6.953  18.605  0.00  0.00    +0.000 C 
ATOM     28  C   UNL     1       7.836   5.517  19.037  0.00  0.00    +0.000 C 
ENDBRANCH  26  28
ENDBRANCH  24  26
ENDBRANCH   1  24
TORSDOF 7
ENDMDL
MODEL 4
REMARK VINA RESULT:      -7.4      2.137      5.559
REMARK  Name = 
REMARK  9 active torsions:
REMARK  status: ('A' for Active; 'I' for Inactive)
REMARK    1  A    between atoms: C_1  and  C_2
REMARK    2  A    between atoms: C_2  and  O_3
REMARK    3  A    between atoms: O_3  and  C_4
REMARK    4  A    between atoms: C_4  and  C_6
REMARK    5  A    between atoms: C_7  and  N_8
REMARK    6  A    between atoms: C_17  and  C_18
REMARK    7  A    between atoms: C_23  and  O_24
REMARK    8  A    between atoms: O_24  and  C_25
REMARK    9  A    between atoms: C_25  and  C_26
REMARK                            x       y       z     vdW  Elec       q    Type
REMARK                         _______ _______ _______ _____ _____    ______ ____
ROOT
ATOM      1  C   UNL     1       2.209   3.827  18.756  0.00  0.00    +0.000 C 
ATOM      2  C   UNL     1       1.544   3.922  19.932  0.00  0.00    +0.000 C 
ATOM      3  O   UNL     1       1.380   5.144  20.567  0.00  0.00    +0.000 OA
ATOM      4  C   UNL     1       1.649   6.319  19.898  0.00  0.00    +0.000 C 
ATOM      5  C   UNL     1       2.276   6.335  18.706  0.00  0.00    +0.000 C 
ATOM      6  C   UNL     1       2.489   7.646  18.035  0.00  0.00    +0.000 C 
ATOM      7  O   UNL     1       2.901   7.700  16.880  0.00  0.00    +0.000 OA
ATOM      8  C   UNL     1       2.097   8.911  18.774  0.00  0.00    +0.000 C 
ATOM      9  C   UNL     1       2.146   8.723  20.282  0.00  0.00    +0.000 C 
ATOM     10  C   UNL     1       1.282   7.541  20.690  0.00  0.00    +0.000 C 
ATOM     11  C   UNL     1       2.811   5.062  18.052  0.00  0.00    +0.000 C 
ENDROOT
BRANCH  11  12
ATOM     12  C   UNL     1       4.353   5.066  18.120  0.00  0.00    +0.000 A 
ATOM     13  C   UNL     1       4.932   5.420  19.373  0.00  0.00    +0.000 A 
ATOM     14  C   UNL     1       6.310   5.525  19.553  0.00  0.00    +0.000 A 
ATOM     15  C   UNL     1       7.152   5.202  18.508  0.00  0.00    +0.000 A 
ATOM     16  C   UNL     1       6.620   4.825  17.274  0.00  0.00    +0.000 A 
ATOM     17  C   UNL     1       5.230   4.815  17.036  0.00  0.00    +0.000 A 
BRANCH  17  18
ATOM     18  O   UNL     1       4.719   4.601  15.765  0.00  0.00    +0.000 OA
BRANCH  18  19
ATOM     19  C   UNL     1       5.631   4.969  14.708  0.00  0.00    +0.000 C 
ATOM     20  C   UNL     1       5.867   3.880  13.678  0.00  0.00    +0.000 C 
ENDBRANCH  18  19
ENDBRANCH  17  18
ENDBRANCH  11  12
BRANCH   2  21
ATOM     21  N   UNL     1       0.976   2.906  20.662  0.00  0.00    +0.000 N 
ATOM     22  H   UNL     1       1.630   2.394  21.253  0.00  0.00    +0.000 HD
ATOM     23  H   UNL     1       0.121   3.185  21.128  0.00  0.00    +0.000 HD
ENDBRANCH   2  21
BRANCH   1  24
ATOM     24  C   UNL     1       2.370   2.543  18.021  0.00  0.00    +0.000 C 
ATOM     25  O   UNL     1       2.036   2.374  16.860  0.00  0.00    +0.000 OA
BRANCH  24  26
ATOM     26  O   UNL     1       2.838   1.560  18.838  0.00  0.00    +0.000 OA
BRANCH  26  28
ATOM     27  C   UNL     1       4.619   1.905  20.401  0.00  0.00    +0.000 C 
ATOM     28  C   UNL     1       4.262   1.492  18.984  0.00  0.00    +0.000 C 
ENDBRANCH  26  28
ENDBRANCH  24  26
ENDBRANCH   1  24
TORSDOF 7
ENDMDL
MODEL 5
REMARK VINA RESULT:      -7.1      2.102      4.557
REMARK  Name = 
REMARK  9 active torsions:
REMARK  status: ('A' for Active; 'I' for Inactive)
REMARK    1  A    between atoms: C_1  and  C_2
REMARK    2  A    between atoms: C_2  and  O_3
REMARK    3  A    between atoms: O_3  and  C_4
REMARK    4  A    between atoms: C_4  and  C_6
REMARK    5  A    between atoms: C_7  and  N_8
REMARK    6  A    between atoms: C_17  and  C_18
REMARK    7  A    between atoms: C_23  and  O_24
REMARK    8  A    between atoms: O_24  and  C_25
REMARK    9  A    between atoms: C_25  and  C_26
REMARK                            x       y       z     vdW  Elec       q    Type
REMARK                         _______ _______ _______ _____ _____    ______ ____
ROOT
ATOM      1  C   UNL     1       4.590   5.821  18.026  0.00  0.00    +0.000 C 
ATOM      2  C   UNL     1       4.674   6.726  17.022  0.00  0.00    +0.000 C 
ATOM      3  O   UNL     1       3.754   7.757  16.907  0.00  0.00    +0.000 OA
ATOM      4  C   UNL     1       2.900   8.049  17.950  0.00  0.00    +0.000 C 
ATOM      5  C   UNL     1       2.766   7.233  19.013  0.00  0.00    +0.000 C 
ATOM      6  C   UNL     1       1.851   7.646  20.111  0.00  0.00    +0.000 C 
ATOM      7  O   UNL     1       1.822   7.025  21.171  0.00  0.00    +0.000 OA
ATOM      8  C   UNL     1       1.025   8.905  19.933  0.00  0.00    +0.000 C 
ATOM      9  C   UNL     1       0.761   9.205  18.466  0.00  0.00    +0.000 C 
ATOM     10  C   UNL     1       2.075   9.279  17.704  0.00  0.00    +0.000 C 
ATOM     11  C   UNL     1       3.484   5.887  19.101  0.00  0.00    +0.000 C 
ENDROOT
BRANCH  11  12
ATOM     12  C   UNL     1       2.453   4.750  18.931  0.00  0.00    +0.000 A 
ATOM     13  C   UNL     1       1.675   4.770  17.737  0.00  0.00    +0.000 A 
ATOM     14  C   UNL     1       0.666   3.842  17.490  0.00  0.00    +0.000 A 
ATOM     15  C   UNL     1       0.458   2.818  18.392  0.00  0.00    +0.000 A 
ATOM     16  C   UNL     1       1.219   2.751  19.560  0.00  0.00    +0.000 A 
ATOM     17  C   UNL     1       2.172   3.739  19.884  0.00  0.00    +0.000 A 
BRANCH  17  18
ATOM     18  O   UNL     1       2.801   3.755  21.119  0.00  0.00    +0.000 OA
BRANCH  18  19
ATOM     19  C   UNL     1       3.355   2.477  21.500  0.00  0.00    +0.000 C 
ATOM     20  C   UNL     1       4.533   2.029  20.655  0.00  0.00    +0.000 C 
ENDBRANCH  18  19
ENDBRANCH  17  18
ENDBRANCH  11  12
BRANCH   2  21
ATOM     21  N   UNL     1       5.597   6.771  16.005  0.00  0.00    +0.000 N 
ATOM     22  H   UNL     1       6.564   6.841  16.316  0.00  0.00    +0.000 HD
ATOM     23  H   UNL     1       5.435   6.067  15.295  0.00  0.00    +0.000 HD
ENDBRANCH   2  21
BRANCH   1  24
ATOM     24  C   UNL     1       5.581   4.726  18.210  0.00  0.00    +0.000 C 
ATOM     25  O   UNL     1       5.550   3.667  17.605  0.00  0.00    +0.000 OA
BRANCH  24  26
ATOM     26  O   UNL     1       6.459   5.015  19.209  0.00  0.00    +0.000 OA
BRANCH  26  28
ATOM     27  C   UNL     1       8.025   6.751  18.690  0.00  0.00    +0.000 C 
ATOM     28  C   UNL     1       7.814   5.252  18.803  0.00  0.00    +0.000 C 
ENDBRANCH  26  28
ENDBRANCH  24  26
ENDBRANCH   1  24
TORSDOF 7
ENDMDL
MODEL 6
REMARK VINA RESULT:      -7.0      5.779      9.111
REMARK  Name = 
REMARK  9 active torsions:
REMARK  status: ('A' for Active; 'I' for Inactive)
REMARK    1  A    between atoms: C_1  and  C_2
REMARK    2  A    between atoms: C_2  and  O_3
REMARK    3  A    between atoms: O_3  and  C_4
REMARK    4  A    between atoms: C_4  and  C_6
REMARK    5  A    between atoms: C_7  and  N_8
REMARK    6  A    between atoms: C_17  and  C_18
REMARK    7  A    between atoms: C_23  and  O_24
REMARK    8  A    between atoms: O_24  and  C_25
REMARK    9  A    between atoms: C_25  and  C_26
REMARK                            x       y       z     vdW  Elec       q    Type
REMARK                         _______ _______ _______ _____ _____    ______ ____
ROOT
ATOM      1  C   UNL     1      -1.621  11.245  18.470  0.00  0.00    +0.000 C 
ATOM      2  C   UNL     1      -2.281  12.182  19.190  0.00  0.00    +0.000 C 
ATOM      3  O   UNL     1      -1.595  13.161  19.895  0.00  0.00    +0.000 OA
ATOM      4  C   UNL     1      -0.252  13.372  19.666  0.00  0.00    +0.000 C 
ATOM      5  C   UNL     1       0.491  12.519  18.934  0.00  0.00    +0.000 C 
ATOM      6  C   UNL     1       1.924  12.846  18.704  0.00  0.00    +0.000 C 
ATOM      7  O   UNL     1       2.597  12.193  17.910  0.00  0.00    +0.000 OA
ATOM      8  C   UNL     1       2.512  14.059  19.398  0.00  0.00    +0.000 C 
ATOM      9  C   UNL     1       1.775  14.385  20.687  0.00  0.00    +0.000 C 
ATOM     10  C   UNL     1       0.290  14.558  20.410  0.00  0.00    +0.000 C 
ATOM     11  C   UNL     1      -0.080  11.215  18.377  0.00  0.00    +0.000 C 
ENDROOT
BRANCH  11  12
ATOM     12  C   UNL     1       0.517  10.026  19.159  0.00  0.00    +0.000 A 
ATOM     13  C   UNL     1       1.450   9.208  18.457  0.00  0.00    +0.000 A 
ATOM     14  C   UNL     1       2.014   8.067  19.023  0.00  0.00    +0.000 A 
ATOM     15  C   UNL     1       1.722   7.752  20.336  0.00  0.00    +0.000 A 
ATOM     16  C   UNL     1       0.833   8.546  21.062  0.00  0.00    +0.000 A 
ATOM     17  C   UNL     1       0.168   9.643  20.478  0.00  0.00    +0.000 A 
BRANCH  17  18
ATOM     18  O   UNL     1      -0.834  10.321  21.155  0.00  0.00    +0.000 OA
BRANCH  18  19
ATOM     19  C   UNL     1      -0.457  10.726  22.488  0.00  0.00    +0.000 C 
ATOM     20  C   UNL     1      -1.276  11.874  23.048  0.00  0.00    +0.000 C 
ENDBRANCH  18  19
ENDBRANCH  17  18
ENDBRANCH  11  12
BRANCH   2  21
ATOM     21  N   UNL     1      -3.638  12.311  19.362  0.00  0.00    +0.000 N 
ATOM     22  H   UNL     1      -3.915  12.698  20.263  0.00  0.00    +0.000 HD
ATOM     23  H   UNL     1      -4.097  12.735  18.565  0.00  0.00    +0.000 HD
ENDBRANCH   2  21
BRANCH   1  24
ATOM     24  C   UNL     1      -2.319  10.205  17.666  0.00  0.00    +0.000 C 
ATOM     25  O   UNL     1      -3.039   9.344  18.142  0.00  0.00    +0.000 OA
BRANCH  24  26
ATOM     26  O   UNL     1      -1.970  10.277  16.352  0.00  0.00    +0.000 OA
BRANCH  26  28
ATOM     27  C   UNL     1      -3.255  10.026  14.347  0.00  0.00    +0.000 C 
ATOM     28  C   UNL     1      -2.897  10.955  15.494  0.00  0.00    +0.000 C 
ENDBRANCH  26  28
ENDBRANCH  24  26
ENDBRANCH   1  24
TORSDOF 7
ENDMDL
MODEL 7
REMARK VINA RESULT:      -7.0      1.859      4.324
REMARK  Name = 
REMARK  9 active torsions:
REMARK  status: ('A' for Active; 'I' for Inactive)
REMARK    1  A    between atoms: C_1  and  C_2
REMARK    2  A    between atoms: C_2  and  O_3
REMARK    3  A    between atoms: O_3  and  C_4
REMARK    4  A    between atoms: C_4  and  C_6
REMARK    5  A    between atoms: C_7  and  N_8
REMARK    6  A    between atoms: C_17  and  C_18
REMARK    7  A    between atoms: C_23  and  O_24
REMARK    8  A    between atoms: O_24  and  C_25
REMARK    9  A    between atoms: C_25  and  C_26
REMARK                            x       y       z     vdW  Elec       q    Type
REMARK                         _______ _______ _______ _____ _____    ______ ____
ROOT
ATOM      1  C   UNL     1       4.547   5.934  17.966  0.00  0.00    +0.000 C 
ATOM      2  C   UNL     1       4.591   6.877  16.994  0.00  0.00    +0.000 C 
ATOM      3  O   UNL     1       3.652   7.896  16.941  0.00  0.00    +0.000 OA
ATOM      4  C   UNL     1       2.821   8.135  18.015  0.00  0.00    +0.000 C 
ATOM      5  C   UNL     1       2.727   7.278  19.050  0.00  0.00    +0.000 C 
ATOM      6  C   UNL     1       1.834   7.635  20.185  0.00  0.00    +0.000 C 
ATOM      7  O   UNL     1       1.842   6.975  21.221  0.00  0.00    +0.000 OA
ATOM      8  C   UNL     1       0.984   8.886  20.075  0.00  0.00    +0.000 C 
ATOM      9  C   UNL     1       0.678   9.235  18.627  0.00  0.00    +0.000 C 
ATOM     10  C   UNL     1       1.971   9.360  17.836  0.00  0.00    +0.000 C 
ATOM     11  C   UNL     1       3.468   5.942  19.069  0.00  0.00    +0.000 C 
ENDROOT
BRANCH  11  12
ATOM     12  C   UNL     1       2.451   4.795  18.883  0.00  0.00    +0.000 A 
ATOM     13  C   UNL     1       1.667   4.827  17.693  0.00  0.00    +0.000 A 
ATOM     14  C   UNL     1       0.670   3.891  17.433  0.00  0.00    +0.000 A 
ATOM     15  C   UNL     1       0.478   2.847  18.317  0.00  0.00    +0.000 A 
ATOM     16  C   UNL     1       1.246   2.770  19.480  0.00  0.00    +0.000 A 
ATOM     17  C   UNL     1       2.187   3.764  19.818  0.00  0.00    +0.000 A 
BRANCH  17  18
ATOM     18  O   UNL     1       2.822   3.765  21.051  0.00  0.00    +0.000 OA
BRANCH  18  19
ATOM     19  C   UNL     1       3.457   2.509  21.373  0.00  0.00    +0.000 C 
ATOM     20  C   UNL     1       4.522   2.074  20.384  0.00  0.00    +0.000 C 
ENDBRANCH  18  19
ENDBRANCH  17  18
ENDBRANCH  11  12
BRANCH   2  21
ATOM     21  N   UNL     1       5.486   6.975  15.956  0.00  0.00    +0.000 N 
ATOM     22  H   UNL     1       6.221   6.269  15.965  0.00  0.00    +0.000 HD
ATOM     23  H   UNL     1       5.036   7.100  15.058  0.00  0.00    +0.000 HD
ENDBRANCH   2  21
BRANCH   1  24
ATOM     24  C   UNL     1       5.559   4.850  18.084  0.00  0.00    +0.000 C 
ATOM     25  O   UNL     1       6.391   4.786  18.973  0.00  0.00    +0.000 OA
BRANCH  24  26
ATOM     26  O   UNL     1       5.504   4.001  17.021  0.00  0.00    +0.000 OA
BRANCH  26  28
ATOM     27  C   UNL     1       6.190   3.867  14.730  0.00  0.00    +0.000 C 
ATOM     28  C   UNL     1       6.657   3.987  16.169  0.00  0.00    +0.000 C 
ENDBRANCH  26  28
ENDBRANCH  24  26
ENDBRANCH   1  24
TORSDOF 7
ENDMDL
MODEL 8
REMARK VINA RESULT:      -7.0      1.491      2.755
REMARK  Name = 
REMARK  9 active torsions:
REMARK  status: ('A' for Active; 'I' for Inactive)
REMARK    1  A    between atoms: C_1  and  C_2
REMARK    2  A    between atoms: C_2  and  O_3
REMARK    3  A    between atoms: O_3  and  C_4
REMARK    4  A    between atoms: C_4  and  C_6
REMARK    5  A    between atoms: C_7  and  N_8
REMARK    6  A    between atoms: C_17  and  C_18
REMARK    7  A    between atoms: C_23  and  O_24
REMARK    8  A    between atoms: O_24  and  C_25
REMARK    9  A    between atoms: C_25  and  C_26
REMARK                            x       y       z     vdW  Elec       q    Type
REMARK                         _______ _______ _______ _____ _____    ______ ____
ROOT
ATOM      1  C   UNL     1       4.982   5.482  17.770  0.00  0.00    +0.000 C 
ATOM      2  C   UNL     1       5.788   4.472  18.177  0.00  0.00    +0.000 C 
ATOM      3  O   UNL     1       5.261   3.280  18.650  0.00  0.00    +0.000 OA
ATOM      4  C   UNL     1       3.926   2.987  18.469  0.00  0.00    +0.000 C 
ATOM      5  C   UNL     1       3.045   3.909  18.036  0.00  0.00    +0.000 C 
ATOM      6  C   UNL     1       1.630   3.495  17.830  0.00  0.00    +0.000 C 
ATOM      7  O   UNL     1       0.831   4.248  17.280  0.00  0.00    +0.000 OA
ATOM      8  C   UNL     1       1.220   2.091  18.227  0.00  0.00    +0.000 C 
ATOM      9  C   UNL     1       2.103   1.535  19.333  0.00  0.00    +0.000 C 
ATOM     10  C   UNL     1       3.564   1.600  18.917  0.00  0.00    +0.000 C 
ATOM     11  C   UNL     1       3.443   5.365  17.797  0.00  0.00    +0.000 C 
ENDROOT
BRANCH  11  12
ATOM     12  C   UNL     1       2.821   6.249  18.899  0.00  0.00    +0.000 A 
ATOM     13  C   UNL     1       2.551   5.614  20.146  0.00  0.00    +0.000 A 
ATOM     14  C   UNL     1       1.933   6.278  21.202  0.00  0.00    +0.000 A 
ATOM     15  C   UNL     1       1.636   7.621  21.072  0.00  0.00    +0.000 A 
ATOM     16  C   UNL     1       1.911   8.282  19.873  0.00  0.00    +0.000 A 
ATOM     17  C   UNL     1       2.438   7.605  18.754  0.00  0.00    +0.000 A 
BRANCH  17  18
ATOM     18  O   UNL     1       2.550   8.231  17.522  0.00  0.00    +0.000 OA
BRANCH  18  19
ATOM     19  C   UNL     1       2.047   9.584  17.514  0.00  0.00    +0.000 C 
ATOM     20  C   UNL     1       0.554   9.697  17.755  0.00  0.00    +0.000 C 
ENDBRANCH  18  19
ENDBRANCH  17  18
ENDBRANCH  11  12
BRANCH   2  21
ATOM     21  N   UNL     1       7.162   4.454  18.214  0.00  0.00    +0.000 N 
ATOM     22  H   UNL     1       7.556   4.305  19.141  0.00  0.00    +0.000 HD
ATOM     23  H   UNL     1       7.568   3.876  17.488  0.00  0.00    +0.000 HD
ENDBRANCH   2  21
BRANCH   1  24
ATOM     24  C   UNL     1       5.507   6.759  17.216  0.00  0.00    +0.000 C 
ATOM     25  O   UNL     1       5.214   7.198  16.117  0.00  0.00    +0.000 OA
BRANCH  24  26
ATOM     26  O   UNL     1       6.430   7.318  18.046  0.00  0.00    +0.000 OA
BRANCH  26  28
ATOM     27  C   UNL     1       8.089   9.043  17.968  0.00  0.00    +0.000 C 
ATOM     28  C   UNL     1       7.679   7.679  17.442  0.00  0.00    +0.000 C 
ENDBRANCH  26  28
ENDBRANCH  24  26
ENDBRANCH   1  24
TORSDOF 7
ENDMDL
MODEL 9
REMARK VINA RESULT:      -6.9      9.438     12.178
REMARK  Name = 
REMARK  9 active torsions:
REMARK  status: ('A' for Active; 'I' for Inactive)
REMARK    1  A    between atoms: C_1  and  C_2
REMARK    2  A    between atoms: C_2  and  O_3
REMARK    3  A    between atoms: O_3  and  C_4
REMARK    4  A    between atoms: C_4  and  C_6
REMARK    5  A    between atoms: C_7  and  N_8
REMARK    6  A    between atoms: C_17  and  C_18
REMARK    7  A    between atoms: C_23  and  O_24
REMARK    8  A    between atoms: O_24  and  C_25
REMARK    9  A    between atoms: C_25  and  C_26
REMARK                            x       y       z     vdW  Elec       q    Type
REMARK                         _______ _______ _______ _____ _____    ______ ____
ROOT
ATOM      1  C   UNL     1      11.284  13.505  18.389  0.00  0.00    +0.000 C 
ATOM      2  C   UNL     1      11.294  13.998  17.128  0.00  0.00    +0.000 C 
ATOM      3  O   UNL     1      11.244  15.364  16.891  0.00  0.00    +0.000 OA
ATOM      4  C   UNL     1      11.454  16.258  17.920  0.00  0.00    +0.000 C 
ATOM      5  C   UNL     1      11.497  15.867  19.208  0.00  0.00    +0.000 C 
ATOM      6  C   UNL     1      11.770  16.893  20.250  0.00  0.00    +0.000 C 
ATOM      7  O   UNL     1      11.984  16.563  21.414  0.00  0.00    +0.000 OA
ATOM      8  C   UNL     1      11.871  18.346  19.829  0.00  0.00    +0.000 C 
ATOM      9  C   UNL     1      11.071  18.626  18.567  0.00  0.00    +0.000 C 
ATOM     10  C   UNL     1      11.504  17.684  17.455  0.00  0.00    +0.000 C 
ATOM     11  C   UNL     1      11.230  14.422  19.629  0.00  0.00    +0.000 C 
ENDROOT
BRANCH  11  12
ATOM     12  C   UNL     1       9.861  14.346  20.338  0.00  0.00    +0.000 A 
ATOM     13  C   UNL     1       9.858  13.810  21.659  0.00  0.00    +0.000 A 
ATOM     14  C   UNL     1       8.685  13.625  22.386  0.00  0.00    +0.000 A 
ATOM     15  C   UNL     1       7.485  14.044  21.845  0.00  0.00    +0.000 A 
ATOM     16  C   UNL     1       7.453  14.598  20.564  0.00  0.00    +0.000 A 
ATOM     17  C   UNL     1       8.612  14.696  19.768  0.00  0.00    +0.000 A 
BRANCH  17  18
ATOM     18  O   UNL     1       8.542  15.092  18.441  0.00  0.00    +0.000 OA
BRANCH  18  19
ATOM     19  C   UNL     1       7.397  14.560  17.740  0.00  0.00    +0.000 C 
ATOM     20  C   UNL     1       7.583  13.148  17.219  0.00  0.00    +0.000 C 
ENDBRANCH  18  19
ENDBRANCH  17  18
ENDBRANCH  11  12
BRANCH   2  21
ATOM     21  N   UNL     1      11.328  13.293  15.948  0.00  0.00    +0.000 N 
ATOM     22  H   UNL     1      11.432  13.871  15.115  0.00  0.00    +0.000 HD
ATOM     23  H   UNL     1      11.950  12.495  15.985  0.00  0.00    +0.000 HD
ENDBRANCH   2  21
BRANCH   1  24
ATOM     24  C   UNL     1      11.380  12.050  18.687  0.00  0.00    +0.000 C 
ATOM     25  O   UNL     1      12.333  11.527  19.239  0.00  0.00    +0.000 OA
BRANCH  24  26
ATOM     26  O   UNL     1      10.319  11.368  18.174  0.00  0.00    +0.000 OA
BRANCH  26  28
ATOM     27  C   UNL     1       8.641   9.668  18.347  0.00  0.00    +0.000 C 
ATOM     28  C   UNL     1       9.540  10.619  19.116  0.00  0.00    +0.000 C 
ENDBRANCH  26  28
ENDBRANCH  24  26
ENDBRANCH   1  24
TORSDOF 7
ENDMDL
