MODEL 1
REMARK VINA RESULT:      -7.7      0.000      0.000
REMARK  Name = 
REMARK  8 active torsions:
REMARK  status: ('A' for Active; 'I' for Inactive)
REMARK    1  A    between atoms: C_1  and  C_2
REMARK    2  A    between atoms: C_2  and  C_3
REMARK    3  A    between atoms: C_7  and  C_8
REMARK    4  A    between atoms: C_9  and  C_10
REMARK    5  A    between atoms: C_10  and  O_12
REMARK    6  A    between atoms: C_14  and  O_15
REMARK    7  A    between atoms: O_15  and  C_16
REMARK    8  A    between atoms: C_17  and  O_18
REMARK                            x       y       z     vdW  Elec       q    Type
REMARK                         _______ _______ _______ _____ _____    ______ ____
ROOT
ATOM      1  C   UNL     1       5.829   4.899  15.541  0.00  0.00    +0.000 A 
ATOM      2  C   UNL     1       5.515   6.249  15.674  0.00  0.00    +0.000 A 
ATOM      3  C   UNL     1       4.575   6.659  16.623  0.00  0.00    +0.000 A 
ATOM      4  C   UNL     1       3.909   5.735  17.463  0.00  0.00    +0.000 A 
ATOM      5  C   UNL     1       2.946   6.119  18.427  0.00  0.00    +0.000 A 
ATOM      6  C   UNL     1       2.337   5.151  19.238  0.00  0.00    +0.000 A 
ATOM      7  C   UNL     1       2.648   3.790  19.133  0.00  0.00    +0.000 A 
ATOM      8  C   UNL     1       3.588   3.403  18.171  0.00  0.00    +0.000 A 
ATOM      9  C   UNL     1       4.227   4.360  17.337  0.00  0.00    +0.000 A 
ATOM     10  C   UNL     1       5.191   3.975  16.378  0.00  0.00    +0.000 A 
ENDROOT
BRANCH   1  12
ATOM     11  C   UNL     1       6.025   3.758  13.336  0.00  0.00    +0.000 C 
ATOM     12  C   UNL     1       6.782   4.420  14.479  0.00  0.00    +0.000 C 
ENDBRANCH   1  12
BRANCH   5  13
ATOM     13  C   UNL     1       2.572   7.527  18.658  0.00  0.00    +0.000 C 
ATOM     14  C   UNL     1       1.708   8.204  17.893  0.00  0.00    +0.000 C 
BRANCH  14  15
ATOM     15  C   UNL     1       1.426   9.613  18.233  0.00  0.00    +0.000 C 
ATOM     16  O   UNL     1       0.697   9.978  19.142  0.00  0.00    +0.000 OA
BRANCH  15  17
ATOM     17  O   UNL     1       2.079  10.475  17.422  0.00  0.00    +0.000 OA
ATOM     18  H   UNL     1       2.643  10.074  16.741  0.00  0.00    +0.000 HD
ENDBRANCH  15  17
ENDBRANCH  14  15
ENDBRANCH   5  13
BRANCH   7  19
ATOM     19  O   UNL     1       1.936   3.037  20.021  0.00  0.00    +0.000 OA
ATOM     20  C   UNL     1       2.032   3.252  21.417  0.00  0.00    +0.000 C 
ENDBRANCH   7  19
BRANCH   8  21
ATOM     21  O   UNL     1       3.932   2.090  17.961  0.00  0.00    +0.000 OA
ATOM     22  H   UNL     1       3.458   1.551  18.609  0.00  0.00    +0.000 HD
ENDBRANCH   8  21
TORSDOF 6
ENDMDL
MODEL 2
REMARK VINA RESULT:      -7.6      1.342      1.630
REMARK  Name = 
REMARK  8 active torsions:
REMARK  status: ('A' for Active; 'I' for Inactive)
REMARK    1  A    between atoms: C_1  and  C_2
REMARK    2  A    between atoms: C_2  and  C_3
REMARK    3  A    between atoms: C_7  and  C_8
REMARK    4  A    between atoms: C_9  and  C_10
REMARK    5  A    between atoms: C_10  and  O_12
REMARK    6  A    between atoms: C_14  and  O_15
REMARK    7  A    between atoms: O_15  and  C_16
REMARK    8  A    between atoms: C_17  and  O_18
REMARK                            x       y       z     vdW  Elec       q    Type
REMARK                         _______ _______ _______ _____ _____    ______ ____
ROOT
ATOM      1  C   UNL     1       5.504   5.211  15.834  0.00  0.00    +0.000 A 
ATOM      2  C   UNL     1       5.131   6.490  16.238  0.00  0.00    +0.000 A 
ATOM      3  C   UNL     1       4.242   6.656  17.303  0.00  0.00    +0.000 A 
ATOM      4  C   UNL     1       3.688   5.552  17.994  0.00  0.00    +0.000 A 
ATOM      5  C   UNL     1       2.779   5.688  19.070  0.00  0.00    +0.000 A 
ATOM      6  C   UNL     1       2.281   4.550  19.720  0.00  0.00    +0.000 A 
ATOM      7  C   UNL     1       2.654   3.254  19.341  0.00  0.00    +0.000 A 
ATOM      8  C   UNL     1       3.541   3.113  18.267  0.00  0.00    +0.000 A 
ATOM      9  C   UNL     1       4.066   4.246  17.591  0.00  0.00    +0.000 A 
ATOM     10  C   UNL     1       4.976   4.109  16.518  0.00  0.00    +0.000 A 
ENDROOT
BRANCH   1  12
ATOM     11  C   UNL     1       5.901   3.838  13.793  0.00  0.00    +0.000 C 
ATOM     12  C   UNL     1       6.400   4.998  14.643  0.00  0.00    +0.000 C 
ENDBRANCH   1  12
BRANCH   5  13
ATOM     13  C   UNL     1       2.350   7.002  19.585  0.00  0.00    +0.000 C 
ATOM     14  C   UNL     1       1.606   7.165  20.685  0.00  0.00    +0.000 C 
BRANCH  14  15
ATOM     15  C   UNL     1       1.240   8.537  21.087  0.00  0.00    +0.000 C 
ATOM     16  O   UNL     1       0.500   9.275  20.454  0.00  0.00    +0.000 OA
BRANCH  15  17
ATOM     17  O   UNL     1       1.814   8.898  22.257  0.00  0.00    +0.000 OA
ATOM     18  H   UNL     1       1.573   9.775  22.596  0.00  0.00    +0.000 HD
ENDBRANCH  15  17
ENDBRANCH  14  15
ENDBRANCH   5  13
BRANCH   7  19
ATOM     19  O   UNL     1       2.048   2.306  20.113  0.00  0.00    +0.000 OA
ATOM     20  C   UNL     1       1.602   2.596  21.426  0.00  0.00    +0.000 C 
ENDBRANCH   7  19
BRANCH   8  21
ATOM     21  O   UNL     1       3.936   1.886  17.792  0.00  0.00    +0.000 OA
ATOM     22  H   UNL     1       3.321   1.222  18.135  0.00  0.00    +0.000 HD
ENDBRANCH   8  21
TORSDOF 6
ENDMDL
MODEL 3
REMARK VINA RESULT:      -7.2      1.429      1.740
REMARK  Name = 
REMARK  8 active torsions:
REMARK  status: ('A' for Active; 'I' for Inactive)
REMARK    1  A    between atoms: C_1  and  C_2
REMARK    2  A    between atoms: C_2  and  C_3
REMARK    3  A    between atoms: C_7  and  C_8
REMARK    4  A    between atoms: C_9  and  C_10
REMARK    5  A    between atoms: C_10  and  O_12
REMARK    6  A    between atoms: C_14  and  O_15
REMARK    7  A    between atoms: O_15  and  C_16
REMARK    8  A    between atoms: C_17  and  O_18
REMARK                            x       y       z     vdW  Elec       q    Type
REMARK                         _______ _______ _______ _____ _____    ______ ____
ROOT
ATOM      1  C   UNL     1       4.995   5.010  16.011  0.00  0.00    +0.000 A 
ATOM      2  C   UNL     1       4.824   6.333  16.409  0.00  0.00    +0.000 A 
ATOM      3  C   UNL     1       3.988   6.636  17.487  0.00  0.00    +0.000 A 
ATOM      4  C   UNL     1       3.286   5.632  18.195  0.00  0.00    +0.000 A 
ATOM      5  C   UNL     1       2.425   5.910  19.283  0.00  0.00    +0.000 A 
ATOM      6  C   UNL     1       1.774   4.863  19.951  0.00  0.00    +0.000 A 
ATOM      7  C   UNL     1       1.943   3.524  19.577  0.00  0.00    +0.000 A 
ATOM      8  C   UNL     1       2.781   3.245  18.492  0.00  0.00    +0.000 A 
ATOM      9  C   UNL     1       3.458   4.283  17.798  0.00  0.00    +0.000 A 
ATOM     10  C   UNL     1       4.320   4.004  16.713  0.00  0.00    +0.000 A 
ENDROOT
BRANCH   1  12
ATOM     11  C   UNL     1       7.301   4.951  15.070  0.00  0.00    +0.000 C 
ATOM     12  C   UNL     1       5.830   4.658  14.809  0.00  0.00    +0.000 C 
ENDBRANCH   1  12
BRANCH   5  13
ATOM     13  C   UNL     1       2.206   7.276  19.794  0.00  0.00    +0.000 C 
ATOM     14  C   UNL     1       1.457   7.561  20.865  0.00  0.00    +0.000 C 
BRANCH  14  15
ATOM     15  C   UNL     1       1.314   8.975  21.265  0.00  0.00    +0.000 C 
ATOM     16  O   UNL     1       1.509   9.402  22.393  0.00  0.00    +0.000 OA
BRANCH  15  17
ATOM     17  O   UNL     1       0.948   9.765  20.232  0.00  0.00    +0.000 OA
ATOM     18  H   UNL     1       1.593  10.440  19.964  0.00  0.00    +0.000 HD
ENDBRANCH  15  17
ENDBRANCH  14  15
ENDBRANCH   5  13
BRANCH   7  19
ATOM     19  O   UNL     1       1.214   2.682  20.367  0.00  0.00    +0.000 OA
ATOM     20  C   UNL     1       1.510   2.517  21.742  0.00  0.00    +0.000 C 
ENDBRANCH   7  19
BRANCH   8  21
ATOM     21  O   UNL     1       2.980   1.970  18.022  0.00  0.00    +0.000 OA
ATOM     22  H   UNL     1       2.294   1.784  17.365  0.00  0.00    +0.000 HD
ENDBRANCH   8  21
TORSDOF 6
ENDMDL
MODEL 4
REMARK VINA RESULT:      -7.1      3.453      6.542
REMARK  Name = 
REMARK  8 active torsions:
REMARK  status: ('A' for Active; 'I' for Inactive)
REMARK    1  A    between atoms: C_1  and  C_2
REMARK    2  A    between atoms: C_2  and  C_3
REMARK    3  A    between atoms: C_7  and  C_8
REMARK    4  A    between atoms: C_9  and  C_10
REMARK    5  A    between atoms: C_10  and  O_12
REMARK    6  A    between atoms: C_14  and  O_15
REMARK    7  A    between atoms: O_15  and  C_16
REMARK    8  A    between atoms: C_17  and  O_18
REMARK                            x       y       z     vdW  Elec       q    Type
REMARK                         _______ _______ _______ _____ _____    ______ ____
ROOT
ATOM      1  C   UNL     1       2.606   3.095  19.110  0.00  0.00    +0.000 A 
ATOM      2  C   UNL     1       2.366   2.618  17.824  0.00  0.00    +0.000 A 
ATOM      3  C   UNL     1       3.234   2.952  16.781  0.00  0.00    +0.000 A 
ATOM      4  C   UNL     1       4.364   3.781  16.984  0.00  0.00    +0.000 A 
ATOM      5  C   UNL     1       5.255   4.143  15.946  0.00  0.00    +0.000 A 
ATOM      6  C   UNL     1       6.365   4.955  16.223  0.00  0.00    +0.000 A 
ATOM      7  C   UNL     1       6.634   5.433  17.511  0.00  0.00    +0.000 A 
ATOM      8  C   UNL     1       5.748   5.090  18.538  0.00  0.00    +0.000 A 
ATOM      9  C   UNL     1       4.617   4.266  18.292  0.00  0.00    +0.000 A 
ATOM     10  C   UNL     1       3.729   3.902  19.330  0.00  0.00    +0.000 A 
ENDROOT
BRANCH   1  12
ATOM     11  C   UNL     1       2.221   3.298  21.563  0.00  0.00    +0.000 C 
ATOM     12  C   UNL     1       1.649   2.814  20.238  0.00  0.00    +0.000 C 
ENDBRANCH   1  12
BRANCH   5  13
ATOM     13  C   UNL     1       5.097   3.663  14.561  0.00  0.00    +0.000 C 
ATOM     14  C   UNL     1       6.043   3.773  13.622  0.00  0.00    +0.000 C 
BRANCH  14  15
ATOM     15  C   UNL     1       5.753   3.256  12.270  0.00  0.00    +0.000 C 
ATOM     16  O   UNL     1       4.750   3.519  11.624  0.00  0.00    +0.000 OA
BRANCH  15  17
ATOM     17  O   UNL     1       6.736   2.452  11.807  0.00  0.00    +0.000 OA
ATOM     18  H   UNL     1       7.614   2.859  11.724  0.00  0.00    +0.000 HD
ENDBRANCH  15  17
ENDBRANCH  14  15
ENDBRANCH   5  13
BRANCH   7  19
ATOM     19  O   UNL     1       7.763   6.199  17.541  0.00  0.00    +0.000 OA
ATOM     20  C   UNL     1       7.699   7.605  17.699  0.00  0.00    +0.000 C 
ENDBRANCH   7  19
BRANCH   8  21
ATOM     21  O   UNL     1       5.900   5.541  19.826  0.00  0.00    +0.000 OA
ATOM     22  H   UNL     1       5.770   4.789  20.422  0.00  0.00    +0.000 HD
ENDBRANCH   8  21
TORSDOF 6
ENDMDL
MODEL 5
REMARK VINA RESULT:      -7.1      1.049      1.078
REMARK  Name = 
REMARK  8 active torsions:
REMARK  status: ('A' for Active; 'I' for Inactive)
REMARK    1  A    between atoms: C_1  and  C_2
REMARK    2  A    between atoms: C_2  and  C_3
REMARK    3  A    between atoms: C_7  and  C_8
REMARK    4  A    between atoms: C_9  and  C_10
REMARK    5  A    between atoms: C_10  and  O_12
REMARK    6  A    between atoms: C_14  and  O_15
REMARK    7  A    between atoms: O_15  and  C_16
REMARK    8  A    between atoms: C_17  and  O_18
REMARK                            x       y       z     vdW  Elec       q    Type
REMARK                         _______ _______ _______ _____ _____    ______ ____
ROOT
ATOM      1  C   UNL     1       5.869   5.071  16.209  0.00  0.00    +0.000 A 
ATOM      2  C   UNL     1       5.325   6.316  15.905  0.00  0.00    +0.000 A 
ATOM      3  C   UNL     1       4.323   6.857  16.713  0.00  0.00    +0.000 A 
ATOM      4  C   UNL     1       3.822   6.171  17.845  0.00  0.00    +0.000 A 
ATOM      5  C   UNL     1       2.801   6.690  18.677  0.00  0.00    +0.000 A 
ATOM      6  C   UNL     1       2.364   5.962  19.793  0.00  0.00    +0.000 A 
ATOM      7  C   UNL     1       2.908   4.716  20.127  0.00  0.00    +0.000 A 
ATOM      8  C   UNL     1       3.907   4.191  19.300  0.00  0.00    +0.000 A 
ATOM      9  C   UNL     1       4.374   4.905  18.164  0.00  0.00    +0.000 A 
ATOM     10  C   UNL     1       5.396   4.387  17.336  0.00  0.00    +0.000 A 
ENDROOT
BRANCH   1  12
ATOM     11  C   UNL     1       6.266   3.975  14.007  0.00  0.00    +0.000 C 
ATOM     12  C   UNL     1       6.897   4.428  15.317  0.00  0.00    +0.000 C 
ENDBRANCH   1  12
BRANCH   5  13
ATOM     13  C   UNL     1       2.187   8.011  18.449  0.00  0.00    +0.000 C 
ATOM     14  C   UNL     1       1.598   8.735  19.408  0.00  0.00    +0.000 C 
BRANCH  14  15
ATOM     15  C   UNL     1       1.016  10.042  19.042  0.00  0.00    +0.000 C 
ATOM     16  O   UNL     1       0.583  10.859  19.840  0.00  0.00    +0.000 OA
BRANCH  15  17
ATOM     17  O   UNL     1       1.021  10.249  17.707  0.00  0.00    +0.000 OA
ATOM     18  H   UNL     1       1.743  10.799  17.364  0.00  0.00    +0.000 HD
ENDBRANCH  15  17
ENDBRANCH  14  15
ENDBRANCH   5  13
BRANCH   7  19
ATOM     19  O   UNL     1       2.331   4.197  21.250  0.00  0.00    +0.000 OA
ATOM     20  C   UNL     1       1.380   3.150  21.177  0.00  0.00    +0.000 C 
ENDBRANCH   7  19
BRANCH   8  21
ATOM     21  O   UNL     1       4.474   2.960  19.517  0.00  0.00    +0.000 OA
ATOM     22  H   UNL     1       5.063   2.768  18.774  0.00  0.00    +0.000 HD
ENDBRANCH   8  21
TORSDOF 6
ENDMDL
MODEL 6
REMARK VINA RESULT:      -7.1      2.351      5.603
REMARK  Name = 
REMARK  8 active torsions:
REMARK  status: ('A' for Active; 'I' for Inactive)
REMARK    1  A    between atoms: C_1  and  C_2
REMARK    2  A    between atoms: C_2  and  C_3
REMARK    3  A    between atoms: C_7  and  C_8
REMARK    4  A    between atoms: C_9  and  C_10
REMARK    5  A    between atoms: C_10  and  O_12
REMARK    6  A    between atoms: C_14  and  O_15
REMARK    7  A    between atoms: O_15  and  C_16
REMARK    8  A    between atoms: C_17  and  O_18
REMARK                            x       y       z     vdW  Elec       q    Type
REMARK                         _______ _______ _______ _____ _____    ______ ____
ROOT
ATOM      1  C   UNL     1       1.895   8.276  19.109  0.00  0.00    +0.000 A 
ATOM      2  C   UNL     1       2.654   8.442  17.953  0.00  0.00    +0.000 A 
ATOM      3  C   UNL     1       3.415   7.380  17.458  0.00  0.00    +0.000 A 
ATOM      4  C   UNL     1       3.455   6.122  18.105  0.00  0.00    +0.000 A 
ATOM      5  C   UNL     1       4.224   5.032  17.633  0.00  0.00    +0.000 A 
ATOM      6  C   UNL     1       4.203   3.807  18.316  0.00  0.00    +0.000 A 
ATOM      7  C   UNL     1       3.435   3.613  19.471  0.00  0.00    +0.000 A 
ATOM      8  C   UNL     1       2.685   4.692  19.951  0.00  0.00    +0.000 A 
ATOM      9  C   UNL     1       2.681   5.944  19.280  0.00  0.00    +0.000 A 
ATOM     10  C   UNL     1       1.910   7.031  19.750  0.00  0.00    +0.000 A 
ENDROOT
BRANCH   1  12
ATOM     11  C   UNL     1       0.314  10.143  18.639  0.00  0.00    +0.000 C 
ATOM     12  C   UNL     1       1.123   9.421  19.708  0.00  0.00    +0.000 C 
ENDBRANCH   1  12
BRANCH   5  13
ATOM     13  C   UNL     1       5.034   5.106  16.403  0.00  0.00    +0.000 C 
ATOM     14  C   UNL     1       5.927   4.178  16.042  0.00  0.00    +0.000 C 
BRANCH  14  15
ATOM     15  C   UNL     1       6.678   4.378  14.786  0.00  0.00    +0.000 C 
ATOM     16  O   UNL     1       7.492   5.269  14.596  0.00  0.00    +0.000 OA
BRANCH  15  17
ATOM     17  O   UNL     1       6.372   3.449  13.853  0.00  0.00    +0.000 OA
ATOM     18  H   UNL     1       7.102   3.170  13.277  0.00  0.00    +0.000 HD
ENDBRANCH  15  17
ENDBRANCH  14  15
ENDBRANCH   5  13
BRANCH   7  19
ATOM     19  O   UNL     1       3.569   2.346  19.960  0.00  0.00    +0.000 OA
ATOM     20  C   UNL     1       4.809   1.869  20.450  0.00  0.00    +0.000 C 
ENDBRANCH   7  19
BRANCH   8  21
ATOM     21  O   UNL     1       1.932   4.616  21.097  0.00  0.00    +0.000 OA
ATOM     22  H   UNL     1       2.427   5.050  21.806  0.00  0.00    +0.000 HD
ENDBRANCH   8  21
TORSDOF 6
ENDMDL
MODEL 7
REMARK VINA RESULT:      -7.0      2.196      6.054
REMARK  Name = 
REMARK  8 active torsions:
REMARK  status: ('A' for Active; 'I' for Inactive)
REMARK    1  A    between atoms: C_1  and  C_2
REMARK    2  A    between atoms: C_2  and  C_3
REMARK    3  A    between atoms: C_7  and  C_8
REMARK    4  A    between atoms: C_9  and  C_10
REMARK    5  A    between atoms: C_10  and  O_12
REMARK    6  A    between atoms: C_14  and  O_15
REMARK    7  A    between atoms: O_15  and  C_16
REMARK    8  A    between atoms: C_17  and  O_18
REMARK                            x       y       z     vdW  Elec       q    Type
REMARK                         _______ _______ _______ _____ _____    ______ ____
ROOT
ATOM      1  C   UNL     1       3.139   3.120  20.410  0.00  0.00    +0.000 A 
ATOM      2  C   UNL     1       3.881   2.593  19.356  0.00  0.00    +0.000 A 
ATOM      3  C   UNL     1       4.242   3.407  18.280  0.00  0.00    +0.000 A 
ATOM      4  C   UNL     1       3.866   4.769  18.212  0.00  0.00    +0.000 A 
ATOM      5  C   UNL     1       4.209   5.615  17.130  0.00  0.00    +0.000 A 
ATOM      6  C   UNL     1       3.816   6.961  17.137  0.00  0.00    +0.000 A 
ATOM      7  C   UNL     1       3.083   7.517  18.193  0.00  0.00    +0.000 A 
ATOM      8  C   UNL     1       2.728   6.682  19.258  0.00  0.00    +0.000 A 
ATOM      9  C   UNL     1       3.114   5.314  19.283  0.00  0.00    +0.000 A 
ATOM     10  C   UNL     1       2.774   4.472  20.366  0.00  0.00    +0.000 A 
ENDROOT
BRANCH   1  12
ATOM     11  C   UNL     1       1.235   2.584  21.925  0.00  0.00    +0.000 C 
ATOM     12  C   UNL     1       2.672   2.252  21.548  0.00  0.00    +0.000 C 
ENDBRANCH   1  12
BRANCH   5  13
ATOM     13  C   UNL     1       5.016   5.153  15.986  0.00  0.00    +0.000 C 
ATOM     14  C   UNL     1       6.318   5.420  15.836  0.00  0.00    +0.000 C 
BRANCH  14  15
ATOM     15  C   UNL     1       7.007   4.900  14.637  0.00  0.00    +0.000 C 
ATOM     16  O   UNL     1       7.920   5.468  14.058  0.00  0.00    +0.000 OA
BRANCH  15  17
ATOM     17  O   UNL     1       6.519   3.702  14.245  0.00  0.00    +0.000 OA
ATOM     18  H   UNL     1       6.088   3.683  13.376  0.00  0.00    +0.000 HD
ENDBRANCH  15  17
ENDBRANCH  14  15
ENDBRANCH   5  13
BRANCH   7  19
ATOM     19  O   UNL     1       2.817   8.839  17.984  0.00  0.00    +0.000 OA
ATOM     20  C   UNL     1       1.494   9.306  17.790  0.00  0.00    +0.000 C 
ENDBRANCH   7  19
BRANCH   8  21
ATOM     21  O   UNL     1       1.976   7.119  20.321  0.00  0.00    +0.000 OA
ATOM     22  H   UNL     1       1.138   6.636  20.310  0.00  0.00    +0.000 HD
ENDBRANCH   8  21
TORSDOF 6
ENDMDL
MODEL 8
REMARK VINA RESULT:      -7.0      2.438      5.655
REMARK  Name = 
REMARK  8 active torsions:
REMARK  status: ('A' for Active; 'I' for Inactive)
REMARK    1  A    between atoms: C_1  and  C_2
REMARK    2  A    between atoms: C_2  and  C_3
REMARK    3  A    between atoms: C_7  and  C_8
REMARK    4  A    between atoms: C_9  and  C_10
REMARK    5  A    between atoms: C_10  and  O_12
REMARK    6  A    between atoms: C_14  and  O_15
REMARK    7  A    between atoms: O_15  and  C_16
REMARK    8  A    between atoms: C_17  and  O_18
REMARK                            x       y       z     vdW  Elec       q    Type
REMARK                         _______ _______ _______ _____ _____    ______ ____
ROOT
ATOM      1  C   UNL     1       1.881   8.080  19.408  0.00  0.00    +0.000 A 
ATOM      2  C   UNL     1       2.570   8.298  18.217  0.00  0.00    +0.000 A 
ATOM      3  C   UNL     1       3.321   7.269  17.645  0.00  0.00    +0.000 A 
ATOM      4  C   UNL     1       3.421   5.991  18.247  0.00  0.00    +0.000 A 
ATOM      5  C   UNL     1       4.181   4.933  17.696  0.00  0.00    +0.000 A 
ATOM      6  C   UNL     1       4.221   3.687  18.337  0.00  0.00    +0.000 A 
ATOM      7  C   UNL     1       3.525   3.440  19.527  0.00  0.00    +0.000 A 
ATOM      8  C   UNL     1       2.784   4.488  20.084  0.00  0.00    +0.000 A 
ATOM      9  C   UNL     1       2.719   5.760  19.456  0.00  0.00    +0.000 A 
ATOM     10  C   UNL     1       1.957   6.816  20.006  0.00  0.00    +0.000 A 
ENDROOT
BRANCH   1  12
ATOM     11  C   UNL     1       1.099   8.982  21.595  0.00  0.00    +0.000 C 
ATOM     12  C   UNL     1       1.124   9.190  20.087  0.00  0.00    +0.000 C 
ENDBRANCH   1  12
BRANCH   5  13
ATOM     13  C   UNL     1       4.918   5.062  16.425  0.00  0.00    +0.000 C 
ATOM     14  C   UNL     1       5.839   4.188  16.005  0.00  0.00    +0.000 C 
BRANCH  14  15
ATOM     15  C   UNL     1       6.508   4.440  14.713  0.00  0.00    +0.000 C 
ATOM     16  O   UNL     1       6.222   3.890  13.660  0.00  0.00    +0.000 OA
BRANCH  15  17
ATOM     17  O   UNL     1       7.484   5.370  14.815  0.00  0.00    +0.000 OA
ATOM     18  H   UNL     1       7.189   6.276  15.000  0.00  0.00    +0.000 HD
ENDBRANCH  15  17
ENDBRANCH  14  15
ENDBRANCH   5  13
BRANCH   7  19
ATOM     19  O   UNL     1       3.710   2.161  19.966  0.00  0.00    +0.000 OA
ATOM     20  C   UNL     1       4.926   1.753  20.566  0.00  0.00    +0.000 C 
ENDBRANCH   7  19
BRANCH   8  21
ATOM     21  O   UNL     1       2.100   4.360  21.268  0.00  0.00    +0.000 OA
ATOM     22  H   UNL     1       2.688   4.641  21.983  0.00  0.00    +0.000 HD
ENDBRANCH   8  21
TORSDOF 6
ENDMDL
MODEL 9
REMARK VINA RESULT:      -6.9      1.732      4.673
REMARK  Name = 
REMARK  8 active torsions:
REMARK  status: ('A' for Active; 'I' for Inactive)
REMARK    1  A    between atoms: C_1  and  C_2
REMARK    2  A    between atoms: C_2  and  C_3
REMARK    3  A    between atoms: C_7  and  C_8
REMARK    4  A    between atoms: C_9  and  C_10
REMARK    5  A    between atoms: C_10  and  O_12
REMARK    6  A    between atoms: C_14  and  O_15
REMARK    7  A    between atoms: O_15  and  C_16
REMARK    8  A    between atoms: C_17  and  O_18
REMARK                            x       y       z     vdW  Elec       q    Type
REMARK                         _______ _______ _______ _____ _____    ______ ____
ROOT
ATOM      1  C   UNL     1       2.859   3.685  20.478  0.00  0.00    +0.000 A 
ATOM      2  C   UNL     1       1.913   4.699  20.354  0.00  0.00    +0.000 A 
ATOM      3  C   UNL     1       2.117   5.739  19.444  0.00  0.00    +0.000 A 
ATOM      4  C   UNL     1       3.276   5.808  18.634  0.00  0.00    +0.000 A 
ATOM      5  C   UNL     1       3.514   6.853  17.710  0.00  0.00    +0.000 A 
ATOM      6  C   UNL     1       4.678   6.849  16.927  0.00  0.00    +0.000 A 
ATOM      7  C   UNL     1       5.635   5.831  17.023  0.00  0.00    +0.000 A 
ATOM      8  C   UNL     1       5.412   4.804  17.946  0.00  0.00    +0.000 A 
ATOM      9  C   UNL     1       4.241   4.776  18.751  0.00  0.00    +0.000 A 
ATOM     10  C   UNL     1       4.003   3.731  19.671  0.00  0.00    +0.000 A 
ENDROOT
BRANCH   1  12
ATOM     11  C   UNL     1       1.246   2.449  21.920  0.00  0.00    +0.000 C 
ATOM     12  C   UNL     1       2.703   2.592  21.502  0.00  0.00    +0.000 C 
ENDBRANCH   1  12
BRANCH   5  13
ATOM     13  C   UNL     1       2.556   7.952  17.490  0.00  0.00    +0.000 C 
ATOM     14  C   UNL     1       2.405   8.987  18.324  0.00  0.00    +0.000 C 
BRANCH  14  15
ATOM     15  C   UNL     1       1.403  10.018  17.988  0.00  0.00    +0.000 C 
ATOM     16  O   UNL     1       0.200   9.820  17.905  0.00  0.00    +0.000 OA
BRANCH  15  17
ATOM     17  O   UNL     1       1.965  11.231  17.786  0.00  0.00    +0.000 OA
ATOM     18  H   UNL     1       2.588  11.293  17.044  0.00  0.00    +0.000 HD
ENDBRANCH  15  17
ENDBRANCH  14  15
ENDBRANCH   5  13
BRANCH   7  19
ATOM     19  O   UNL     1       6.678   6.035  16.167  0.00  0.00    +0.000 OA
ATOM     20  C   UNL     1       6.934   5.153  15.090  0.00  0.00    +0.000 C 
ENDBRANCH   7  19
BRANCH   8  21
ATOM     21  O   UNL     1       6.309   3.783  18.146  0.00  0.00    +0.000 OA
ATOM     22  H   UNL     1       5.830   3.039  18.538  0.00  0.00    +0.000 HD
ENDBRANCH   8  21
TORSDOF 6
ENDMDL
