MODEL 1
REMARK VINA RESULT:      -8.0      0.000      0.000
REMARK  Name = 
REMARK  12 active torsions:
REMARK  status: ('A' for Active; 'I' for Inactive)
REMARK    1  A    between atoms: C_1  and  C_2
REMARK    2  A    between atoms: C_2  and  C_3
REMARK    3  A    between atoms: C_3  and  C_4
REMARK    4  A    between atoms: C_4  and  C_6
REMARK    5  A    between atoms: C_7  and  N_8
REMARK    6  A    between atoms: N_8  and  C_9
REMARK    7  A    between atoms: C_12  and  C_13
REMARK    8  A    between atoms: C_17  and  C_18
REMARK    9  A    between atoms: C_17  and  C_19
REMARK   10  A    between atoms: C_20  and  C_21
REMARK   11  A    between atoms: C_21  and  O_23
REMARK   12  A    between atoms: O_23  and  C_24
REMARK                            x       y       z     vdW  Elec       q    Type
REMARK                         _______ _______ _______ _____ _____    ______ ____
ROOT
ATOM      1  C   UNL     1       3.484   4.668  18.082  0.00  0.00    +0.000 C 
ATOM      2  C   UNL     1       3.784   5.792  18.790  0.00  0.00    +0.000 C 
ATOM      3  C   UNL     1       5.072   6.569  18.546  0.00  0.00    +0.000 C 
ATOM      4  C   UNL     1       6.241   5.754  17.964  0.00  0.00    +0.000 C 
ATOM      5  C   UNL     1       7.370   6.692  17.504  0.00  0.00    +0.000 C 
ATOM      6  C   UNL     1       6.829   4.848  19.072  0.00  0.00    +0.000 C 
ATOM      7  C   UNL     1       5.726   4.895  16.793  0.00  0.00    +0.000 C 
ATOM      8  C   UNL     1       4.568   4.045  17.252  0.00  0.00    +0.000 C 
ATOM      9  O   UNL     1       4.545   2.857  16.947  0.00  0.00    +0.000 OA
ENDROOT
BRANCH   1  10
ATOM     10  C   UNL     1       2.103   4.042  18.124  0.00  0.00    +0.000 C 
ATOM     11  O   UNL     1       1.243   4.363  17.297  0.00  0.00    +0.000 OA
BRANCH  10  12
ATOM     12  C   UNL     1       1.839   2.944  19.154  0.00  0.00    +0.000 C 
BRANCH  12  14
ATOM     13  C   UNL     1       1.987   3.208  21.655  0.00  0.00    +0.000 C 
ATOM     14  C   UNL     1       1.128   3.430  20.414  0.00  0.00    +0.000 C 
ENDBRANCH  12  14
ENDBRANCH  10  12
ENDBRANCH   1  10
BRANCH   2  15
ATOM     15  N   UNL     1       2.955   6.414  19.738  0.00  0.00    +0.000 N 
ATOM     16  H   UNL     1       3.523   6.713  20.546  0.00  0.00    +0.000 HD
BRANCH  15  17
ATOM     17  C   UNL     1       2.182   7.584  19.419  0.00  0.00    +0.000 A 
ATOM     18  C   UNL     1       2.092   8.132  18.133  0.00  0.00    +0.000 A 
ATOM     19  C   UNL     1       1.422   9.343  17.909  0.00  0.00    +0.000 A 
ATOM     20  C   UNL     1       0.802  10.018  18.962  0.00  0.00    +0.000 A 
ATOM     21  C   UNL     1       0.190  11.373  18.759  0.00  0.00    +0.000 C 
ATOM     22  C   UNL     1       0.790   9.418  20.225  0.00  0.00    +0.000 A 
ATOM     23  C   UNL     1       1.468   8.213  20.447  0.00  0.00    +0.000 A 
ENDBRANCH  15  17
ENDBRANCH   2  15
BRANCH   7  24
ATOM     24  C   UNL     1       5.292   5.671  15.567  0.00  0.00    +0.000 C 
ATOM     25  O   UNL     1       4.956   6.846  15.575  0.00  0.00    +0.000 OA
BRANCH  24  26
ATOM     26  O   UNL     1       5.331   4.881  14.459  0.00  0.00    +0.000 OA
ATOM     27  C   UNL     1       6.587   4.234  14.247  0.00  0.00    +0.000 C 
ENDBRANCH  24  26
ENDBRANCH   7  24
TORSDOF 7
ENDMDL
MODEL 2
REMARK VINA RESULT:      -7.5      1.695      4.692
REMARK  Name = 
REMARK  12 active torsions:
REMARK  status: ('A' for Active; 'I' for Inactive)
REMARK    1  A    between atoms: C_1  and  C_2
REMARK    2  A    between atoms: C_2  and  C_3
REMARK    3  A    between atoms: C_3  and  C_4
REMARK    4  A    between atoms: C_4  and  C_6
REMARK    5  A    between atoms: C_7  and  N_8
REMARK    6  A    between atoms: N_8  and  C_9
REMARK    7  A    between atoms: C_12  and  C_13
REMARK    8  A    between atoms: C_17  and  C_18
REMARK    9  A    between atoms: C_17  and  C_19
REMARK   10  A    between atoms: C_20  and  C_21
REMARK   11  A    between atoms: C_21  and  O_23
REMARK   12  A    between atoms: O_23  and  C_24
REMARK                            x       y       z     vdW  Elec       q    Type
REMARK                         _______ _______ _______ _____ _____    ______ ____
ROOT
ATOM      1  C   UNL     1       4.200   4.937  18.571  0.00  0.00    +0.000 C 
ATOM      2  C   UNL     1       3.138   5.244  19.367  0.00  0.00    +0.000 C 
ATOM      3  C   UNL     1       1.934   4.317  19.485  0.00  0.00    +0.000 C 
ATOM      4  C   UNL     1       1.684   3.394  18.278  0.00  0.00    +0.000 C 
ATOM      5  C   UNL     1       0.633   2.327  18.630  0.00  0.00    +0.000 C 
ATOM      6  C   UNL     1       1.106   4.231  17.111  0.00  0.00    +0.000 C 
ATOM      7  C   UNL     1       3.014   2.741  17.856  0.00  0.00    +0.000 C 
ATOM      8  C   UNL     1       4.048   3.807  17.595  0.00  0.00    +0.000 C 
ATOM      9  O   UNL     1       4.735   3.733  16.581  0.00  0.00    +0.000 OA
ENDROOT
BRANCH   1  10
ATOM     10  C   UNL     1       5.504   5.707  18.646  0.00  0.00    +0.000 C 
ATOM     11  O   UNL     1       6.287   5.525  19.585  0.00  0.00    +0.000 OA
BRANCH  10  12
ATOM     12  C   UNL     1       5.861   6.639  17.489  0.00  0.00    +0.000 C 
BRANCH  12  14
ATOM     13  C   UNL     1       7.803   8.234  17.665  0.00  0.00    +0.000 C 
ATOM     14  C   UNL     1       7.361   6.826  17.278  0.00  0.00    +0.000 C 
ENDBRANCH  12  14
ENDBRANCH  10  12
ENDBRANCH   1  10
BRANCH   2  15
ATOM     15  N   UNL     1       3.040   6.360  20.215  0.00  0.00    +0.000 N 
ATOM     16  H   UNL     1       3.983   6.740  20.391  0.00  0.00    +0.000 HD
BRANCH  15  17
ATOM     17  C   UNL     1       2.270   7.519  19.856  0.00  0.00    +0.000 A 
ATOM     18  C   UNL     1       1.477   8.239  20.760  0.00  0.00    +0.000 A 
ATOM     19  C   UNL     1       0.655   9.287  20.323  0.00  0.00    +0.000 A 
ATOM     20  C   UNL     1       0.629   9.658  18.977  0.00  0.00    +0.000 A 
ATOM     21  C   UNL     1      -0.337  10.692  18.478  0.00  0.00    +0.000 C 
ATOM     22  C   UNL     1       1.502   9.019  18.092  0.00  0.00    +0.000 A 
ATOM     23  C   UNL     1       2.316   7.967  18.530  0.00  0.00    +0.000 A 
ENDBRANCH  15  17
ENDBRANCH   2  15
BRANCH   7  24
ATOM     24  C   UNL     1       3.588   1.751  18.848  0.00  0.00    +0.000 C 
ATOM     25  O   UNL     1       3.960   0.623  18.563  0.00  0.00    +0.000 OA
BRANCH  24  26
ATOM     26  O   UNL     1       3.634   2.293  20.095  0.00  0.00    +0.000 OA
ATOM     27  C   UNL     1       4.763   1.883  20.870  0.00  0.00    +0.000 C 
ENDBRANCH  24  26
ENDBRANCH   7  24
TORSDOF 7
ENDMDL
MODEL 3
REMARK VINA RESULT:      -7.5      1.518      4.207
REMARK  Name = 
REMARK  12 active torsions:
REMARK  status: ('A' for Active; 'I' for Inactive)
REMARK    1  A    between atoms: C_1  and  C_2
REMARK    2  A    between atoms: C_2  and  C_3
REMARK    3  A    between atoms: C_3  and  C_4
REMARK    4  A    between atoms: C_4  and  C_6
REMARK    5  A    between atoms: C_7  and  N_8
REMARK    6  A    between atoms: N_8  and  C_9
REMARK    7  A    between atoms: C_12  and  C_13
REMARK    8  A    between atoms: C_17  and  C_18
REMARK    9  A    between atoms: C_17  and  C_19
REMARK   10  A    between atoms: C_20  and  C_21
REMARK   11  A    between atoms: C_21  and  O_23
REMARK   12  A    between atoms: O_23  and  C_24
REMARK                            x       y       z     vdW  Elec       q    Type
REMARK                         _______ _______ _______ _____ _____    ______ ____
ROOT
ATOM      1  C   UNL     1       4.411   5.601  17.054  0.00  0.00    +0.000 C 
ATOM      2  C   UNL     1       3.559   6.336  17.821  0.00  0.00    +0.000 C 
ATOM      3  C   UNL     1       2.690   5.690  18.893  0.00  0.00    +0.000 C 
ATOM      4  C   UNL     1       2.355   4.204  18.672  0.00  0.00    +0.000 C 
ATOM      5  C   UNL     1       1.725   3.604  19.940  0.00  0.00    +0.000 C 
ATOM      6  C   UNL     1       1.303   4.083  17.543  0.00  0.00    +0.000 C 
ATOM      7  C   UNL     1       3.640   3.448  18.283  0.00  0.00    +0.000 C 
ATOM      8  C   UNL     1       4.279   4.106  17.087  0.00  0.00    +0.000 C 
ATOM      9  O   UNL     1       4.667   3.403  16.159  0.00  0.00    +0.000 OA
ENDROOT
BRANCH   1  10
ATOM     10  C   UNL     1       5.464   6.252  16.179  0.00  0.00    +0.000 C 
ATOM     11  O   UNL     1       5.135   6.943  15.208  0.00  0.00    +0.000 OA
BRANCH  10  12
ATOM     12  C   UNL     1       6.931   6.105  16.583  0.00  0.00    +0.000 C 
BRANCH  12  14
ATOM     13  C   UNL     1       7.990   6.339  18.857  0.00  0.00    +0.000 C 
ATOM     14  C   UNL     1       7.378   7.078  17.671  0.00  0.00    +0.000 C 
ENDBRANCH  12  14
ENDBRANCH  10  12
ENDBRANCH   1  10
BRANCH   2  15
ATOM     15  N   UNL     1       3.427   7.734  17.795  0.00  0.00    +0.000 N 
ATOM     16  H   UNL     1       3.427   8.060  16.816  0.00  0.00    +0.000 HD
BRANCH  15  17
ATOM     17  C   UNL     1       2.290   8.399  18.371  0.00  0.00    +0.000 A 
ATOM     18  C   UNL     1       1.411   9.213  17.645  0.00  0.00    +0.000 A 
ATOM     19  C   UNL     1       0.393   9.931  18.287  0.00  0.00    +0.000 A 
ATOM     20  C   UNL     1       0.212   9.829  19.668  0.00  0.00    +0.000 A 
ATOM     21  C   UNL     1      -0.791  10.685  20.383  0.00  0.00    +0.000 C 
ATOM     22  C   UNL     1       1.013   8.931  20.381  0.00  0.00    +0.000 A 
ATOM     23  C   UNL     1       2.035   8.222  19.737  0.00  0.00    +0.000 A 
ENDBRANCH  15  17
ENDBRANCH   2  15
BRANCH   7  24
ATOM     24  C   UNL     1       4.679   3.338  19.381  0.00  0.00    +0.000 C 
ATOM     25  O   UNL     1       5.402   4.254  19.743  0.00  0.00    +0.000 OA
BRANCH  24  26
ATOM     26  O   UNL     1       4.693   2.082  19.905  0.00  0.00    +0.000 OA
ATOM     27  C   UNL     1       4.105   1.090  19.062  0.00  0.00    +0.000 C 
ENDBRANCH  24  26
ENDBRANCH   7  24
TORSDOF 7
ENDMDL
MODEL 4
REMARK VINA RESULT:      -7.5      3.179      6.903
REMARK  Name = 
REMARK  12 active torsions:
REMARK  status: ('A' for Active; 'I' for Inactive)
REMARK    1  A    between atoms: C_1  and  C_2
REMARK    2  A    between atoms: C_2  and  C_3
REMARK    3  A    between atoms: C_3  and  C_4
REMARK    4  A    between atoms: C_4  and  C_6
REMARK    5  A    between atoms: C_7  and  N_8
REMARK    6  A    between atoms: N_8  and  C_9
REMARK    7  A    between atoms: C_12  and  C_13
REMARK    8  A    between atoms: C_17  and  C_18
REMARK    9  A    between atoms: C_17  and  C_19
REMARK   10  A    between atoms: C_20  and  C_21
REMARK   11  A    between atoms: C_21  and  O_23
REMARK   12  A    between atoms: O_23  and  C_24
REMARK                            x       y       z     vdW  Elec       q    Type
REMARK                         _______ _______ _______ _____ _____    ______ ____
ROOT
ATOM      1  C   UNL     1       5.664   4.535  18.007  0.00  0.00    +0.000 C 
ATOM      2  C   UNL     1       4.995   5.016  16.923  0.00  0.00    +0.000 C 
ATOM      3  C   UNL     1       3.473   4.988  16.847  0.00  0.00    +0.000 C 
ATOM      4  C   UNL     1       2.784   3.902  17.691  0.00  0.00    +0.000 C 
ATOM      5  C   UNL     1       1.267   4.154  17.753  0.00  0.00    +0.000 C 
ATOM      6  C   UNL     1       2.985   2.526  17.010  0.00  0.00    +0.000 C 
ATOM      7  C   UNL     1       3.400   3.891  19.103  0.00  0.00    +0.000 C 
ATOM      8  C   UNL     1       4.895   3.722  19.008  0.00  0.00    +0.000 C 
ATOM      9  O   UNL     1       5.449   2.913  19.744  0.00  0.00    +0.000 OA
ENDROOT
BRANCH   1  10
ATOM     10  C   UNL     1       7.143   4.794  18.214  0.00  0.00    +0.000 C 
ATOM     11  O   UNL     1       7.984   4.248  17.491  0.00  0.00    +0.000 OA
BRANCH  10  12
ATOM     12  C   UNL     1       7.556   5.814  19.275  0.00  0.00    +0.000 C 
BRANCH  12  14
ATOM     13  C   UNL     1       7.494   7.706  17.613  0.00  0.00    +0.000 C 
ATOM     14  C   UNL     1       8.296   7.028  18.719  0.00  0.00    +0.000 C 
ENDBRANCH  12  14
ENDBRANCH  10  12
ENDBRANCH   1  10
BRANCH   2  15
ATOM     15  N   UNL     1       5.575   5.651  15.812  0.00  0.00    +0.000 N 
ATOM     16  H   UNL     1       6.484   6.055  16.086  0.00  0.00    +0.000 HD
BRANCH  15  17
ATOM     17  C   UNL     1       5.874   4.937  14.601  0.00  0.00    +0.000 A 
ATOM     18  C   UNL     1       4.970   4.085  13.954  0.00  0.00    +0.000 A 
ATOM     19  C   UNL     1       5.362   3.323  12.845  0.00  0.00    +0.000 A 
ATOM     20  C   UNL     1       6.660   3.417  12.340  0.00  0.00    +0.000 A 
ATOM     21  C   UNL     1       7.128   2.518  11.234  0.00  0.00    +0.000 C 
ATOM     22  C   UNL     1       7.532   4.350  12.910  0.00  0.00    +0.000 A 
ATOM     23  C   UNL     1       7.139   5.103  14.024  0.00  0.00    +0.000 A 
ENDBRANCH  15  17
ENDBRANCH   2  15
BRANCH   7  24
ATOM     24  C   UNL     1       3.109   5.119  19.942  0.00  0.00    +0.000 C 
ATOM     25  O   UNL     1       3.168   6.267  19.529  0.00  0.00    +0.000 OA
BRANCH  24  26
ATOM     26  O   UNL     1       2.773   4.765  21.212  0.00  0.00    +0.000 OA
ATOM     27  C   UNL     1       1.848   3.679  21.291  0.00  0.00    +0.000 C 
ENDBRANCH  24  26
ENDBRANCH   7  24
TORSDOF 7
ENDMDL
MODEL 5
REMARK VINA RESULT:      -7.4      2.351      6.779
REMARK  Name = 
REMARK  12 active torsions:
REMARK  status: ('A' for Active; 'I' for Inactive)
REMARK    1  A    between atoms: C_1  and  C_2
REMARK    2  A    between atoms: C_2  and  C_3
REMARK    3  A    between atoms: C_3  and  C_4
REMARK    4  A    between atoms: C_4  and  C_6
REMARK    5  A    between atoms: C_7  and  N_8
REMARK    6  A    between atoms: N_8  and  C_9
REMARK    7  A    between atoms: C_12  and  C_13
REMARK    8  A    between atoms: C_17  and  C_18
REMARK    9  A    between atoms: C_17  and  C_19
REMARK   10  A    between atoms: C_20  and  C_21
REMARK   11  A    between atoms: C_21  and  O_23
REMARK   12  A    between atoms: O_23  and  C_24
REMARK                            x       y       z     vdW  Elec       q    Type
REMARK                         _______ _______ _______ _____ _____    ______ ____
ROOT
ATOM      1  C   UNL     1       5.945   4.641  17.928  0.00  0.00    +0.000 C 
ATOM      2  C   UNL     1       5.426   3.919  16.896  0.00  0.00    +0.000 C 
ATOM      3  C   UNL     1       3.924   3.845  16.649  0.00  0.00    +0.000 C 
ATOM      4  C   UNL     1       3.034   4.073  17.884  0.00  0.00    +0.000 C 
ATOM      5  C   UNL     1       1.567   4.253  17.460  0.00  0.00    +0.000 C 
ATOM      6  C   UNL     1       3.092   2.818  18.789  0.00  0.00    +0.000 C 
ATOM      7  C   UNL     1       3.542   5.307  18.654  0.00  0.00    +0.000 C 
ATOM      8  C   UNL     1       5.003   5.137  18.987  0.00  0.00    +0.000 C 
ATOM      9  O   UNL     1       5.388   5.396  20.123  0.00  0.00    +0.000 OA
ENDROOT
BRANCH   1  10
ATOM     10  C   UNL     1       7.428   4.940  18.029  0.00  0.00    +0.000 C 
ATOM     11  O   UNL     1       8.264   4.095  17.693  0.00  0.00    +0.000 OA
BRANCH  10  12
ATOM     12  C   UNL     1       7.854   6.341  18.470  0.00  0.00    +0.000 C 
BRANCH  12  14
ATOM     13  C   UNL     1       8.065   8.791  17.922  0.00  0.00    +0.000 C 
ATOM     14  C   UNL     1       7.563   7.432  17.443  0.00  0.00    +0.000 C 
ENDBRANCH  12  14
ENDBRANCH  10  12
ENDBRANCH   1  10
BRANCH   2  15
ATOM     15  N   UNL     1       6.165   3.243  15.912  0.00  0.00    +0.000 N 
ATOM     16  H   UNL     1       5.696   2.353  15.683  0.00  0.00    +0.000 HD
BRANCH  15  17
ATOM     17  C   UNL     1       6.426   3.827  14.624  0.00  0.00    +0.000 A 
ATOM     18  C   UNL     1       5.877   3.351  13.426  0.00  0.00    +0.000 A 
ATOM     19  C   UNL     1       6.266   3.888  12.191  0.00  0.00    +0.000 A 
ATOM     20  C   UNL     1       7.191   4.932  12.127  0.00  0.00    +0.000 A 
ATOM     21  C   UNL     1       7.708   5.430  10.809  0.00  0.00    +0.000 C 
ATOM     22  C   UNL     1       7.654   5.487  13.324  0.00  0.00    +0.000 A 
ATOM     23  C   UNL     1       7.270   4.942  14.557  0.00  0.00    +0.000 A 
ENDBRANCH  15  17
ENDBRANCH   2  15
BRANCH   7  24
ATOM     24  C   UNL     1       3.366   6.630  17.938  0.00  0.00    +0.000 C 
ATOM     25  O   UNL     1       4.165   7.096  17.140  0.00  0.00    +0.000 OA
BRANCH  24  26
ATOM     26  O   UNL     1       2.197   7.222  18.304  0.00  0.00    +0.000 OA
ATOM     27  C   UNL     1       2.178   8.640  18.126  0.00  0.00    +0.000 C 
ENDBRANCH  24  26
ENDBRANCH   7  24
TORSDOF 7
ENDMDL
MODEL 6
REMARK VINA RESULT:      -7.4      3.181      6.866
REMARK  Name = 
REMARK  12 active torsions:
REMARK  status: ('A' for Active; 'I' for Inactive)
REMARK    1  A    between atoms: C_1  and  C_2
REMARK    2  A    between atoms: C_2  and  C_3
REMARK    3  A    between atoms: C_3  and  C_4
REMARK    4  A    between atoms: C_4  and  C_6
REMARK    5  A    between atoms: C_7  and  N_8
REMARK    6  A    between atoms: N_8  and  C_9
REMARK    7  A    between atoms: C_12  and  C_13
REMARK    8  A    between atoms: C_17  and  C_18
REMARK    9  A    between atoms: C_17  and  C_19
REMARK   10  A    between atoms: C_20  and  C_21
REMARK   11  A    between atoms: C_21  and  O_23
REMARK   12  A    between atoms: O_23  and  C_24
REMARK                            x       y       z     vdW  Elec       q    Type
REMARK                         _______ _______ _______ _____ _____    ______ ____
ROOT
ATOM      1  C   UNL     1       5.441   4.651  18.146  0.00  0.00    +0.000 C 
ATOM      2  C   UNL     1       4.679   5.067  17.097  0.00  0.00    +0.000 C 
ATOM      3  C   UNL     1       3.163   4.916  17.101  0.00  0.00    +0.000 C 
ATOM      4  C   UNL     1       2.609   3.784  17.986  0.00  0.00    +0.000 C 
ATOM      5  C   UNL     1       1.083   3.914  18.127  0.00  0.00    +0.000 C 
ATOM      6  C   UNL     1       2.886   2.424  17.301  0.00  0.00    +0.000 C 
ATOM      7  C   UNL     1       3.297   3.835  19.363  0.00  0.00    +0.000 C 
ATOM      8  C   UNL     1       4.794   3.788  19.190  0.00  0.00    +0.000 C 
ATOM      9  O   UNL     1       5.450   3.032  19.899  0.00  0.00    +0.000 OA
ENDROOT
BRANCH   1  10
ATOM     10  C   UNL     1       6.903   5.031  18.273  0.00  0.00    +0.000 C 
ATOM     11  O   UNL     1       7.791   4.219  17.988  0.00  0.00    +0.000 OA
BRANCH  10  12
ATOM     12  C   UNL     1       7.244   6.467  18.674  0.00  0.00    +0.000 C 
BRANCH  12  14
ATOM     13  C   UNL     1       8.086   8.741  17.991  0.00  0.00    +0.000 C 
ATOM     14  C   UNL     1       7.674   7.354  17.509  0.00  0.00    +0.000 C 
ENDBRANCH  12  14
ENDBRANCH  10  12
ENDBRANCH   1  10
BRANCH   2  15
ATOM     15  N   UNL     1       5.147   5.737  15.954  0.00  0.00    +0.000 N 
ATOM     16  H   UNL     1       5.871   6.419  16.230  0.00  0.00    +0.000 HD
BRANCH  15  17
ATOM     17  C   UNL     1       5.748   5.033  14.855  0.00  0.00    +0.000 A 
ATOM     18  C   UNL     1       7.065   5.238  14.423  0.00  0.00    +0.000 A 
ATOM     19  C   UNL     1       7.554   4.609  13.270  0.00  0.00    +0.000 A 
ATOM     20  C   UNL     1       6.745   3.738  12.538  0.00  0.00    +0.000 A 
ATOM     21  C   UNL     1       7.213   3.157  11.236  0.00  0.00    +0.000 C 
ATOM     22  C   UNL     1       5.470   3.441  13.027  0.00  0.00    +0.000 A 
ATOM     23  C   UNL     1       4.982   4.078  14.175  0.00  0.00    +0.000 A 
ENDBRANCH  15  17
ENDBRANCH   2  15
BRANCH   7  24
ATOM     24  C   UNL     1       2.952   5.043  20.210  0.00  0.00    +0.000 C 
ATOM     25  O   UNL     1       3.092   6.202  19.851  0.00  0.00    +0.000 OA
BRANCH  24  26
ATOM     26  O   UNL     1       2.465   4.657  21.421  0.00  0.00    +0.000 OA
ATOM     27  C   UNL     1       2.120   3.273  21.498  0.00  0.00    +0.000 C 
ENDBRANCH  24  26
ENDBRANCH   7  24
TORSDOF 7
ENDMDL
MODEL 7
REMARK VINA RESULT:      -7.4      1.596      4.455
REMARK  Name = 
REMARK  12 active torsions:
REMARK  status: ('A' for Active; 'I' for Inactive)
REMARK    1  A    between atoms: C_1  and  C_2
REMARK    2  A    between atoms: C_2  and  C_3
REMARK    3  A    between atoms: C_3  and  C_4
REMARK    4  A    between atoms: C_4  and  C_6
REMARK    5  A    between atoms: C_7  and  N_8
REMARK    6  A    between atoms: N_8  and  C_9
REMARK    7  A    between atoms: C_12  and  C_13
REMARK    8  A    between atoms: C_17  and  C_18
REMARK    9  A    between atoms: C_17  and  C_19
REMARK   10  A    between atoms: C_20  and  C_21
REMARK   11  A    between atoms: C_21  and  O_23
REMARK   12  A    between atoms: O_23  and  C_24
REMARK                            x       y       z     vdW  Elec       q    Type
REMARK                         _______ _______ _______ _____ _____    ______ ____
ROOT
ATOM      1  C   UNL     1       4.391   5.490  17.082  0.00  0.00    +0.000 C 
ATOM      2  C   UNL     1       3.500   6.265  17.761  0.00  0.00    +0.000 C 
ATOM      3  C   UNL     1       2.561   5.674  18.806  0.00  0.00    +0.000 C 
ATOM      4  C   UNL     1       2.229   4.181  18.634  0.00  0.00    +0.000 C 
ATOM      5  C   UNL     1       1.517   3.644  19.887  0.00  0.00    +0.000 C 
ATOM      6  C   UNL     1       1.247   4.012  17.449  0.00  0.00    +0.000 C 
ATOM      7  C   UNL     1       3.530   3.401  18.361  0.00  0.00    +0.000 C 
ATOM      8  C   UNL     1       4.246   4.000  17.177  0.00  0.00    +0.000 C 
ATOM      9  O   UNL     1       4.685   3.252  16.308  0.00  0.00    +0.000 OA
ENDROOT
BRANCH   1  10
ATOM     10  C   UNL     1       5.501   6.095  16.244  0.00  0.00    +0.000 C 
ATOM     11  O   UNL     1       5.236   6.826  15.284  0.00  0.00    +0.000 OA
BRANCH  10  12
ATOM     12  C   UNL     1       6.947   5.849  16.675  0.00  0.00    +0.000 C 
BRANCH  12  14
ATOM     13  C   UNL     1       7.713   8.080  17.560  0.00  0.00    +0.000 C 
ATOM     14  C   UNL     1       7.371   6.635  17.912  0.00  0.00    +0.000 C 
ENDBRANCH  12  14
ENDBRANCH  10  12
ENDBRANCH   1  10
BRANCH   2  15
ATOM     15  N   UNL     1       3.380   7.661  17.662  0.00  0.00    +0.000 N 
ATOM     16  H   UNL     1       3.153   7.917  16.688  0.00  0.00    +0.000 HD
BRANCH  15  17
ATOM     17  C   UNL     1       2.418   8.397  18.437  0.00  0.00    +0.000 A 
ATOM     18  C   UNL     1       2.083   8.088  19.762  0.00  0.00    +0.000 A 
ATOM     19  C   UNL     1       1.051   8.766  20.423  0.00  0.00    +0.000 A 
ATOM     20  C   UNL     1       0.348   9.789  19.783  0.00  0.00    +0.000 A 
ATOM     21  C   UNL     1      -0.839  10.437  20.434  0.00  0.00    +0.000 C 
ATOM     22  C   UNL     1       0.753  10.179  18.503  0.00  0.00    +0.000 A 
ATOM     23  C   UNL     1       1.780   9.493  17.842  0.00  0.00    +0.000 A 
ENDBRANCH  15  17
ENDBRANCH   2  15
BRANCH   7  24
ATOM     24  C   UNL     1       4.499   3.338  19.523  0.00  0.00    +0.000 C 
ATOM     25  O   UNL     1       5.507   4.020  19.621  0.00  0.00    +0.000 OA
BRANCH  24  26
ATOM     26  O   UNL     1       4.088   2.420  20.441  0.00  0.00    +0.000 OA
ATOM     27  C   UNL     1       5.060   1.416  20.739  0.00  0.00    +0.000 C 
ENDBRANCH  24  26
ENDBRANCH   7  24
TORSDOF 7
ENDMDL
MODEL 8
REMARK VINA RESULT:      -7.3      1.535      4.383
REMARK  Name = 
REMARK  12 active torsions:
REMARK  status: ('A' for Active; 'I' for Inactive)
REMARK    1  A    between atoms: C_1  and  C_2
REMARK    2  A    between atoms: C_2  and  C_3
REMARK    3  A    between atoms: C_3  and  C_4
REMARK    4  A    between atoms: C_4  and  C_6
REMARK    5  A    between atoms: C_7  and  N_8
REMARK    6  A    between atoms: N_8  and  C_9
REMARK    7  A    between atoms: C_12  and  C_13
REMARK    8  A    between atoms: C_17  and  C_18
REMARK    9  A    between atoms: C_17  and  C_19
REMARK   10  A    between atoms: C_20  and  C_21
REMARK   11  A    between atoms: C_21  and  O_23
REMARK   12  A    between atoms: O_23  and  C_24
REMARK                            x       y       z     vdW  Elec       q    Type
REMARK                         _______ _______ _______ _____ _____    ______ ____
ROOT
ATOM      1  C   UNL     1       4.009   5.101  18.330  0.00  0.00    +0.000 C 
ATOM      2  C   UNL     1       3.006   5.380  19.209  0.00  0.00    +0.000 C 
ATOM      3  C   UNL     1       1.860   4.404  19.449  0.00  0.00    +0.000 C 
ATOM      4  C   UNL     1       1.550   3.443  18.287  0.00  0.00    +0.000 C 
ATOM      5  C   UNL     1       0.583   2.340  18.749  0.00  0.00    +0.000 C 
ATOM      6  C   UNL     1       0.837   4.225  17.157  0.00  0.00    +0.000 C 
ATOM      7  C   UNL     1       2.867   2.839  17.765  0.00  0.00    +0.000 C 
ATOM      8  C   UNL     1       3.826   3.942  17.395  0.00  0.00    +0.000 C 
ATOM      9  O   UNL     1       4.426   3.874  16.327  0.00  0.00    +0.000 OA
ENDROOT
BRANCH   1  10
ATOM     10  C   UNL     1       5.279   5.928  18.278  0.00  0.00    +0.000 C 
ATOM     11  O   UNL     1       5.342   6.939  17.568  0.00  0.00    +0.000 OA
BRANCH  10  12
ATOM     12  C   UNL     1       6.439   5.530  19.190  0.00  0.00    +0.000 C 
BRANCH  12  14
ATOM     13  C   UNL     1       7.701   4.502  17.267  0.00  0.00    +0.000 C 
ATOM     14  C   UNL     1       7.784   5.426  18.478  0.00  0.00    +0.000 C 
ENDBRANCH  12  14
ENDBRANCH  10  12
ENDBRANCH   1  10
BRANCH   2  15
ATOM     15  N   UNL     1       2.930   6.510  20.040  0.00  0.00    +0.000 N 
ATOM     16  H   UNL     1       3.877   6.889  20.189  0.00  0.00    +0.000 HD
BRANCH  15  17
ATOM     17  C   UNL     1       2.157   7.667  19.677  0.00  0.00    +0.000 A 
ATOM     18  C   UNL     1       2.127   8.212  18.387  0.00  0.00    +0.000 A 
ATOM     19  C   UNL     1       1.451   9.412  18.125  0.00  0.00    +0.000 A 
ATOM     20  C   UNL     1       0.766  10.079  19.142  0.00  0.00    +0.000 A 
ATOM     21  C   UNL     1       0.145  11.424  18.904  0.00  0.00    +0.000 C 
ATOM     22  C   UNL     1       0.696   9.481  20.404  0.00  0.00    +0.000 A 
ATOM     23  C   UNL     1       1.380   8.287  20.664  0.00  0.00    +0.000 A 
ENDBRANCH  15  17
ENDBRANCH   2  15
BRANCH   7  24
ATOM     24  C   UNL     1       3.569   1.898  18.723  0.00  0.00    +0.000 C 
ATOM     25  O   UNL     1       3.970   0.783  18.429  0.00  0.00    +0.000 OA
BRANCH  24  26
ATOM     26  O   UNL     1       3.691   2.470  19.953  0.00  0.00    +0.000 OA
ATOM     27  C   UNL     1       4.800   1.986  20.714  0.00  0.00    +0.000 C 
ENDBRANCH  24  26
ENDBRANCH   7  24
TORSDOF 7
ENDMDL
MODEL 9
REMARK VINA RESULT:      -7.2      1.209      1.747
REMARK  Name = 
REMARK  12 active torsions:
REMARK  status: ('A' for Active; 'I' for Inactive)
REMARK    1  A    between atoms: C_1  and  C_2
REMARK    2  A    between atoms: C_2  and  C_3
REMARK    3  A    between atoms: C_3  and  C_4
REMARK    4  A    between atoms: C_4  and  C_6
REMARK    5  A    between atoms: C_7  and  N_8
REMARK    6  A    between atoms: N_8  and  C_9
REMARK    7  A    between atoms: C_12  and  C_13
REMARK    8  A    between atoms: C_17  and  C_18
REMARK    9  A    between atoms: C_17  and  C_19
REMARK   10  A    between atoms: C_20  and  C_21
REMARK   11  A    between atoms: C_21  and  O_23
REMARK   12  A    between atoms: O_23  and  C_24
REMARK                            x       y       z     vdW  Elec       q    Type
REMARK                         _______ _______ _______ _____ _____    ______ ____
ROOT
ATOM      1  C   UNL     1       3.085   4.787  17.777  0.00  0.00    +0.000 C 
ATOM      2  C   UNL     1       3.307   6.129  17.705  0.00  0.00    +0.000 C 
ATOM      3  C   UNL     1       4.695   6.694  17.426  0.00  0.00    +0.000 C 
ATOM      4  C   UNL     1       5.875   5.792  17.829  0.00  0.00    +0.000 C 
ATOM      5  C   UNL     1       7.189   6.340  17.247  0.00  0.00    +0.000 C 
ATOM      6  C   UNL     1       6.022   5.807  19.370  0.00  0.00    +0.000 C 
ATOM      7  C   UNL     1       5.608   4.358  17.335  0.00  0.00    +0.000 C 
ATOM      8  C   UNL     1       4.277   3.877  17.855  0.00  0.00    +0.000 C 
ATOM      9  O   UNL     1       4.200   2.754  18.343  0.00  0.00    +0.000 OA
ENDROOT
BRANCH   1  10
ATOM     10  C   UNL     1       1.684   4.207  17.788  0.00  0.00    +0.000 C 
ATOM     11  O   UNL     1       0.870   4.515  16.910  0.00  0.00    +0.000 OA
BRANCH  10  12
ATOM     12  C   UNL     1       1.339   3.169  18.856  0.00  0.00    +0.000 C 
BRANCH  12  14
ATOM     13  C   UNL     1       1.624   3.061  21.356  0.00  0.00    +0.000 C 
ATOM     14  C   UNL     1       0.929   3.769  20.198  0.00  0.00    +0.000 C 
ENDBRANCH  12  14
ENDBRANCH  10  12
ENDBRANCH   1  10
BRANCH   2  15
ATOM     15  N   UNL     1       2.327   7.131  17.789  0.00  0.00    +0.000 N 
ATOM     16  H   UNL     1       1.436   6.771  17.413  0.00  0.00    +0.000 HD
BRANCH  15  17
ATOM     17  C   UNL     1       1.949   7.719  19.045  0.00  0.00    +0.000 A 
ATOM     18  C   UNL     1       2.086   7.074  20.281  0.00  0.00    +0.000 A 
ATOM     19  C   UNL     1       1.587   7.652  21.456  0.00  0.00    +0.000 A 
ATOM     20  C   UNL     1       0.965   8.902  21.427  0.00  0.00    +0.000 A 
ATOM     21  C   UNL     1       0.318   9.474  22.654  0.00  0.00    +0.000 C 
ATOM     22  C   UNL     1       0.929   9.600  20.217  0.00  0.00    +0.000 A 
ATOM     23  C   UNL     1       1.420   9.016  19.042  0.00  0.00    +0.000 A 
ENDBRANCH  15  17
ENDBRANCH   2  15
BRANCH   7  24
ATOM     24  C   UNL     1       5.625   4.182  15.830  0.00  0.00    +0.000 C 
ATOM     25  O   UNL     1       4.626   4.106  15.131  0.00  0.00    +0.000 OA
BRANCH  24  26
ATOM     26  O   UNL     1       6.904   4.122  15.369  0.00  0.00    +0.000 OA
ATOM     27  C   UNL     1       7.075   4.651  14.052  0.00  0.00    +0.000 C 
ENDBRANCH  24  26
ENDBRANCH   7  24
TORSDOF 7
ENDMDL
