MODEL 1
REMARK VINA RESULT:      -8.6      0.000      0.000
REMARK  Name = 
REMARK  9 active torsions:
REMARK  status: ('A' for Active; 'I' for Inactive)
REMARK    1  A    between atoms: C_1  and  C_2
REMARK    2  A    between atoms: C_2  and  C_3
REMARK    3  A    between atoms: C_3  and  C_4
REMARK    4  A    between atoms: C_8  and  C_9
REMARK    5  A    between atoms: C_9  and  C_10
REMARK    6  A    between atoms: C_25  and  O_26
REMARK    7  A    between atoms: O_26  and  C_27
REMARK    8  A    between atoms: C_28  and  O_29
REMARK    9  A    between atoms: O_29  and  C_30
REMARK                            x       y       z     vdW  Elec       q    Type
REMARK                         _______ _______ _______ _____ _____    ______ ____
ROOT
ATOM      1  C   UNL     1      -1.427  11.852  20.555  0.00  0.00    +0.000 A 
ATOM      2  N   UNL     1      -0.097  11.875  20.884  0.00  0.00    +0.000 N 
ATOM      3  C   UNL     1       0.921  11.434  20.094  0.00  0.00    +0.000 A 
ATOM      4  O   UNL     1       2.079  11.665  20.427  0.00  0.00    +0.000 OA
ATOM      5  C   UNL     1       0.556  10.706  18.830  0.00  0.00    +0.000 A 
ATOM      6  C   UNL     1      -0.762  10.655  18.508  0.00  0.00    +0.000 A 
ATOM      7  C   UNL     1      -1.233   9.995  17.282  0.00  0.00    +0.000 A 
ATOM      8  C   UNL     1      -2.539   9.991  16.923  0.00  0.00    +0.000 A 
ATOM      9  C   UNL     1      -3.543  10.656  17.774  0.00  0.00    +0.000 A 
ATOM     10  C   UNL     1      -3.185  11.245  18.929  0.00  0.00    +0.000 A 
ATOM     11  C   UNL     1      -1.797  11.271  19.388  0.00  0.00    +0.000 A 
ATOM     12  H   UNL     1       0.203  12.337  21.734  0.00  0.00    +0.000 HD
ENDROOT
BRANCH   8  13
ATOM     13  O   UNL     1      -3.044   9.398  15.789  0.00  0.00    +0.000 OA
ATOM     14  C   UNL     1      -3.047  10.129  14.576  0.00  0.00    +0.000 C 
ENDBRANCH   8  13
BRANCH   9  15
ATOM     15  O   UNL     1      -4.859  10.822  17.366  0.00  0.00    +0.000 OA
ATOM     16  C   UNL     1      -5.329  12.132  17.079  0.00  0.00    +0.000 C 
ENDBRANCH   9  15
BRANCH   1  17
ATOM     17  C   UNL     1      -2.331  12.561  21.558  0.00  0.00    +0.000 C 
BRANCH  17  19
ATOM     18  C   UNL     1      -3.445  12.283  23.817  0.00  0.00    +0.000 C 
ATOM     19  C   UNL     1      -2.247  11.921  22.954  0.00  0.00    +0.000 C 
ENDBRANCH  17  19
ENDBRANCH   1  17
BRANCH   5  20
ATOM     20  C   UNL     1       1.740  10.142  18.032  0.00  0.00    +0.000 C 
BRANCH  20  21
ATOM     21  C   UNL     1       2.037   8.702  18.414  0.00  0.00    +0.000 A 
ATOM     22  C   UNL     1       2.712   7.950  17.445  0.00  0.00    +0.000 A 
ATOM     23  C   UNL     1       3.578   6.944  17.817  0.00  0.00    +0.000 A 
ATOM     24  C   UNL     1       3.476   6.544  19.124  0.00  0.00    +0.000 A 
ATOM     25  O   UNL     1       4.145   5.490  19.630  0.00  0.00    +0.000 OA
ATOM     26  C   UNL     1       3.115   4.712  20.032  0.00  0.00    +0.000 A 
ATOM     27  C   UNL     1       3.188   3.333  19.880  0.00  0.00    +0.000 A 
ATOM     28  C   UNL     1       1.957   2.707  19.801  0.00  0.00    +0.000 A 
ATOM     29  C   UNL     1       0.778   3.404  20.102  0.00  0.00    +0.000 A 
ATOM     30  C   UNL     1       0.765   4.780  20.422  0.00  0.00    +0.000 A 
ATOM     31  C   UNL     1       1.981   5.503  20.283  0.00  0.00    +0.000 A 
ATOM     32  C   UNL     1       2.373   6.853  19.914  0.00  0.00    +0.000 A 
ATOM     33  C   UNL     1       1.758   8.113  19.671  0.00  0.00    +0.000 A 
ENDBRANCH  20  21
ENDBRANCH   5  20
TORSDOF 6
ENDMDL
MODEL 2
REMARK VINA RESULT:      -7.7      2.711      8.629
REMARK  Name = 
REMARK  9 active torsions:
REMARK  status: ('A' for Active; 'I' for Inactive)
REMARK    1  A    between atoms: C_1  and  C_2
REMARK    2  A    between atoms: C_2  and  C_3
REMARK    3  A    between atoms: C_3  and  C_4
REMARK    4  A    between atoms: C_8  and  C_9
REMARK    5  A    between atoms: C_9  and  C_10
REMARK    6  A    between atoms: C_25  and  O_26
REMARK    7  A    between atoms: O_26  and  C_27
REMARK    8  A    between atoms: C_28  and  O_29
REMARK    9  A    between atoms: O_29  and  C_30
REMARK                            x       y       z     vdW  Elec       q    Type
REMARK                         _______ _______ _______ _____ _____    ______ ____
ROOT
ATOM      1  C   UNL     1       2.653   3.761  18.193  0.00  0.00    +0.000 A 
ATOM      2  N   UNL     1       1.796   4.015  19.231  0.00  0.00    +0.000 N 
ATOM      3  C   UNL     1       1.689   5.199  19.897  0.00  0.00    +0.000 A 
ATOM      4  O   UNL     1       0.768   5.356  20.693  0.00  0.00    +0.000 OA
ATOM      5  C   UNL     1       2.705   6.265  19.589  0.00  0.00    +0.000 A 
ATOM      6  C   UNL     1       3.575   6.011  18.579  0.00  0.00    +0.000 A 
ATOM      7  C   UNL     1       4.592   6.991  18.172  0.00  0.00    +0.000 A 
ATOM      8  C   UNL     1       5.425   6.772  17.127  0.00  0.00    +0.000 A 
ATOM      9  C   UNL     1       5.335   5.517  16.359  0.00  0.00    +0.000 A 
ATOM     10  C   UNL     1       4.454   4.561  16.703  0.00  0.00    +0.000 A 
ATOM     11  C   UNL     1       3.538   4.721  17.831  0.00  0.00    +0.000 A 
ATOM     12  H   UNL     1       1.104   3.325  19.493  0.00  0.00    +0.000 HD
ENDROOT
BRANCH   8  13
ATOM     13  O   UNL     1       6.392   7.648  16.691  0.00  0.00    +0.000 OA
ATOM     14  C   UNL     1       7.588   7.778  17.439  0.00  0.00    +0.000 C 
ENDBRANCH   8  13
BRANCH   9  15
ATOM     15  O   UNL     1       6.048   5.319  15.185  0.00  0.00    +0.000 OA
ATOM     16  C   UNL     1       5.851   4.117  14.455  0.00  0.00    +0.000 C 
ENDBRANCH   9  15
BRANCH   1  17
ATOM     17  C   UNL     1       2.443   2.405  17.528  0.00  0.00    +0.000 C 
BRANCH  17  19
ATOM     18  C   UNL     1       4.019   1.671  19.372  0.00  0.00    +0.000 C 
ATOM     19  C   UNL     1       3.501   1.381  17.973  0.00  0.00    +0.000 C 
ENDBRANCH  17  19
ENDBRANCH   1  17
BRANCH   5  20
ATOM     20  C   UNL     1       2.599   7.538  20.442  0.00  0.00    +0.000 C 
BRANCH  20  21
ATOM     21  C   UNL     1       1.422   8.399  20.020  0.00  0.00    +0.000 A 
ATOM     22  C   UNL     1       0.471   8.648  21.016  0.00  0.00    +0.000 A 
ATOM     23  C   UNL     1      -0.237   9.830  21.029  0.00  0.00    +0.000 A 
ATOM     24  C   UNL     1      -0.177  10.556  19.868  0.00  0.00    +0.000 A 
ATOM     25  O   UNL     1      -0.908  11.666  19.649  0.00  0.00    +0.000 OA
ATOM     26  C   UNL     1      -1.619  11.286  18.564  0.00  0.00    +0.000 A 
ATOM     27  C   UNL     1      -2.948  11.669  18.437  0.00  0.00    +0.000 A 
ATOM     28  C   UNL     1      -3.706  10.831  17.640  0.00  0.00    +0.000 A 
ATOM     29  C   UNL     1      -3.093   9.844  16.853  0.00  0.00    +0.000 A 
ATOM     30  C   UNL     1      -1.702   9.598  16.884  0.00  0.00    +0.000 A 
ATOM     31  C   UNL     1      -0.931  10.282  17.863  0.00  0.00    +0.000 A 
ATOM     32  C   UNL     1       0.249  10.002  18.664  0.00  0.00    +0.000 A 
ATOM     33  C   UNL     1       1.268   9.013  18.753  0.00  0.00    +0.000 A 
ENDBRANCH  20  21
ENDBRANCH   5  20
TORSDOF 6
ENDMDL
MODEL 3
REMARK VINA RESULT:      -7.5      1.031      1.150
REMARK  Name = 
REMARK  9 active torsions:
REMARK  status: ('A' for Active; 'I' for Inactive)
REMARK    1  A    between atoms: C_1  and  C_2
REMARK    2  A    between atoms: C_2  and  C_3
REMARK    3  A    between atoms: C_3  and  C_4
REMARK    4  A    between atoms: C_8  and  C_9
REMARK    5  A    between atoms: C_9  and  C_10
REMARK    6  A    between atoms: C_25  and  O_26
REMARK    7  A    between atoms: O_26  and  C_27
REMARK    8  A    between atoms: C_28  and  O_29
REMARK    9  A    between atoms: O_29  and  C_30
REMARK                            x       y       z     vdW  Elec       q    Type
REMARK                         _______ _______ _______ _____ _____    ______ ____
ROOT
ATOM      1  C   UNL     1      -2.418  12.068  21.069  0.00  0.00    +0.000 A 
ATOM      2  N   UNL     1      -1.144  12.020  21.570  0.00  0.00    +0.000 N 
ATOM      3  C   UNL     1      -0.013  11.810  20.840  0.00  0.00    +0.000 A 
ATOM      4  O   UNL     1       1.081  11.959  21.375  0.00  0.00    +0.000 OA
ATOM      5  C   UNL     1      -0.180  11.430  19.394  0.00  0.00    +0.000 A 
ATOM      6  C   UNL     1      -1.441  11.450  18.894  0.00  0.00    +0.000 A 
ATOM      7  C   UNL     1      -1.721  11.125  17.488  0.00  0.00    +0.000 A 
ATOM      8  C   UNL     1      -2.968  11.199  16.966  0.00  0.00    +0.000 A 
ATOM      9  C   UNL     1      -4.102  11.611  17.814  0.00  0.00    +0.000 A 
ATOM     10  C   UNL     1      -3.923  11.884  19.119  0.00  0.00    +0.000 A 
ATOM     11  C   UNL     1      -2.608  11.806  19.753  0.00  0.00    +0.000 A 
ATOM     12  H   UNL     1      -0.976  12.249  22.542  0.00  0.00    +0.000 HD
ENDROOT
BRANCH   8  13
ATOM     13  O   UNL     1      -3.296  10.915  15.661  0.00  0.00    +0.000 OA
ATOM     14  C   UNL     1      -2.750   9.758  15.053  0.00  0.00    +0.000 C 
ENDBRANCH   8  13
BRANCH   9  15
ATOM     15  O   UNL     1      -5.361  11.863  17.287  0.00  0.00    +0.000 OA
ATOM     16  C   UNL     1      -6.096  12.980  17.768  0.00  0.00    +0.000 C 
ENDBRANCH   9  15
BRANCH   1  17
ATOM     17  C   UNL     1      -3.474  12.484  22.087  0.00  0.00    +0.000 C 
BRANCH  17  19
ATOM     18  C   UNL     1      -4.167  12.406  24.523  0.00  0.00    +0.000 C 
ATOM     19  C   UNL     1      -3.063  12.112  23.522  0.00  0.00    +0.000 C 
ENDBRANCH  17  19
ENDBRANCH   1  17
BRANCH   5  20
ATOM     20  C   UNL     1       1.122  11.104  18.647  0.00  0.00    +0.000 C 
BRANCH  20  21
ATOM     21  C   UNL     1       1.463   9.627  18.735  0.00  0.00    +0.000 A 
ATOM     22  C   UNL     1       1.624   8.973  17.507  0.00  0.00    +0.000 A 
ATOM     23  C   UNL     1       2.503   7.919  17.385  0.00  0.00    +0.000 A 
ATOM     24  C   UNL     1       2.932   7.381  18.570  0.00  0.00    +0.000 A 
ATOM     25  O   UNL     1       3.685   6.267  18.648  0.00  0.00    +0.000 OA
ATOM     26  C   UNL     1       2.873   5.468  19.374  0.00  0.00    +0.000 A 
ATOM     27  C   UNL     1       2.791   4.112  19.081  0.00  0.00    +0.000 A 
ATOM     28  C   UNL     1       1.604   3.519  19.471  0.00  0.00    +0.000 A 
ATOM     29  C   UNL     1       0.704   4.199  20.304  0.00  0.00    +0.000 A 
ATOM     30  C   UNL     1       0.910   5.532  20.724  0.00  0.00    +0.000 A 
ATOM     31  C   UNL     1       1.999   6.245  20.152  0.00  0.00    +0.000 A 
ATOM     32  C   UNL     1       2.282   7.621  19.777  0.00  0.00    +0.000 A 
ATOM     33  C   UNL     1       1.700   8.910  19.933  0.00  0.00    +0.000 A 
ENDBRANCH  20  21
ENDBRANCH   5  20
TORSDOF 6
ENDMDL
MODEL 4
REMARK VINA RESULT:      -7.1      2.965      4.972
REMARK  Name = 
REMARK  9 active torsions:
REMARK  status: ('A' for Active; 'I' for Inactive)
REMARK    1  A    between atoms: C_1  and  C_2
REMARK    2  A    between atoms: C_2  and  C_3
REMARK    3  A    between atoms: C_3  and  C_4
REMARK    4  A    between atoms: C_8  and  C_9
REMARK    5  A    between atoms: C_9  and  C_10
REMARK    6  A    between atoms: C_25  and  O_26
REMARK    7  A    between atoms: O_26  and  C_27
REMARK    8  A    between atoms: C_28  and  O_29
REMARK    9  A    between atoms: O_29  and  C_30
REMARK                            x       y       z     vdW  Elec       q    Type
REMARK                         _______ _______ _______ _____ _____    ______ ____
ROOT
ATOM      1  C   UNL     1       2.303  13.845  19.959  0.00  0.00    +0.000 A 
ATOM      2  N   UNL     1       2.701  13.111  18.873  0.00  0.00    +0.000 N 
ATOM      3  C   UNL     1       2.089  11.986  18.411  0.00  0.00    +0.000 A 
ATOM      4  O   UNL     1       2.437  11.516  17.332  0.00  0.00    +0.000 OA
ATOM      5  C   UNL     1       0.989  11.397  19.251  0.00  0.00    +0.000 A 
ATOM      6  C   UNL     1       0.604  12.105  20.343  0.00  0.00    +0.000 A 
ATOM      7  C   UNL     1      -0.480  11.641  21.222  0.00  0.00    +0.000 A 
ATOM      8  C   UNL     1      -0.911  12.369  22.279  0.00  0.00    +0.000 A 
ATOM      9  C   UNL     1      -0.286  13.668  22.587  0.00  0.00    +0.000 A 
ATOM     10  C   UNL     1       0.737  14.133  21.848  0.00  0.00    +0.000 A 
ATOM     11  C   UNL     1       1.266  13.392  20.704  0.00  0.00    +0.000 A 
ATOM     12  H   UNL     1       3.450  13.452  18.283  0.00  0.00    +0.000 HD
ENDROOT
BRANCH   8  13
ATOM     13  O   UNL     1      -1.922  11.996  23.135  0.00  0.00    +0.000 OA
ATOM     14  C   UNL     1      -3.252  12.374  22.830  0.00  0.00    +0.000 C 
ENDBRANCH   8  13
BRANCH   9  15
ATOM     15  O   UNL     1      -0.802  14.522  23.553  0.00  0.00    +0.000 OA
ATOM     16  C   UNL     1      -1.451  15.716  23.138  0.00  0.00    +0.000 C 
ENDBRANCH   9  15
BRANCH   1  17
ATOM     17  C   UNL     1       3.073  15.148  20.149  0.00  0.00    +0.000 C 
BRANCH  17  19
ATOM     18  C   UNL     1       1.546  16.837  19.038  0.00  0.00    +0.000 C 
ATOM     19  C   UNL     1       2.876  16.107  18.963  0.00  0.00    +0.000 C 
ENDBRANCH  17  19
ENDBRANCH   1  17
BRANCH   5  20
ATOM     20  C   UNL     1       0.405  10.074  18.734  0.00  0.00    +0.000 C 
BRANCH  20  21
ATOM     21  C   UNL     1       1.413   8.942  18.833  0.00  0.00    +0.000 A 
ATOM     22  C   UNL     1       1.732   8.532  20.133  0.00  0.00    +0.000 A 
ATOM     23  C   UNL     1       2.066   7.221  20.392  0.00  0.00    +0.000 A 
ATOM     24  C   UNL     1       2.366   6.468  19.287  0.00  0.00    +0.000 A 
ATOM     25  O   UNL     1       2.840   5.210  19.354  0.00  0.00    +0.000 OA
ATOM     26  C   UNL     1       4.027   5.356  18.724  0.00  0.00    +0.000 A 
ATOM     27  C   UNL     1       5.144   4.669  19.183  0.00  0.00    +0.000 A 
ATOM     28  C   UNL     1       6.349   5.266  18.857  0.00  0.00    +0.000 A 
ATOM     29  C   UNL     1       6.399   6.325  17.938  0.00  0.00    +0.000 A 
ATOM     30  C   UNL     1       5.239   6.888  17.359  0.00  0.00    +0.000 A 
ATOM     31  C   UNL     1       3.977   6.454  17.849  0.00  0.00    +0.000 A 
ATOM     32  C   UNL     1       2.664   7.041  18.054  0.00  0.00    +0.000 A 
ATOM     33  C   UNL     1       1.971   8.243  17.735  0.00  0.00    +0.000 A 
ENDBRANCH  20  21
ENDBRANCH   5  20
TORSDOF 6
ENDMDL
MODEL 5
REMARK VINA RESULT:      -6.9      2.919      4.952
REMARK  Name = 
REMARK  9 active torsions:
REMARK  status: ('A' for Active; 'I' for Inactive)
REMARK    1  A    between atoms: C_1  and  C_2
REMARK    2  A    between atoms: C_2  and  C_3
REMARK    3  A    between atoms: C_3  and  C_4
REMARK    4  A    between atoms: C_8  and  C_9
REMARK    5  A    between atoms: C_9  and  C_10
REMARK    6  A    between atoms: C_25  and  O_26
REMARK    7  A    between atoms: O_26  and  C_27
REMARK    8  A    between atoms: C_28  and  O_29
REMARK    9  A    between atoms: O_29  and  C_30
REMARK                            x       y       z     vdW  Elec       q    Type
REMARK                         _______ _______ _______ _____ _____    ______ ____
ROOT
ATOM      1  C   UNL     1       2.269  13.977  20.256  0.00  0.00    +0.000 A 
ATOM      2  N   UNL     1       2.734  13.266  19.182  0.00  0.00    +0.000 N 
ATOM      3  C   UNL     1       2.126  12.180  18.628  0.00  0.00    +0.000 A 
ATOM      4  O   UNL     1       2.549  11.734  17.566  0.00  0.00    +0.000 OA
ATOM      5  C   UNL     1       0.939  11.603  19.350  0.00  0.00    +0.000 A 
ATOM      6  C   UNL     1       0.487  12.286  20.432  0.00  0.00    +0.000 A 
ATOM      7  C   UNL     1      -0.683  11.833  21.198  0.00  0.00    +0.000 A 
ATOM      8  C   UNL     1      -1.179  12.539  22.241  0.00  0.00    +0.000 A 
ATOM      9  C   UNL     1      -0.540  13.804  22.649  0.00  0.00    +0.000 A 
ATOM     10  C   UNL     1       0.558  14.257  22.016  0.00  0.00    +0.000 A 
ATOM     11  C   UNL     1       1.157  13.536  20.894  0.00  0.00    +0.000 A 
ATOM     12  H   UNL     1       3.541  13.599  18.670  0.00  0.00    +0.000 HD
ENDROOT
BRANCH   8  13
ATOM     13  O   UNL     1      -2.271  12.175  22.994  0.00  0.00    +0.000 OA
ATOM     14  C   UNL     1      -3.565  12.535  22.546  0.00  0.00    +0.000 C 
ENDBRANCH   8  13
BRANCH   9  15
ATOM     15  O   UNL     1      -1.107  14.643  23.598  0.00  0.00    +0.000 OA
ATOM     16  C   UNL     1      -1.590  15.916  23.190  0.00  0.00    +0.000 C 
ENDBRANCH   9  15
BRANCH   1  17
ATOM     17  C   UNL     1       3.063  15.243  20.559  0.00  0.00    +0.000 C 
BRANCH  17  19
ATOM     18  C   UNL     1       4.708  14.144  22.141  0.00  0.00    +0.000 C 
ATOM     19  C   UNL     1       4.540  14.934  20.854  0.00  0.00    +0.000 C 
ENDBRANCH  17  19
ENDBRANCH   1  17
BRANCH   5  20
ATOM     20  C   UNL     1       0.359  10.320  18.738  0.00  0.00    +0.000 C 
BRANCH  20  21
ATOM     21  C   UNL     1       1.330   9.158  18.848  0.00  0.00    +0.000 A 
ATOM     22  C   UNL     1       1.665   8.775  20.152  0.00  0.00    +0.000 A 
ATOM     23  C   UNL     1       1.960   7.461  20.443  0.00  0.00    +0.000 A 
ATOM     24  C   UNL     1       2.211   6.668  19.353  0.00  0.00    +0.000 A 
ATOM     25  O   UNL     1       2.644   5.396  19.447  0.00  0.00    +0.000 OA
ATOM     26  C   UNL     1       3.821   5.485  18.789  0.00  0.00    +0.000 A 
ATOM     27  C   UNL     1       4.925   4.774  19.243  0.00  0.00    +0.000 A 
ATOM     28  C   UNL     1       6.142   5.320  18.875  0.00  0.00    +0.000 A 
ATOM     29  C   UNL     1       6.206   6.350  17.925  0.00  0.00    +0.000 A 
ATOM     30  C   UNL     1       5.053   6.935  17.354  0.00  0.00    +0.000 A 
ATOM     31  C   UNL     1       3.789   6.558  17.883  0.00  0.00    +0.000 A 
ATOM     32  C   UNL     1       2.500   7.195  18.098  0.00  0.00    +0.000 A 
ATOM     33  C   UNL     1       1.841   8.410  17.759  0.00  0.00    +0.000 A 
ENDBRANCH  20  21
ENDBRANCH   5  20
TORSDOF 6
ENDMDL
MODEL 6
REMARK VINA RESULT:      -6.9      1.723      4.104
REMARK  Name = 
REMARK  9 active torsions:
REMARK  status: ('A' for Active; 'I' for Inactive)
REMARK    1  A    between atoms: C_1  and  C_2
REMARK    2  A    between atoms: C_2  and  C_3
REMARK    3  A    between atoms: C_3  and  C_4
REMARK    4  A    between atoms: C_8  and  C_9
REMARK    5  A    between atoms: C_9  and  C_10
REMARK    6  A    between atoms: C_25  and  O_26
REMARK    7  A    between atoms: O_26  and  C_27
REMARK    8  A    between atoms: C_28  and  O_29
REMARK    9  A    between atoms: O_29  and  C_30
REMARK                            x       y       z     vdW  Elec       q    Type
REMARK                         _______ _______ _______ _____ _____    ______ ____
ROOT
ATOM      1  C   UNL     1      -1.965  11.502  19.306  0.00  0.00    +0.000 A 
ATOM      2  N   UNL     1      -1.812  10.583  18.302  0.00  0.00    +0.000 N 
ATOM      3  C   UNL     1      -0.626  10.059  17.883  0.00  0.00    +0.000 A 
ATOM      4  O   UNL     1      -0.633   9.119  17.094  0.00  0.00    +0.000 OA
ATOM      5  C   UNL     1       0.635  10.656  18.443  0.00  0.00    +0.000 A 
ATOM      6  C   UNL     1       0.493  11.587  19.420  0.00  0.00    +0.000 A 
ATOM      7  C   UNL     1       1.656  12.218  20.061  0.00  0.00    +0.000 A 
ATOM      8  C   UNL     1       1.526  13.103  21.077  0.00  0.00    +0.000 A 
ATOM      9  C   UNL     1       0.187  13.469  21.573  0.00  0.00    +0.000 A 
ATOM     10  C   UNL     1      -0.921  12.959  21.005  0.00  0.00    +0.000 A 
ATOM     11  C   UNL     1      -0.856  12.014  19.892  0.00  0.00    +0.000 A 
ATOM     12  H   UNL     1      -2.628  10.161  17.876  0.00  0.00    +0.000 HD
ENDROOT
BRANCH   8  13
ATOM     13  O   UNL     1       2.571  13.723  21.723  0.00  0.00    +0.000 OA
ATOM     14  C   UNL     1       3.647  14.231  20.955  0.00  0.00    +0.000 C 
ENDBRANCH   8  13
BRANCH   9  15
ATOM     15  O   UNL     1       0.009  14.238  22.715  0.00  0.00    +0.000 OA
ATOM     16  C   UNL     1      -1.278  14.291  23.315  0.00  0.00    +0.000 C 
ENDBRANCH   9  15
BRANCH   1  17
ATOM     17  C   UNL     1      -3.417  11.787  19.675  0.00  0.00    +0.000 C 
BRANCH  17  19
ATOM     18  C   UNL     1      -5.772  11.486  18.793  0.00  0.00    +0.000 C 
ATOM     19  C   UNL     1      -4.329  11.802  18.437  0.00  0.00    +0.000 C 
ENDBRANCH  17  19
ENDBRANCH   1  17
BRANCH   5  20
ATOM     20  C   UNL     1       1.942  10.099  17.858  0.00  0.00    +0.000 C 
BRANCH  20  21
ATOM     21  C   UNL     1       2.185   8.666  18.297  0.00  0.00    +0.000 A 
ATOM     22  C   UNL     1       2.860   7.860  17.373  0.00  0.00    +0.000 A 
ATOM     23  C   UNL     1       3.686   6.843  17.801  0.00  0.00    +0.000 A 
ATOM     24  C   UNL     1       3.541   6.493  19.118  0.00  0.00    +0.000 A 
ATOM     25  O   UNL     1       4.165   5.439  19.677  0.00  0.00    +0.000 OA
ATOM     26  C   UNL     1       3.103   4.707  20.081  0.00  0.00    +0.000 A 
ATOM     27  C   UNL     1       3.137   3.322  19.980  0.00  0.00    +0.000 A 
ATOM     28  C   UNL     1       1.890   2.729  19.893  0.00  0.00    +0.000 A 
ATOM     29  C   UNL     1       0.726   3.471  20.140  0.00  0.00    +0.000 A 
ATOM     30  C   UNL     1       0.748   4.858  20.411  0.00  0.00    +0.000 A 
ATOM     31  C   UNL     1       1.989   5.539  20.277  0.00  0.00    +0.000 A 
ATOM     32  C   UNL     1       2.430   6.863  19.870  0.00  0.00    +0.000 A 
ATOM     33  C   UNL     1       1.859   8.131  19.568  0.00  0.00    +0.000 A 
ENDBRANCH  20  21
ENDBRANCH   5  20
TORSDOF 6
ENDMDL
MODEL 7
REMARK VINA RESULT:      -6.8      2.342      7.815
REMARK  Name = 
REMARK  9 active torsions:
REMARK  status: ('A' for Active; 'I' for Inactive)
REMARK    1  A    between atoms: C_1  and  C_2
REMARK    2  A    between atoms: C_2  and  C_3
REMARK    3  A    between atoms: C_3  and  C_4
REMARK    4  A    between atoms: C_8  and  C_9
REMARK    5  A    between atoms: C_9  and  C_10
REMARK    6  A    between atoms: C_25  and  O_26
REMARK    7  A    between atoms: O_26  and  C_27
REMARK    8  A    between atoms: C_28  and  O_29
REMARK    9  A    between atoms: O_29  and  C_30
REMARK                            x       y       z     vdW  Elec       q    Type
REMARK                         _______ _______ _______ _____ _____    ______ ____
ROOT
ATOM      1  C   UNL     1       0.484   9.855  18.421  0.00  0.00    +0.000 A 
ATOM      2  N   UNL     1       1.206  10.431  19.433  0.00  0.00    +0.000 N 
ATOM      3  C   UNL     1       0.792  11.474  20.206  0.00  0.00    +0.000 A 
ATOM      4  O   UNL     1       1.455  11.789  21.190  0.00  0.00    +0.000 OA
ATOM      5  C   UNL     1      -0.484  12.166  19.814  0.00  0.00    +0.000 A 
ATOM      6  C   UNL     1      -1.193  11.619  18.795  0.00  0.00    +0.000 A 
ATOM      7  C   UNL     1      -2.469  12.193  18.345  0.00  0.00    +0.000 A 
ATOM      8  C   UNL     1      -3.213  11.620  17.370  0.00  0.00    +0.000 A 
ATOM      9  C   UNL     1      -2.750  10.382  16.716  0.00  0.00    +0.000 A 
ATOM     10  C   UNL     1      -1.572   9.826  17.052  0.00  0.00    +0.000 A 
ATOM     11  C   UNL     1      -0.709  10.401  18.082  0.00  0.00    +0.000 A 
ATOM     12  H   UNL     1       2.082  10.016  19.726  0.00  0.00    +0.000 HD
ENDROOT
BRANCH   8  13
ATOM     13  O   UNL     1      -4.416  12.102  16.908  0.00  0.00    +0.000 OA
ATOM     14  C   UNL     1      -5.604  11.753  17.595  0.00  0.00    +0.000 C 
ENDBRANCH   8  13
BRANCH   9  15
ATOM     15  O   UNL     1      -3.552   9.670  15.835  0.00  0.00    +0.000 OA
ATOM     16  C   UNL     1      -3.605  10.075  14.474  0.00  0.00    +0.000 C 
ENDBRANCH   9  15
BRANCH   1  17
ATOM     17  C   UNL     1       1.121   8.599  17.836  0.00  0.00    +0.000 C 
BRANCH  17  19
ATOM     18  C   UNL     1       2.661   6.888  18.894  0.00  0.00    +0.000 C 
ATOM     19  C   UNL     1       2.511   8.330  18.438  0.00  0.00    +0.000 C 
ENDBRANCH  17  19
ENDBRANCH   1  17
BRANCH   5  20
ATOM     20  C   UNL     1      -0.847  13.399  20.656  0.00  0.00    +0.000 C 
BRANCH  20  21
ATOM     21  C   UNL     1      -2.143  13.192  21.421  0.00  0.00    +0.000 A 
ATOM     22  C   UNL     1      -2.241  11.986  22.123  0.00  0.00    +0.000 A 
ATOM     23  C   UNL     1      -2.963  11.914  23.295  0.00  0.00    +0.000 A 
ATOM     24  C   UNL     1      -3.802  12.973  23.525  0.00  0.00    +0.000 A 
ATOM     25  O   UNL     1      -4.679  13.014  24.546  0.00  0.00    +0.000 OA
ATOM     26  C   UNL     1      -5.844  13.128  23.869  0.00  0.00    +0.000 A 
ATOM     27  C   UNL     1      -6.976  12.460  24.319  0.00  0.00    +0.000 A 
ATOM     28  C   UNL     1      -7.907  12.194  23.331  0.00  0.00    +0.000 A 
ATOM     29  C   UNL     1      -7.793  12.782  22.063  0.00  0.00    +0.000 A 
ATOM     30  C   UNL     1      -6.702  13.603  21.697  0.00  0.00    +0.000 A 
ATOM     31  C   UNL     1      -5.616  13.704  22.608  0.00  0.00    +0.000 A 
ATOM     32  C   UNL     1      -4.173  13.862  22.521  0.00  0.00    +0.000 A 
ATOM     33  C   UNL     1      -3.189  14.140  21.532  0.00  0.00    +0.000 A 
ENDBRANCH  20  21
ENDBRANCH   5  20
TORSDOF 6
ENDMDL
MODEL 8
REMARK VINA RESULT:      -6.8      1.108      1.916
REMARK  Name = 
REMARK  9 active torsions:
REMARK  status: ('A' for Active; 'I' for Inactive)
REMARK    1  A    between atoms: C_1  and  C_2
REMARK    2  A    between atoms: C_2  and  C_3
REMARK    3  A    between atoms: C_3  and  C_4
REMARK    4  A    between atoms: C_8  and  C_9
REMARK    5  A    between atoms: C_9  and  C_10
REMARK    6  A    between atoms: C_25  and  O_26
REMARK    7  A    between atoms: O_26  and  C_27
REMARK    8  A    between atoms: C_28  and  O_29
REMARK    9  A    between atoms: O_29  and  C_30
REMARK                            x       y       z     vdW  Elec       q    Type
REMARK                         _______ _______ _______ _____ _____    ______ ____
ROOT
ATOM      1  C   UNL     1      -1.680  11.960  20.687  0.00  0.00    +0.000 A 
ATOM      2  N   UNL     1      -0.375  12.072  21.088  0.00  0.00    +0.000 N 
ATOM      3  C   UNL     1       0.713  11.720  20.348  0.00  0.00    +0.000 A 
ATOM      4  O   UNL     1       1.832  12.027  20.747  0.00  0.00    +0.000 OA
ATOM      5  C   UNL     1       0.469  10.992  19.055  0.00  0.00    +0.000 A 
ATOM      6  C   UNL     1      -0.822  10.853  18.662  0.00  0.00    +0.000 A 
ATOM      7  C   UNL     1      -1.179  10.184  17.402  0.00  0.00    +0.000 A 
ATOM      8  C   UNL     1      -2.460  10.093  16.973  0.00  0.00    +0.000 A 
ATOM      9  C   UNL     1      -3.553  10.669  17.777  0.00  0.00    +0.000 A 
ATOM     10  C   UNL     1      -3.301  11.260  18.959  0.00  0.00    +0.000 A 
ATOM     11  C   UNL     1      -1.945  11.377  19.493  0.00  0.00    +0.000 A 
ATOM     12  H   UNL     1      -0.154  12.538  21.959  0.00  0.00    +0.000 HD
ENDROOT
BRANCH   8  13
ATOM     13  O   UNL     1      -2.860   9.487  15.804  0.00  0.00    +0.000 OA
ATOM     14  C   UNL     1      -2.995  10.274  14.635  0.00  0.00    +0.000 C 
ENDBRANCH   8  13
BRANCH   9  15
ATOM     15  O   UNL     1      -4.854  10.748  17.301  0.00  0.00    +0.000 OA
ATOM     16  C   UNL     1      -5.530  11.997  17.354  0.00  0.00    +0.000 C 
ENDBRANCH   9  15
BRANCH   1  17
ATOM     17  C   UNL     1      -2.685  12.584  21.650  0.00  0.00    +0.000 C 
BRANCH  17  19
ATOM     18  C   UNL     1      -4.491  14.314  21.248  0.00  0.00    +0.000 C 
ATOM     19  C   UNL     1      -2.996  14.045  21.284  0.00  0.00    +0.000 C 
ENDBRANCH  17  19
ENDBRANCH   1  17
BRANCH   5  20
ATOM     20  C   UNL     1       1.732  10.528  18.314  0.00  0.00    +0.000 C 
BRANCH  20  21
ATOM     21  C   UNL     1       2.066   9.081  18.629  0.00  0.00    +0.000 A 
ATOM     22  C   UNL     1       1.992   8.727  19.982  0.00  0.00    +0.000 A 
ATOM     23  C   UNL     1       1.633   7.450  20.353  0.00  0.00    +0.000 A 
ATOM     24  C   UNL     1       1.675   6.519  19.348  0.00  0.00    +0.000 A 
ATOM     25  O   UNL     1       1.487   5.201  19.551  0.00  0.00    +0.000 OA
ATOM     26  C   UNL     1       2.670   4.711  19.118  0.00  0.00    +0.000 A 
ATOM     27  C   UNL     1       3.265   3.647  19.785  0.00  0.00    +0.000 A 
ATOM     28  C   UNL     1       4.638   3.581  19.633  0.00  0.00    +0.000 A 
ATOM     29  C   UNL     1       5.294   4.381  18.687  0.00  0.00    +0.000 A 
ATOM     30  C   UNL     1       4.618   5.341  17.899  0.00  0.00    +0.000 A 
ATOM     31  C   UNL     1       3.252   5.596  18.196  0.00  0.00    +0.000 A 
ATOM     32  C   UNL     1       2.357   6.741  18.155  0.00  0.00    +0.000 A 
ATOM     33  C   UNL     1       2.358   8.079  17.671  0.00  0.00    +0.000 A 
ENDBRANCH  20  21
ENDBRANCH   5  20
TORSDOF 6
ENDMDL
MODEL 9
REMARK VINA RESULT:      -6.7      1.713      3.887
REMARK  Name = 
REMARK  9 active torsions:
REMARK  status: ('A' for Active; 'I' for Inactive)
REMARK    1  A    between atoms: C_1  and  C_2
REMARK    2  A    between atoms: C_2  and  C_3
REMARK    3  A    between atoms: C_3  and  C_4
REMARK    4  A    between atoms: C_8  and  C_9
REMARK    5  A    between atoms: C_9  and  C_10
REMARK    6  A    between atoms: C_25  and  O_26
REMARK    7  A    between atoms: O_26  and  C_27
REMARK    8  A    between atoms: C_28  and  O_29
REMARK    9  A    between atoms: O_29  and  C_30
REMARK                            x       y       z     vdW  Elec       q    Type
REMARK                         _______ _______ _______ _____ _____    ______ ____
ROOT
ATOM      1  C   UNL     1      -2.476  10.864  18.523  0.00  0.00    +0.000 A 
ATOM      2  N   UNL     1      -1.887  10.004  17.635  0.00  0.00    +0.000 N 
ATOM      3  C   UNL     1      -0.566   9.670  17.615  0.00  0.00    +0.000 A 
ATOM      4  O   UNL     1      -0.191   8.760  16.882  0.00  0.00    +0.000 OA
ATOM      5  C   UNL     1       0.358  10.430  18.526  0.00  0.00    +0.000 A 
ATOM      6  C   UNL     1      -0.215  11.304  19.392  0.00  0.00    +0.000 A 
ATOM      7  C   UNL     1       0.586  12.081  20.349  0.00  0.00    +0.000 A 
ATOM      8  C   UNL     1       0.019  12.910  21.256  0.00  0.00    +0.000 A 
ATOM      9  C   UNL     1      -1.446  13.064  21.305  0.00  0.00    +0.000 A 
ATOM     10  C   UNL     1      -2.236  12.413  20.432  0.00  0.00    +0.000 A 
ATOM     11  C   UNL     1      -1.692  11.517  19.414  0.00  0.00    +0.000 A 
ATOM     12  H   UNL     1      -2.460   9.479  16.986  0.00  0.00    +0.000 HD
ENDROOT
BRANCH   8  13
ATOM     13  O   UNL     1       0.710  13.659  22.181  0.00  0.00    +0.000 OA
ATOM     14  C   UNL     1       1.090  14.982  21.847  0.00  0.00    +0.000 C 
ENDBRANCH   8  13
BRANCH   9  15
ATOM     15  O   UNL     1      -2.079  13.768  22.320  0.00  0.00    +0.000 OA
ATOM     16  C   UNL     1      -3.499  13.810  22.345  0.00  0.00    +0.000 C 
ENDBRANCH   9  15
BRANCH   1  17
ATOM     17  C   UNL     1      -3.997  10.924  18.418  0.00  0.00    +0.000 C 
BRANCH  17  19
ATOM     18  C   UNL     1      -5.852  12.320  17.405  0.00  0.00    +0.000 C 
ATOM     19  C   UNL     1      -4.454  11.758  17.210  0.00  0.00    +0.000 C 
ENDBRANCH  17  19
ENDBRANCH   1  17
BRANCH   5  20
ATOM     20  C   UNL     1       1.848  10.085  18.386  0.00  0.00    +0.000 C 
BRANCH  20  21
ATOM     21  C   UNL     1       2.109   8.614  18.656  0.00  0.00    +0.000 A 
ATOM     22  C   UNL     1       2.750   7.918  17.624  0.00  0.00    +0.000 A 
ATOM     23  C   UNL     1       3.593   6.865  17.907  0.00  0.00    +0.000 A 
ATOM     24  C   UNL     1       3.498   6.371  19.182  0.00  0.00    +0.000 A 
ATOM     25  O   UNL     1       4.143   5.265  19.598  0.00  0.00    +0.000 OA
ATOM     26  C   UNL     1       3.098   4.487  19.957  0.00  0.00    +0.000 A 
ATOM     27  C   UNL     1       3.130   3.122  19.702  0.00  0.00    +0.000 A 
ATOM     28  C   UNL     1       1.881   2.536  19.596  0.00  0.00    +0.000 A 
ATOM     29  C   UNL     1       0.726   3.240  19.966  0.00  0.00    +0.000 A 
ATOM     30  C   UNL     1       0.756   4.589  20.388  0.00  0.00    +0.000 A 
ATOM     31  C   UNL     1       1.990   5.287  20.284  0.00  0.00    +0.000 A 
ATOM     32  C   UNL     1       2.414   6.650  20.010  0.00  0.00    +0.000 A 
ATOM     33  C   UNL     1       1.831   7.940  19.870  0.00  0.00    +0.000 A 
ENDBRANCH  20  21
ENDBRANCH   5  20
TORSDOF 6
ENDMDL
