MODEL 1
REMARK VINA RESULT:      -7.9      0.000      0.000
REMARK  Name = 
REMARK  5 active torsions:
REMARK  status: ('A' for Active; 'I' for Inactive)
REMARK    1  A    between atoms: C_1  and  O_2
REMARK    2  A    between atoms: O_2  and  C_3
REMARK    3  A    between atoms: N_13  and  C_14
REMARK    4  A    between atoms: C_14  and  C_15
REMARK    5  A    between atoms: C_15  and  N_16
REMARK                            x       y       z     vdW  Elec       q    Type
REMARK                         _______ _______ _______ _____ _____    ______ ____
ROOT
ATOM      1  C   UNL     1      -1.985  10.662  18.330  0.00  0.00    +0.000 C 
ENDROOT
BRANCH   1   2
ATOM      2  N   UNL     1      -3.241  11.311  17.963  0.00  0.00    +0.000 N 
ATOM      3  C   UNL     1      -3.896  10.889  16.801  0.00  0.00    +0.000 A 
ATOM      4  O   UNL     1      -3.312  10.530  15.783  0.00  0.00    +0.000 OA
ATOM      5  N   UNL     1      -5.280  10.835  16.880  0.00  0.00    +0.000 N 
ATOM      6  C   UNL     1      -5.924  11.458  17.934  0.00  0.00    +0.000 A 
ATOM      7  C   UNL     1      -5.210  12.391  18.637  0.00  0.00    +0.000 A 
ATOM      8  S   UNL     1      -6.243  13.277  19.629  0.00  0.00    +0.000 S 
ATOM      9  C   UNL     1      -6.958  11.745  20.034  0.00  0.00    +0.000 A 
ATOM     10  C   UNL     1      -7.434  11.318  21.266  0.00  0.00    +0.000 A 
ATOM     11 CL   UNL     1      -7.294  12.307  22.674  0.00  0.00    +0.000 Cl
ATOM     12  C   UNL     1      -7.862  10.003  21.393  0.00  0.00    +0.000 A 
ATOM     13  C   UNL     1      -7.841   9.143  20.298  0.00  0.00    +0.000 A 
ATOM     14  C   UNL     1      -7.366   9.568  19.043  0.00  0.00    +0.000 A 
ATOM     15  C   UNL     1      -6.858  10.881  18.903  0.00  0.00    +0.000 A 
ATOM     16  C   UNL     1      -3.819  12.168  18.903  0.00  0.00    +0.000 A 
ATOM     17  O   UNL     1      -3.259  12.532  19.932  0.00  0.00    +0.000 OA
ATOM     18  H   UNL     1      -5.799  10.487  16.083  0.00  0.00    +0.000 HD
ENDBRANCH   1   2
BRANCH   1  19
ATOM     19  C   UNL     1      -0.849  11.719  18.431  0.00  0.00    +0.000 C 
BRANCH  19  30
ATOM     20  C   UNL     1      -2.387  12.528  23.265  0.00  0.00    +0.000 A 
ATOM     21  C   UNL     1      -2.549  13.911  23.134  0.00  0.00    +0.000 A 
ATOM     22  C   UNL     1      -1.601  14.663  22.451  0.00  0.00    +0.000 A 
ATOM     23  C   UNL     1      -0.488  14.037  21.901  0.00  0.00    +0.000 A 
ATOM     24  C   UNL     1      -0.308  12.645  22.016  0.00  0.00    +0.000 A 
ATOM     25  C   UNL     1      -1.237  11.889  22.761  0.00  0.00    +0.000 A 
ATOM     26  C   UNL     1      -1.055  10.403  22.978  0.00  0.00    +0.000 C 
ATOM     27  C   UNL     1       0.339   9.894  22.626  0.00  0.00    +0.000 C 
ATOM     28  C   UNL     1       0.874  10.485  21.329  0.00  0.00    +0.000 C 
ATOM     29  C   UNL     1       0.062  10.176  20.070  0.00  0.00    +0.000 C 
ATOM     30  N   UNL     1       0.377  11.253  19.104  0.00  0.00    +0.000 NA
ATOM     31  C   UNL     1       1.053  12.325  19.863  0.00  0.00    +0.000 C 
ATOM     32  C   UNL     1       0.912  12.008  21.362  0.00  0.00    +0.000 C 
BRANCH  20  34
ATOM     33  C   UNL     1      -4.260  12.467  24.667  0.00  0.00    +0.000 C 
ATOM     34  O   UNL     1      -3.314  11.734  23.900  0.00  0.00    +0.000 OA
ENDBRANCH  20  34
ENDBRANCH  19  30
ENDBRANCH   1  19
TORSDOF 4
ENDMDL
MODEL 2
REMARK VINA RESULT:      -7.7      6.369      9.007
REMARK  Name = 
REMARK  5 active torsions:
REMARK  status: ('A' for Active; 'I' for Inactive)
REMARK    1  A    between atoms: C_1  and  O_2
REMARK    2  A    between atoms: O_2  and  C_3
REMARK    3  A    between atoms: N_13  and  C_14
REMARK    4  A    between atoms: C_14  and  C_15
REMARK    5  A    between atoms: C_15  and  N_16
REMARK                            x       y       z     vdW  Elec       q    Type
REMARK                         _______ _______ _______ _____ _____    ______ ____
ROOT
ATOM      1  C   UNL     1       1.621   6.428  20.852  0.00  0.00    +0.000 C 
ENDROOT
BRANCH   1   2
ATOM      2  N   UNL     1       1.908   7.675  20.148  0.00  0.00    +0.000 N 
ATOM      3  C   UNL     1       2.399   7.606  18.840  0.00  0.00    +0.000 A 
ATOM      4  O   UNL     1       3.167   6.733  18.446  0.00  0.00    +0.000 OA
ATOM      5  N   UNL     1       1.911   8.566  17.966  0.00  0.00    +0.000 N 
ATOM      6  C   UNL     1       1.243   9.667  18.471  0.00  0.00    +0.000 A 
ATOM      7  C   UNL     1       1.410   9.940  19.802  0.00  0.00    +0.000 A 
ATOM      8  S   UNL     1       0.825  11.481  20.151  0.00  0.00    +0.000 S 
ATOM      9  C   UNL     1      -0.541  11.043  19.168  0.00  0.00    +0.000 A 
ATOM     10  C   UNL     1      -1.878  11.356  19.367  0.00  0.00    +0.000 A 
ATOM     11 CL   UNL     1      -2.398  12.224  20.766  0.00  0.00    +0.000 Cl
ATOM     12  C   UNL     1      -2.825  10.802  18.516  0.00  0.00    +0.000 A 
ATOM     13  C   UNL     1      -2.434   9.974  17.467  0.00  0.00    +0.000 A 
ATOM     14  C   UNL     1      -1.080   9.654  17.253  0.00  0.00    +0.000 A 
ATOM     15  C   UNL     1      -0.101  10.148  18.147  0.00  0.00    +0.000 A 
ATOM     16  C   UNL     1       1.477   8.863  20.744  0.00  0.00    +0.000 A 
ATOM     17  O   UNL     1       1.031   8.932  21.886  0.00  0.00    +0.000 OA
ATOM     18  H   UNL     1       2.196   8.529  16.994  0.00  0.00    +0.000 HD
ENDBRANCH   1   2
BRANCH   1  19
ATOM     19  C   UNL     1       0.791   5.481  19.940  0.00  0.00    +0.000 C 
BRANCH  19  30
ATOM     20  C   UNL     1       5.363   4.020  18.108  0.00  0.00    +0.000 A 
ATOM     21  C   UNL     1       5.064   4.269  16.765  0.00  0.00    +0.000 A 
ATOM     22  C   UNL     1       3.830   3.900  16.245  0.00  0.00    +0.000 A 
ATOM     23  C   UNL     1       2.893   3.280  17.062  0.00  0.00    +0.000 A 
ATOM     24  C   UNL     1       3.170   3.026  18.419  0.00  0.00    +0.000 A 
ATOM     25  C   UNL     1       4.444   3.343  18.934  0.00  0.00    +0.000 A 
ATOM     26  C   UNL     1       4.821   3.026  20.364  0.00  0.00    +0.000 C 
ATOM     27  C   UNL     1       3.860   2.065  21.058  0.00  0.00    +0.000 C 
ATOM     28  C   UNL     1       2.399   2.380  20.770  0.00  0.00    +0.000 C 
ATOM     29  C   UNL     1       1.910   3.755  21.230  0.00  0.00    +0.000 C 
ATOM     30  N   UNL     1       0.738   4.077  20.385  0.00  0.00    +0.000 NA
ATOM     31  C   UNL     1       0.745   3.121  19.259  0.00  0.00    +0.000 C 
ATOM     32  C   UNL     1       2.092   2.376  19.277  0.00  0.00    +0.000 C 
BRANCH  20  34
ATOM     33  C   UNL     1       7.565   4.717  17.733  0.00  0.00    +0.000 C 
ATOM     34  O   UNL     1       6.556   4.398  18.681  0.00  0.00    +0.000 OA
ENDBRANCH  20  34
ENDBRANCH  19  30
ENDBRANCH   1  19
TORSDOF 4
ENDMDL
MODEL 3
REMARK VINA RESULT:      -7.7      5.835      8.264
REMARK  Name = 
REMARK  5 active torsions:
REMARK  status: ('A' for Active; 'I' for Inactive)
REMARK    1  A    between atoms: C_1  and  O_2
REMARK    2  A    between atoms: O_2  and  C_3
REMARK    3  A    between atoms: N_13  and  C_14
REMARK    4  A    between atoms: C_14  and  C_15
REMARK    5  A    between atoms: C_15  and  N_16
REMARK                            x       y       z     vdW  Elec       q    Type
REMARK                         _______ _______ _______ _____ _____    ______ ____
ROOT
ATOM      1  C   UNL     1       1.092   7.773  20.785  0.00  0.00    +0.000 C 
ENDROOT
BRANCH   1   2
ATOM      2  N   UNL     1       1.132   9.025  20.033  0.00  0.00    +0.000 N 
ATOM      3  C   UNL     1       1.671   9.012  18.742  0.00  0.00    +0.000 A 
ATOM      4  O   UNL     1       2.621   8.309  18.408  0.00  0.00    +0.000 OA
ATOM      5  N   UNL     1       1.021   9.811  17.813  0.00  0.00    +0.000 N 
ATOM      6  C   UNL     1       0.117  10.762  18.251  0.00  0.00    +0.000 A 
ATOM      7  C   UNL     1       0.176  11.116  19.573  0.00  0.00    +0.000 A 
ATOM      8  S   UNL     1      -0.736  12.508  19.836  0.00  0.00    +0.000 S 
ATOM      9  C   UNL     1      -1.942  11.750  18.839  0.00  0.00    +0.000 A 
ATOM     10  C   UNL     1      -3.321  11.777  18.989  0.00  0.00    +0.000 A 
ATOM     11 CL   UNL     1      -4.063  12.567  20.333  0.00  0.00    +0.000 Cl
ATOM     12  C   UNL     1      -4.098  11.001  18.139  0.00  0.00    +0.000 A 
ATOM     13  C   UNL     1      -3.503  10.236  17.139  0.00  0.00    +0.000 A 
ATOM     14  C   UNL     1      -2.105  10.206  16.975  0.00  0.00    +0.000 A 
ATOM     15  C   UNL     1      -1.286  10.932  17.871  0.00  0.00    +0.000 A 
ATOM     16  C   UNL     1       0.437  10.114  20.564  0.00  0.00    +0.000 A 
ATOM     17  O   UNL     1      -0.053  10.130  21.689  0.00  0.00    +0.000 OA
ATOM     18  H   UNL     1       1.342   9.799  16.852  0.00  0.00    +0.000 HD
ENDBRANCH   1   2
BRANCH   1  19
ATOM     19  C   UNL     1       2.151   6.782  20.223  0.00  0.00    +0.000 C 
BRANCH  19  30
ATOM     20  C   UNL     1       6.411   4.912  18.043  0.00  0.00    +0.000 A 
ATOM     21  C   UNL     1       6.427   5.809  16.971  0.00  0.00    +0.000 A 
ATOM     22  C   UNL     1       5.249   6.122  16.305  0.00  0.00    +0.000 A 
ATOM     23  C   UNL     1       4.053   5.538  16.704  0.00  0.00    +0.000 A 
ATOM     24  C   UNL     1       4.012   4.638  17.786  0.00  0.00    +0.000 A 
ATOM     25  C   UNL     1       5.216   4.271  18.424  0.00  0.00    +0.000 A 
ATOM     26  C   UNL     1       5.240   3.254  19.543  0.00  0.00    +0.000 C 
ATOM     27  C   UNL     1       3.952   2.446  19.673  0.00  0.00    +0.000 C 
ATOM     28  C   UNL     1       2.702   3.303  19.528  0.00  0.00    +0.000 C 
ATOM     29  C   UNL     1       2.525   4.408  20.571  0.00  0.00    +0.000 C 
ATOM     30  N   UNL     1       1.648   5.424  19.948  0.00  0.00    +0.000 NA
ATOM     31  C   UNL     1       1.594   5.117  18.504  0.00  0.00    +0.000 C 
ATOM     32  C   UNL     1       2.668   4.056  18.204  0.00  0.00    +0.000 C 
BRANCH  20  34
ATOM     33  C   UNL     1       8.105   5.705  19.450  0.00  0.00    +0.000 C 
ATOM     34  O   UNL     1       7.543   4.597  18.759  0.00  0.00    +0.000 OA
ENDBRANCH  20  34
ENDBRANCH  19  30
ENDBRANCH   1  19
TORSDOF 4
ENDMDL
MODEL 4
REMARK VINA RESULT:      -7.6      5.892      8.339
REMARK  Name = 
REMARK  5 active torsions:
REMARK  status: ('A' for Active; 'I' for Inactive)
REMARK    1  A    between atoms: C_1  and  O_2
REMARK    2  A    between atoms: O_2  and  C_3
REMARK    3  A    between atoms: N_13  and  C_14
REMARK    4  A    between atoms: C_14  and  C_15
REMARK    5  A    between atoms: C_15  and  N_16
REMARK                            x       y       z     vdW  Elec       q    Type
REMARK                         _______ _______ _______ _____ _____    ______ ____
ROOT
ATOM      1  C   UNL     1       1.245   7.954  20.514  0.00  0.00    +0.000 C 
ENDROOT
BRANCH   1   2
ATOM      2  N   UNL     1       1.343   9.289  19.929  0.00  0.00    +0.000 N 
ATOM      3  C   UNL     1       1.521   9.401  18.546  0.00  0.00    +0.000 A 
ATOM      4  O   UNL     1       2.193   8.618  17.881  0.00  0.00    +0.000 OA
ATOM      5  N   UNL     1       0.831  10.437  17.935  0.00  0.00    +0.000 N 
ATOM      6  C   UNL     1       0.279  11.438  18.715  0.00  0.00    +0.000 A 
ATOM      7  C   UNL     1       0.743  11.555  19.998  0.00  0.00    +0.000 A 
ATOM      8  S   UNL     1       0.228  13.014  20.664  0.00  0.00    +0.000 S 
ATOM      9  C   UNL     1      -1.320  12.637  19.967  0.00  0.00    +0.000 A 
ATOM     10  C   UNL     1      -2.580  12.864  20.501  0.00  0.00    +0.000 A 
ATOM     11 CL   UNL     1      -2.779  13.532  22.081  0.00  0.00    +0.000 Cl
ATOM     12  C   UNL     1      -3.688  12.375  19.821  0.00  0.00    +0.000 A 
ATOM     13  C   UNL     1      -3.534  11.698  18.614  0.00  0.00    +0.000 A 
ATOM     14  C   UNL     1      -2.261  11.468  18.060  0.00  0.00    +0.000 A 
ATOM     15  C   UNL     1      -1.111  11.893  18.767  0.00  0.00    +0.000 A 
ATOM     16  C   UNL     1       1.041  10.375  20.755  0.00  0.00    +0.000 A 
ATOM     17  O   UNL     1       0.867  10.285  21.967  0.00  0.00    +0.000 OA
ATOM     18  H   UNL     1       0.886  10.531  16.928  0.00  0.00    +0.000 HD
ENDBRANCH   1   2
BRANCH   1  19
ATOM     19  C   UNL     1       2.267   7.000  19.833  0.00  0.00    +0.000 C 
BRANCH  19  30
ATOM     20  C   UNL     1       6.640   5.006  18.016  0.00  0.00    +0.000 A 
ATOM     21  C   UNL     1       6.755   5.882  16.933  0.00  0.00    +0.000 A 
ATOM     22  C   UNL     1       5.638   6.204  16.173  0.00  0.00    +0.000 A 
ATOM     23  C   UNL     1       4.403   5.651  16.492  0.00  0.00    +0.000 A 
ATOM     24  C   UNL     1       4.262   4.773  17.583  0.00  0.00    +0.000 A 
ATOM     25  C   UNL     1       5.406   4.396  18.317  0.00  0.00    +0.000 A 
ATOM     26  C   UNL     1       5.326   3.400  19.453  0.00  0.00    +0.000 C 
ATOM     27  C   UNL     1       4.015   2.620  19.499  0.00  0.00    +0.000 C 
ATOM     28  C   UNL     1       2.797   3.497  19.245  0.00  0.00    +0.000 C 
ATOM     29  C   UNL     1       2.565   4.626  20.251  0.00  0.00    +0.000 C 
ATOM     30  N   UNL     1       1.758   5.646  19.546  0.00  0.00    +0.000 NA
ATOM     31  C   UNL     1       1.808   5.313  18.107  0.00  0.00    +0.000 C 
ATOM     32  C   UNL     1       2.878   4.225  17.909  0.00  0.00    +0.000 C 
BRANCH  20  34
ATOM     33  C   UNL     1       8.175   5.771  19.609  0.00  0.00    +0.000 C 
ATOM     34  O   UNL     1       7.708   4.684  18.821  0.00  0.00    +0.000 OA
ENDBRANCH  20  34
ENDBRANCH  19  30
ENDBRANCH   1  19
TORSDOF 4
ENDMDL
MODEL 5
REMARK VINA RESULT:      -7.2      2.618      4.770
REMARK  Name = 
REMARK  5 active torsions:
REMARK  status: ('A' for Active; 'I' for Inactive)
REMARK    1  A    between atoms: C_1  and  O_2
REMARK    2  A    between atoms: O_2  and  C_3
REMARK    3  A    between atoms: N_13  and  C_14
REMARK    4  A    between atoms: C_14  and  C_15
REMARK    5  A    between atoms: C_15  and  N_16
REMARK                            x       y       z     vdW  Elec       q    Type
REMARK                         _______ _______ _______ _____ _____    ______ ____
ROOT
ATOM      1  C   UNL     1      -5.778  11.719  18.905  0.00  0.00    +0.000 C 
ENDROOT
BRANCH   1   2
ATOM      2  N   UNL     1      -6.582  12.192  20.029  0.00  0.00    +0.000 N 
ATOM      3  C   UNL     1      -7.208  11.246  20.848  0.00  0.00    +0.000 A 
ATOM      4  O   UNL     1      -7.674  10.189  20.433  0.00  0.00    +0.000 OA
ATOM      5  N   UNL     1      -7.221  11.542  22.203  0.00  0.00    +0.000 N 
ATOM      6  C   UNL     1      -6.910  12.824  22.620  0.00  0.00    +0.000 A 
ATOM      7  C   UNL     1      -6.961  13.816  21.678  0.00  0.00    +0.000 A 
ATOM      8  S   UNL     1      -6.903  15.323  22.427  0.00  0.00    +0.000 S 
ATOM      9  C   UNL     1      -5.633  14.646  23.402  0.00  0.00    +0.000 A 
ATOM     10  C   UNL     1      -4.475  15.262  23.854  0.00  0.00    +0.000 A 
ATOM     11 CL   UNL     1      -4.087  16.883  23.403  0.00  0.00    +0.000 Cl
ATOM     12  C   UNL     1      -3.533  14.496  24.527  0.00  0.00    +0.000 A 
ATOM     13  C   UNL     1      -3.764  13.144  24.769  0.00  0.00    +0.000 A 
ATOM     14  C   UNL     1      -4.938  12.510  24.321  0.00  0.00    +0.000 A 
ATOM     15  C   UNL     1      -5.882  13.250  23.571  0.00  0.00    +0.000 A 
ATOM     16  C   UNL     1      -6.507  13.551  20.345  0.00  0.00    +0.000 A 
ATOM     17  O   UNL     1      -5.948  14.387  19.641  0.00  0.00    +0.000 OA
ATOM     18  H   UNL     1      -7.617  10.865  22.845  0.00  0.00    +0.000 HD
ENDBRANCH   1   2
BRANCH   1  19
ATOM     19  C   UNL     1      -4.321  11.442  19.374  0.00  0.00    +0.000 C 
BRANCH  19  30
ATOM     20  C   UNL     1      -0.201   9.275  21.547  0.00  0.00    +0.000 A 
ATOM     21  C   UNL     1      -0.619   9.468  22.867  0.00  0.00    +0.000 A 
ATOM     22  C   UNL     1      -1.194  10.674  23.249  0.00  0.00    +0.000 A 
ATOM     23  C   UNL     1      -1.349  11.691  22.315  0.00  0.00    +0.000 A 
ATOM     24  C   UNL     1      -0.942  11.516  20.978  0.00  0.00    +0.000 A 
ATOM     25  C   UNL     1      -0.303  10.316  20.604  0.00  0.00    +0.000 A 
ATOM     26  C   UNL     1       0.221  10.103  19.201  0.00  0.00    +0.000 C 
ATOM     27  C   UNL     1       0.297  11.380  18.369  0.00  0.00    +0.000 C 
ATOM     28  C   UNL     1      -0.929  12.266  18.534  0.00  0.00    +0.000 C 
ATOM     29  C   UNL     1      -2.261  11.651  18.104  0.00  0.00    +0.000 C 
ATOM     30  N   UNL     1      -3.311  12.380  18.851  0.00  0.00    +0.000 NA
ATOM     31  C   UNL     1      -2.629  13.137  19.921  0.00  0.00    +0.000 C 
ATOM     32  C   UNL     1      -1.170  12.652  19.989  0.00  0.00    +0.000 C 
BRANCH  20  34
ATOM     33  C   UNL     1       1.730   7.964  21.378  0.00  0.00    +0.000 C 
ATOM     34  O   UNL     1       0.340   8.087  21.111  0.00  0.00    +0.000 OA
ENDBRANCH  20  34
ENDBRANCH  19  30
ENDBRANCH   1  19
TORSDOF 4
ENDMDL
MODEL 6
REMARK VINA RESULT:      -7.1      3.642      7.387
REMARK  Name = 
REMARK  5 active torsions:
REMARK  status: ('A' for Active; 'I' for Inactive)
REMARK    1  A    between atoms: C_1  and  O_2
REMARK    2  A    between atoms: O_2  and  C_3
REMARK    3  A    between atoms: N_13  and  C_14
REMARK    4  A    between atoms: C_14  and  C_15
REMARK    5  A    between atoms: C_15  and  N_16
REMARK                            x       y       z     vdW  Elec       q    Type
REMARK                         _______ _______ _______ _____ _____    ______ ____
ROOT
ATOM      1  C   UNL     1      -3.303  13.398  22.532  0.00  0.00    +0.000 C 
ENDROOT
BRANCH   1   2
ATOM      2  N   UNL     1      -2.473  12.772  21.505  0.00  0.00    +0.000 N 
ATOM      3  C   UNL     1      -2.995  12.640  20.214  0.00  0.00    +0.000 A 
ATOM      4  O   UNL     1      -4.177  12.406  19.978  0.00  0.00    +0.000 OA
ATOM      5  N   UNL     1      -2.096  12.854  19.180  0.00  0.00    +0.000 N 
ATOM      6  C   UNL     1      -0.741  12.881  19.454  0.00  0.00    +0.000 A 
ATOM      7  C   UNL     1      -0.335  12.342  20.645  0.00  0.00    +0.000 A 
ATOM      8  S   UNL     1       1.338  12.146  20.647  0.00  0.00    +0.000 S 
ATOM      9  C   UNL     1       1.396  13.742  19.960  0.00  0.00    +0.000 A 
ATOM     10  C   UNL     1       2.312  14.753  20.213  0.00  0.00    +0.000 A 
ATOM     11 CL   UNL     1       3.561  14.559  21.389  0.00  0.00    +0.000 Cl
ATOM     12  C   UNL     1       2.102  15.999  19.637  0.00  0.00    +0.000 A 
ATOM     13  C   UNL     1       1.011  16.217  18.801  0.00  0.00    +0.000 A 
ATOM     14  C   UNL     1       0.078  15.197  18.533  0.00  0.00    +0.000 A 
ATOM     15  C   UNL     1       0.229  13.938  19.162  0.00  0.00    +0.000 A 
ATOM     16  C   UNL     1      -1.133  12.534  21.820  0.00  0.00    +0.000 A 
ATOM     17  O   UNL     1      -0.662  12.662  22.946  0.00  0.00    +0.000 OA
ATOM     18  H   UNL     1      -2.436  12.820  18.226  0.00  0.00    +0.000 HD
ENDBRANCH   1   2
BRANCH   1  19
ATOM     19  C   UNL     1      -3.734  14.820  22.073  0.00  0.00    +0.000 C 
BRANCH  19  30
ATOM     20  C   UNL     1      -7.481  11.487  20.960  0.00  0.00    +0.000 A 
ATOM     21  C   UNL     1      -7.502  11.750  19.587  0.00  0.00    +0.000 A 
ATOM     22  C   UNL     1      -7.421  13.058  19.126  0.00  0.00    +0.000 A 
ATOM     23  C   UNL     1      -7.322  14.106  20.034  0.00  0.00    +0.000 A 
ATOM     24  C   UNL     1      -7.292  13.863  21.420  0.00  0.00    +0.000 A 
ATOM     25  C   UNL     1      -7.436  12.541  21.892  0.00  0.00    +0.000 A 
ATOM     26  C   UNL     1      -7.484  12.230  23.372  0.00  0.00    +0.000 C 
ATOM     27  C   UNL     1      -7.700  13.456  24.254  0.00  0.00    +0.000 C 
ATOM     28  C   UNL     1      -6.870  14.654  23.815  0.00  0.00    +0.000 C 
ATOM     29  C   UNL     1      -5.352  14.464  23.849  0.00  0.00    +0.000 C 
ATOM     30  N   UNL     1      -4.794  15.441  22.888  0.00  0.00    +0.000 NA
ATOM     31  C   UNL     1      -5.923  15.935  22.073  0.00  0.00    +0.000 C 
ATOM     32  C   UNL     1      -7.145  15.047  22.368  0.00  0.00    +0.000 C 
BRANCH  20  34
ATOM     33  C   UNL     1      -7.560   9.201  20.464  0.00  0.00    +0.000 C 
ATOM     34  O   UNL     1      -7.522  10.208  21.466  0.00  0.00    +0.000 OA
ENDBRANCH  20  34
ENDBRANCH  19  30
ENDBRANCH   1  19
TORSDOF 4
ENDMDL
MODEL 7
REMARK VINA RESULT:      -7.1      5.356      8.419
REMARK  Name = 
REMARK  5 active torsions:
REMARK  status: ('A' for Active; 'I' for Inactive)
REMARK    1  A    between atoms: C_1  and  O_2
REMARK    2  A    between atoms: O_2  and  C_3
REMARK    3  A    between atoms: N_13  and  C_14
REMARK    4  A    between atoms: C_14  and  C_15
REMARK    5  A    between atoms: C_15  and  N_16
REMARK                            x       y       z     vdW  Elec       q    Type
REMARK                         _______ _______ _______ _____ _____    ______ ____
ROOT
ATOM      1  C   UNL     1       1.666   8.865  21.072  0.00  0.00    +0.000 C 
ENDROOT
BRANCH   1   2
ATOM      2  N   UNL     1       1.635   8.137  19.806  0.00  0.00    +0.000 N 
ATOM      3  C   UNL     1       1.835   8.852  18.620  0.00  0.00    +0.000 A 
ATOM      4  O   UNL     1       1.431   9.997  18.439  0.00  0.00    +0.000 OA
ATOM      5  N   UNL     1       2.588   8.206  17.651  0.00  0.00    +0.000 N 
ATOM      6  C   UNL     1       2.830   6.849  17.773  0.00  0.00    +0.000 A 
ATOM      7  C   UNL     1       2.026   6.147  18.629  0.00  0.00    +0.000 A 
ATOM      8  S   UNL     1       2.230   4.493  18.383  0.00  0.00    +0.000 S 
ATOM      9  C   UNL     1       3.932   4.842  18.336  0.00  0.00    +0.000 A 
ATOM     10  C   UNL     1       4.978   4.088  18.848  0.00  0.00    +0.000 A 
ATOM     11 CL   UNL     1       4.687   2.633  19.732  0.00  0.00    +0.000 Cl
ATOM     12  C   UNL     1       6.262   4.614  18.801  0.00  0.00    +0.000 A 
ATOM     13  C   UNL     1       6.496   5.859  18.224  0.00  0.00    +0.000 A 
ATOM     14  C   UNL     1       5.443   6.630  17.696  0.00  0.00    +0.000 A 
ATOM     15  C   UNL     1       4.116   6.149  17.793  0.00  0.00    +0.000 A 
ATOM     16  C   UNL     1       1.619   6.742  19.868  0.00  0.00    +0.000 A 
ATOM     17  O   UNL     1       1.460   6.105  20.906  0.00  0.00    +0.000 OA
ATOM     18  H   UNL     1       2.805   8.700  16.793  0.00  0.00    +0.000 HD
ENDBRANCH   1   2
BRANCH   1  19
ATOM     19  C   UNL     1       0.325   9.622  21.283  0.00  0.00    +0.000 C 
BRANCH  19  30
ATOM     20  C   UNL     1      -3.725  11.745  18.942  0.00  0.00    +0.000 A 
ATOM     21  C   UNL     1      -3.250  11.560  17.640  0.00  0.00    +0.000 A 
ATOM     22  C   UNL     1      -1.918  11.816  17.340  0.00  0.00    +0.000 A 
ATOM     23  C   UNL     1      -1.058  12.261  18.339  0.00  0.00    +0.000 A 
ATOM     24  C   UNL     1      -1.514  12.447  19.658  0.00  0.00    +0.000 A 
ATOM     25  C   UNL     1      -2.880  12.246  19.950  0.00  0.00    +0.000 A 
ATOM     26  C   UNL     1      -3.439  12.501  21.332  0.00  0.00    +0.000 C 
ATOM     27  C   UNL     1      -2.501  13.289  22.243  0.00  0.00    +0.000 C 
ATOM     28  C   UNL     1      -1.054  12.824  22.144  0.00  0.00    +0.000 C 
ATOM     29  C   UNL     1      -0.791  11.371  22.546  0.00  0.00    +0.000 C 
ATOM     30  N   UNL     1       0.457  10.974  21.856  0.00  0.00    +0.000 NA
ATOM     31  C   UNL     1       0.726  12.004  20.830  0.00  0.00    +0.000 C 
ATOM     32  C   UNL     1      -0.520  12.900  20.719  0.00  0.00    +0.000 C 
BRANCH  20  34
ATOM     33  C   UNL     1      -5.859  11.138  18.195  0.00  0.00    +0.000 C 
ATOM     34  O   UNL     1      -5.026  11.471  19.297  0.00  0.00    +0.000 OA
ENDBRANCH  20  34
ENDBRANCH  19  30
ENDBRANCH   1  19
TORSDOF 4
ENDMDL
MODEL 8
REMARK VINA RESULT:      -7.1      5.721      8.304
REMARK  Name = 
REMARK  5 active torsions:
REMARK  status: ('A' for Active; 'I' for Inactive)
REMARK    1  A    between atoms: C_1  and  O_2
REMARK    2  A    between atoms: O_2  and  C_3
REMARK    3  A    between atoms: N_13  and  C_14
REMARK    4  A    between atoms: C_14  and  C_15
REMARK    5  A    between atoms: C_15  and  N_16
REMARK                            x       y       z     vdW  Elec       q    Type
REMARK                         _______ _______ _______ _____ _____    ______ ____
ROOT
ATOM      1  C   UNL     1       0.409   9.639  18.732  0.00  0.00    +0.000 C 
ENDROOT
BRANCH   1   2
ATOM      2  N   UNL     1       1.452   8.853  19.386  0.00  0.00    +0.000 N 
ATOM      3  C   UNL     1       1.390   8.684  20.773  0.00  0.00    +0.000 A 
ATOM      4  O   UNL     1       0.991   9.549  21.547  0.00  0.00    +0.000 OA
ATOM      5  N   UNL     1       1.757   7.431  21.241  0.00  0.00    +0.000 N 
ATOM      6  C   UNL     1       2.421   6.559  20.396  0.00  0.00    +0.000 A 
ATOM      7  C   UNL     1       3.001   7.095  19.278  0.00  0.00    +0.000 A 
ATOM      8  S   UNL     1       4.041   5.972  18.575  0.00  0.00    +0.000 S 
ATOM      9  C   UNL     1       2.768   4.819  18.843  0.00  0.00    +0.000 A 
ATOM     10  C   UNL     1       2.368   3.774  18.022  0.00  0.00    +0.000 A 
ATOM     11 CL   UNL     1       3.095   3.518  16.477  0.00  0.00    +0.000 Cl
ATOM     12  C   UNL     1       1.244   3.041  18.379  0.00  0.00    +0.000 A 
ATOM     13  C   UNL     1       0.553   3.332  19.552  0.00  0.00    +0.000 A 
ATOM     14  C   UNL     1       0.953   4.385  20.395  0.00  0.00    +0.000 A 
ATOM     15  C   UNL     1       2.053   5.193  20.020  0.00  0.00    +0.000 A 
ATOM     16  C   UNL     1       2.330   8.141  18.564  0.00  0.00    +0.000 A 
ATOM     17  O   UNL     1       2.381   8.271  17.344  0.00  0.00    +0.000 OA
ATOM     18  H   UNL     1       1.682   7.241  22.233  0.00  0.00    +0.000 HD
ENDBRANCH   1   2
BRANCH   1  19
ATOM     19  C   UNL     1       0.776  11.149  18.775  0.00  0.00    +0.000 C 
BRANCH  19  30
ATOM     20  C   UNL     1       3.595  15.397  19.411  0.00  0.00    +0.000 A 
ATOM     21  C   UNL     1       4.419  14.872  20.410  0.00  0.00    +0.000 A 
ATOM     22  C   UNL     1       3.875  14.103  21.432  0.00  0.00    +0.000 A 
ATOM     23  C   UNL     1       2.507  13.859  21.459  0.00  0.00    +0.000 A 
ATOM     24  C   UNL     1       1.659  14.372  20.459  0.00  0.00    +0.000 A 
ATOM     25  C   UNL     1       2.200  15.204  19.456  0.00  0.00    +0.000 A 
ATOM     26  C   UNL     1       1.326  15.841  18.399  0.00  0.00    +0.000 C 
ATOM     27  C   UNL     1      -0.166  15.781  18.714  0.00  0.00    +0.000 C 
ATOM     28  C   UNL     1      -0.600  14.430  19.264  0.00  0.00    +0.000 C 
ATOM     29  C   UNL     1      -0.393  13.233  18.335  0.00  0.00    +0.000 C 
ATOM     30  N   UNL     1      -0.314  12.042  19.210  0.00  0.00    +0.000 NA
ATOM     31  C   UNL     1      -0.130  12.535  20.591  0.00  0.00    +0.000 C 
ATOM     32  C   UNL     1       0.173  14.043  20.519  0.00  0.00    +0.000 C 
BRANCH  20  34
ATOM     33  C   UNL     1       5.314  16.791  18.651  0.00  0.00    +0.000 C 
ATOM     34  O   UNL     1       4.089  16.133  18.358  0.00  0.00    +0.000 OA
ENDBRANCH  20  34
ENDBRANCH  19  30
ENDBRANCH   1  19
TORSDOF 4
ENDMDL
MODEL 9
REMARK VINA RESULT:      -6.9      7.752     11.690
REMARK  Name = 
REMARK  5 active torsions:
REMARK  status: ('A' for Active; 'I' for Inactive)
REMARK    1  A    between atoms: C_1  and  O_2
REMARK    2  A    between atoms: O_2  and  C_3
REMARK    3  A    between atoms: N_13  and  C_14
REMARK    4  A    between atoms: C_14  and  C_15
REMARK    5  A    between atoms: C_15  and  N_16
REMARK                            x       y       z     vdW  Elec       q    Type
REMARK                         _______ _______ _______ _____ _____    ______ ____
ROOT
ATOM      1  C   UNL     1       5.222  15.046  20.322  0.00  0.00    +0.000 C 
ENDROOT
BRANCH   1   2
ATOM      2  N   UNL     1       6.577  14.968  20.863  0.00  0.00    +0.000 N 
ATOM      3  C   UNL     1       6.768  14.333  22.096  0.00  0.00    +0.000 A 
ATOM      4  O   UNL     1       5.964  14.390  23.022  0.00  0.00    +0.000 OA
ATOM      5  N   UNL     1       7.917  13.563  22.201  0.00  0.00    +0.000 N 
ATOM      6  C   UNL     1       8.914  13.699  21.252  0.00  0.00    +0.000 A 
ATOM      7  C   UNL     1       8.885  14.825  20.474  0.00  0.00    +0.000 A 
ATOM      8  S   UNL     1      10.341  14.986  19.642  0.00  0.00    +0.000 S 
ATOM      9  C   UNL     1      10.192  13.286  19.313  0.00  0.00    +0.000 A 
ATOM     10  C   UNL     1      10.519  12.603  18.150  0.00  0.00    +0.000 A 
ATOM     11 CL   UNL     1      11.090  13.438  16.751  0.00  0.00    +0.000 Cl
ATOM     12  C   UNL     1      10.209  11.253  18.062  0.00  0.00    +0.000 A 
ATOM     13  C   UNL     1       9.608  10.594  19.131  0.00  0.00    +0.000 A 
ATOM     14  C   UNL     1       9.277  11.275  20.318  0.00  0.00    +0.000 A 
ATOM     15  C   UNL     1       9.518  12.666  20.409  0.00  0.00    +0.000 A 
ATOM     16  C   UNL     1       7.627  15.343  20.022  0.00  0.00    +0.000 A 
ATOM     17  O   UNL     1       7.470  15.886  18.932  0.00  0.00    +0.000 OA
ATOM     18  H   UNL     1       8.076  13.042  23.056  0.00  0.00    +0.000 HD
ENDBRANCH   1   2
BRANCH   1  19
ATOM     19  C   UNL     1       4.549  16.376  20.764  0.00  0.00    +0.000 C 
BRANCH  19  30
ATOM     20  C   UNL     1       0.436  13.490  19.693  0.00  0.00    +0.000 A 
ATOM     21  C   UNL     1       1.155  12.345  19.336  0.00  0.00    +0.000 A 
ATOM     22  C   UNL     1       2.294  12.454  18.547  0.00  0.00    +0.000 A 
ATOM     23  C   UNL     1       2.715  13.705  18.110  0.00  0.00    +0.000 A 
ATOM     24  C   UNL     1       2.010  14.871  18.464  0.00  0.00    +0.000 A 
ATOM     25  C   UNL     1       0.820  14.757  19.213  0.00  0.00    +0.000 A 
ATOM     26  C   UNL     1      -0.016  15.969  19.560  0.00  0.00    +0.000 C 
ATOM     27  C   UNL     1       0.350  17.220  18.765  0.00  0.00    +0.000 C 
ATOM     28  C   UNL     1       1.853  17.417  18.633  0.00  0.00    +0.000 C 
ATOM     29  C   UNL     1       2.620  17.602  19.944  0.00  0.00    +0.000 C 
ATOM     30  N   UNL     1       4.016  17.199  19.663  0.00  0.00    +0.000 NA
ATOM     31  C   UNL     1       4.005  16.484  18.370  0.00  0.00    +0.000 C 
ATOM     32  C   UNL     1       2.538  16.218  17.988  0.00  0.00    +0.000 C 
BRANCH  20  34
ATOM     33  C   UNL     1      -0.484  12.676  21.685  0.00  0.00    +0.000 C 
ATOM     34  O   UNL     1      -0.676  13.440  20.502  0.00  0.00    +0.000 OA
ENDBRANCH  20  34
ENDBRANCH  19  30
ENDBRANCH   1  19
TORSDOF 4
ENDMDL
