MODEL 1
REMARK VINA RESULT:      -6.5      0.000      0.000
REMARK  Name = 
REMARK  7 active torsions:
REMARK  status: ('A' for Active; 'I' for Inactive)
REMARK    1  A    between atoms: C_2  and  C_4
REMARK    2  A    between atoms: N_7  and  C_8
REMARK    3  A    between atoms: C_8  and  O_9
REMARK    4  A    between atoms: O_9  and  C_10
REMARK    5  A    between atoms: C_10  and  N_11
REMARK    6  A    between atoms: C_14  and  C_15
REMARK    7  A    between atoms: N_16  and  O_17
REMARK                            x       y       z     vdW  Elec       q    Type
REMARK                         _______ _______ _______ _____ _____    ______ ____
ROOT
ATOM      1  C   UNL     1       7.470   5.416  16.007  0.00  0.00    +0.000 C 
ENDROOT
BRANCH   1   5
ATOM      2  C   UNL     1       5.745   3.561  12.625  0.00  0.00    +0.000 A 
ATOM      3  C   UNL     1       6.968   4.208  12.511  0.00  0.00    +0.000 A 
ATOM      4  C   UNL     1       7.494   4.892  13.598  0.00  0.00    +0.000 A 
ATOM      5  N   UNL     1       6.822   4.902  14.776  0.00  0.00    +0.000 N 
ATOM      6  C   UNL     1       5.567   4.396  14.857  0.00  0.00    +0.000 A 
ATOM      7  C   UNL     1       5.021   3.696  13.800  0.00  0.00    +0.000 A 
BRANCH   2   9
ATOM      8  N   UNL     1       5.913   1.448  11.404  0.00  0.00    +0.000 N 
ATOM      9  C   UNL     1       5.238   2.617  11.596  0.00  0.00    +0.000 C 
ATOM     10  O   UNL     1       4.183   2.867  11.025  0.00  0.00    +0.000 OA
ATOM     11  H   UNL     1       5.678   0.958  10.550  0.00  0.00    +0.000 HD
ATOM     12  H   UNL     1       6.898   1.361  11.648  0.00  0.00    +0.000 HD
ENDBRANCH   2   9
ENDBRANCH   1   5
BRANCH   1  13
ATOM     13  O   UNL     1       6.760   6.575  16.481  0.00  0.00    +0.000 OA
BRANCH  13  14
ATOM     14  C   UNL     1       6.527   6.559  17.877  0.00  0.00    +0.000 C 
BRANCH  14  15
ATOM     15  N   UNL     1       5.255   5.828  18.143  0.00  0.00    +0.000 N 
ATOM     16  C   UNL     1       5.283   4.641  18.797  0.00  0.00    +0.000 A 
ATOM     17  C   UNL     1       4.118   3.908  18.991  0.00  0.00    +0.000 A 
ATOM     18  C   UNL     1       2.910   4.410  18.516  0.00  0.00    +0.000 A 
ATOM     19  C   UNL     1       2.881   5.652  17.894  0.00  0.00    +0.000 A 
ATOM     20  C   UNL     1       4.075   6.350  17.720  0.00  0.00    +0.000 A 
BRANCH  18  21
ATOM     21  C   UNL     1       1.666   3.624  18.642  0.00  0.00    +0.000 C 
ATOM     22  N   UNL     1       1.571   2.439  18.132  0.00  0.00    +0.000 NA
BRANCH  22  23
ATOM     23  O   UNL     1       0.283   1.950  18.380  0.00  0.00    +0.000 OA
ATOM     24  H   UNL     1       0.198   2.029  19.350  0.00  0.00    +0.000 HD
ENDBRANCH  22  23
ENDBRANCH  18  21
ENDBRANCH  14  15
ENDBRANCH  13  14
ENDBRANCH   1  13
TORSDOF 7
ENDMDL
MODEL 2
REMARK VINA RESULT:      -6.5      3.587      7.537
REMARK  Name = 
REMARK  7 active torsions:
REMARK  status: ('A' for Active; 'I' for Inactive)
REMARK    1  A    between atoms: C_2  and  C_4
REMARK    2  A    between atoms: N_7  and  C_8
REMARK    3  A    between atoms: C_8  and  O_9
REMARK    4  A    between atoms: O_9  and  C_10
REMARK    5  A    between atoms: C_10  and  N_11
REMARK    6  A    between atoms: C_14  and  C_15
REMARK    7  A    between atoms: N_16  and  O_17
REMARK                            x       y       z     vdW  Elec       q    Type
REMARK                         _______ _______ _______ _____ _____    ______ ____
ROOT
ATOM      1  C   UNL     1       2.637   5.422  19.369  0.00  0.00    +0.000 C 
ENDROOT
BRANCH   1   5
ATOM      2  C   UNL     1       1.535   9.460  18.794  0.00  0.00    +0.000 A 
ATOM      3  C   UNL     1       2.285   8.803  17.827  0.00  0.00    +0.000 A 
ATOM      4  C   UNL     1       2.721   7.505  18.054  0.00  0.00    +0.000 A 
ATOM      5  N   UNL     1       2.390   6.876  19.208  0.00  0.00    +0.000 N 
ATOM      6  C   UNL     1       1.783   7.554  20.212  0.00  0.00    +0.000 A 
ATOM      7  C   UNL     1       1.321   8.840  20.015  0.00  0.00    +0.000 A 
BRANCH   2   9
ATOM      8  N   UNL     1      -0.483  10.699  18.182  0.00  0.00    +0.000 N 
ATOM      9  C   UNL     1       0.834  10.743  18.529  0.00  0.00    +0.000 C 
ATOM     10  O   UNL     1       1.426  11.798  18.726  0.00  0.00    +0.000 OA
ATOM     11  H   UNL     1      -0.847  11.558  17.789  0.00  0.00    +0.000 HD
ATOM     12  H   UNL     1      -0.890   9.869  17.755  0.00  0.00    +0.000 HD
ENDBRANCH   2   9
ENDBRANCH   1   5
BRANCH   1  13
ATOM     13  O   UNL     1       3.992   5.206  19.807  0.00  0.00    +0.000 OA
BRANCH  13  14
ATOM     14  C   UNL     1       4.524   3.961  19.394  0.00  0.00    +0.000 C 
BRANCH  14  15
ATOM     15  N   UNL     1       5.185   4.137  18.069  0.00  0.00    +0.000 N 
ATOM     16  C   UNL     1       6.384   4.764  17.993  0.00  0.00    +0.000 A 
ATOM     17  C   UNL     1       6.984   5.002  16.761  0.00  0.00    +0.000 A 
ATOM     18  C   UNL     1       6.346   4.580  15.598  0.00  0.00    +0.000 A 
ATOM     19  C   UNL     1       5.143   3.891  15.689  0.00  0.00    +0.000 A 
ATOM     20  C   UNL     1       4.578   3.676  16.945  0.00  0.00    +0.000 A 
BRANCH  18  21
ATOM     21  C   UNL     1       6.920   4.882  14.272  0.00  0.00    +0.000 C 
ATOM     22  N   UNL     1       8.026   5.543  14.158  0.00  0.00    +0.000 NA
BRANCH  22  23
ATOM     23  O   UNL     1       8.310   5.702  12.797  0.00  0.00    +0.000 OA
ATOM     24  H   UNL     1       7.445   5.951  12.416  0.00  0.00    +0.000 HD
ENDBRANCH  22  23
ENDBRANCH  18  21
ENDBRANCH  14  15
ENDBRANCH  13  14
ENDBRANCH   1  13
TORSDOF 7
ENDMDL
MODEL 3
REMARK VINA RESULT:      -6.4      3.539      5.253
REMARK  Name = 
REMARK  7 active torsions:
REMARK  status: ('A' for Active; 'I' for Inactive)
REMARK    1  A    between atoms: C_2  and  C_4
REMARK    2  A    between atoms: N_7  and  C_8
REMARK    3  A    between atoms: C_8  and  O_9
REMARK    4  A    between atoms: O_9  and  C_10
REMARK    5  A    between atoms: C_10  and  N_11
REMARK    6  A    between atoms: C_14  and  C_15
REMARK    7  A    between atoms: N_16  and  O_17
REMARK                            x       y       z     vdW  Elec       q    Type
REMARK                         _______ _______ _______ _____ _____    ______ ____
ROOT
ATOM      1  C   UNL     1       4.625   4.683  19.427  0.00  0.00    +0.000 C 
ENDROOT
BRANCH   1   5
ATOM      2  C   UNL     1       6.413   4.417  15.608  0.00  0.00    +0.000 A 
ATOM      3  C   UNL     1       5.083   4.056  15.777  0.00  0.00    +0.000 A 
ATOM      4  C   UNL     1       4.519   4.060  17.045  0.00  0.00    +0.000 A 
ATOM      5  N   UNL     1       5.265   4.442  18.111  0.00  0.00    +0.000 N 
ATOM      6  C   UNL     1       6.596   4.659  17.978  0.00  0.00    +0.000 A 
ATOM      7  C   UNL     1       7.185   4.679  16.730  0.00  0.00    +0.000 A 
BRANCH   2   9
ATOM      8  N   UNL     1       6.494   4.011  13.198  0.00  0.00    +0.000 N 
ATOM      9  C   UNL     1       7.013   4.669  14.273  0.00  0.00    +0.000 C 
ATOM     10  O   UNL     1       7.881   5.527  14.161  0.00  0.00    +0.000 OA
ATOM     11  H   UNL     1       7.074   4.032  12.368  0.00  0.00    +0.000 HD
ATOM     12  H   UNL     1       5.997   3.129  13.307  0.00  0.00    +0.000 HD
ENDBRANCH   2   9
ENDBRANCH   1   5
BRANCH   1  13
ATOM     13  O   UNL     1       3.200   4.808  19.258  0.00  0.00    +0.000 OA
BRANCH  13  14
ATOM     14  C   UNL     1       2.563   5.477  20.330  0.00  0.00    +0.000 C 
BRANCH  14  15
ATOM     15  N   UNL     1       2.137   6.829  19.867  0.00  0.00    +0.000 N 
ATOM     16  C   UNL     1       2.418   7.228  18.603  0.00  0.00    +0.000 A 
ATOM     17  C   UNL     1       2.093   8.511  18.174  0.00  0.00    +0.000 A 
ATOM     18  C   UNL     1       1.462   9.385  19.054  0.00  0.00    +0.000 A 
ATOM     19  C   UNL     1       1.130   8.950  20.332  0.00  0.00    +0.000 A 
ATOM     20  C   UNL     1       1.476   7.656  20.718  0.00  0.00    +0.000 A 
BRANCH  18  21
ATOM     21  C   UNL     1       1.170  10.775  18.653  0.00  0.00    +0.000 C 
ATOM     22  N   UNL     1       2.093  11.538  18.166  0.00  0.00    +0.000 NA
BRANCH  22  23
ATOM     23  O   UNL     1       1.539  12.797  17.905  0.00  0.00    +0.000 OA
ATOM     24  H   UNL     1       0.894  12.613  17.194  0.00  0.00    +0.000 HD
ENDBRANCH  22  23
ENDBRANCH  18  21
ENDBRANCH  14  15
ENDBRANCH  13  14
ENDBRANCH   1  13
TORSDOF 7
ENDMDL
MODEL 4
REMARK VINA RESULT:      -6.4      3.423      5.037
REMARK  Name = 
REMARK  7 active torsions:
REMARK  status: ('A' for Active; 'I' for Inactive)
REMARK    1  A    between atoms: C_2  and  C_4
REMARK    2  A    between atoms: N_7  and  C_8
REMARK    3  A    between atoms: C_8  and  O_9
REMARK    4  A    between atoms: O_9  and  C_10
REMARK    5  A    between atoms: C_10  and  N_11
REMARK    6  A    between atoms: C_14  and  C_15
REMARK    7  A    between atoms: N_16  and  O_17
REMARK                            x       y       z     vdW  Elec       q    Type
REMARK                         _______ _______ _______ _____ _____    ______ ____
ROOT
ATOM      1  C   UNL     1       4.322   3.718  19.169  0.00  0.00    +0.000 C 
ENDROOT
BRANCH   1   5
ATOM      2  C   UNL     1       6.319   4.626  15.558  0.00  0.00    +0.000 A 
ATOM      3  C   UNL     1       6.990   4.740  16.769  0.00  0.00    +0.000 A 
ATOM      4  C   UNL     1       6.311   4.527  17.960  0.00  0.00    +0.000 A 
ATOM      5  N   UNL     1       5.000   4.182  17.935  0.00  0.00    +0.000 N 
ATOM      6  C   UNL     1       4.304   4.207  16.772  0.00  0.00    +0.000 A 
ATOM      7  C   UNL     1       4.951   4.399  15.568  0.00  0.00    +0.000 A 
BRANCH   2   9
ATOM      8  N   UNL     1       6.623   3.687  13.321  0.00  0.00    +0.000 N 
ATOM      9  C   UNL     1       7.022   4.600  14.250  0.00  0.00    +0.000 C 
ATOM     10  O   UNL     1       7.866   5.456  14.010  0.00  0.00    +0.000 OA
ATOM     11  H   UNL     1       7.272   3.549  12.556  0.00  0.00    +0.000 HD
ATOM     12  H   UNL     1       6.150   2.827  13.594  0.00  0.00    +0.000 HD
ENDBRANCH   2   9
ENDBRANCH   1   5
BRANCH   1  13
ATOM     13  O   UNL     1       3.034   4.354  19.283  0.00  0.00    +0.000 OA
BRANCH  13  14
ATOM     14  C   UNL     1       2.973   5.317  20.320  0.00  0.00    +0.000 C 
BRANCH  14  15
ATOM     15  N   UNL     1       2.433   6.590  19.761  0.00  0.00    +0.000 N 
ATOM     16  C   UNL     1       2.663   6.908  18.465  0.00  0.00    +0.000 A 
ATOM     17  C   UNL     1       2.230   8.123  17.943  0.00  0.00    +0.000 A 
ATOM     18  C   UNL     1       1.544   9.012  18.766  0.00  0.00    +0.000 A 
ATOM     19  C   UNL     1       1.266   8.655  20.079  0.00  0.00    +0.000 A 
ATOM     20  C   UNL     1       1.720   7.427  20.558  0.00  0.00    +0.000 A 
BRANCH  18  21
ATOM     21  C   UNL     1       1.135  10.339  18.264  0.00  0.00    +0.000 C 
ATOM     22  N   UNL     1       1.629  11.424  18.764  0.00  0.00    +0.000 NA
BRANCH  22  23
ATOM     23  O   UNL     1       1.044  12.519  18.118  0.00  0.00    +0.000 OA
ATOM     24  H   UNL     1       1.299  12.388  17.184  0.00  0.00    +0.000 HD
ENDBRANCH  22  23
ENDBRANCH  18  21
ENDBRANCH  14  15
ENDBRANCH  13  14
ENDBRANCH   1  13
TORSDOF 7
ENDMDL
MODEL 5
REMARK VINA RESULT:      -6.3      3.213      5.366
REMARK  Name = 
REMARK  7 active torsions:
REMARK  status: ('A' for Active; 'I' for Inactive)
REMARK    1  A    between atoms: C_2  and  C_4
REMARK    2  A    between atoms: N_7  and  C_8
REMARK    3  A    between atoms: C_8  and  O_9
REMARK    4  A    between atoms: O_9  and  C_10
REMARK    5  A    between atoms: C_10  and  N_11
REMARK    6  A    between atoms: C_14  and  C_15
REMARK    7  A    between atoms: N_16  and  O_17
REMARK                            x       y       z     vdW  Elec       q    Type
REMARK                         _______ _______ _______ _____ _____    ______ ____
ROOT
ATOM      1  C   UNL     1       3.892   2.723  20.117  0.00  0.00    +0.000 C 
ENDROOT
BRANCH   1   5
ATOM      2  C   UNL     1       5.826   4.954  17.094  0.00  0.00    +0.000 A 
ATOM      3  C   UNL     1       5.099   3.819  16.760  0.00  0.00    +0.000 A 
ATOM      4  C   UNL     1       4.536   3.037  17.759  0.00  0.00    +0.000 A 
ATOM      5  N   UNL     1       4.678   3.401  19.058  0.00  0.00    +0.000 N 
ATOM      6  C   UNL     1       5.499   4.422  19.401  0.00  0.00    +0.000 A 
ATOM      7  C   UNL     1       6.061   5.230  18.432  0.00  0.00    +0.000 A 
BRANCH   2   9
ATOM      8  N   UNL     1       5.277   6.643  15.413  0.00  0.00    +0.000 N 
ATOM      9  C   UNL     1       6.246   5.963  16.088  0.00  0.00    +0.000 C 
ATOM     10  O   UNL     1       7.437   6.223  15.966  0.00  0.00    +0.000 OA
ATOM     11  H   UNL     1       5.600   7.135  14.589  0.00  0.00    +0.000 HD
ATOM     12  H   UNL     1       4.342   6.256  15.298  0.00  0.00    +0.000 HD
ENDBRANCH   2   9
ENDBRANCH   1   5
BRANCH   1  13
ATOM     13  O   UNL     1       2.616   2.315  19.588  0.00  0.00    +0.000 OA
BRANCH  13  14
ATOM     14  C   UNL     1       1.538   3.111  20.043  0.00  0.00    +0.000 C 
BRANCH  14  15
ATOM     15  N   UNL     1       1.735   4.508  19.559  0.00  0.00    +0.000 N 
ATOM     16  C   UNL     1       1.664   4.778  18.233  0.00  0.00    +0.000 A 
ATOM     17  C   UNL     1       1.917   6.059  17.754  0.00  0.00    +0.000 A 
ATOM     18  C   UNL     1       2.233   7.073  18.654  0.00  0.00    +0.000 A 
ATOM     19  C   UNL     1       2.251   6.800  20.016  0.00  0.00    +0.000 A 
ATOM     20  C   UNL     1       1.993   5.500  20.449  0.00  0.00    +0.000 A 
BRANCH  18  21
ATOM     21  C   UNL     1       2.576   8.426  18.172  0.00  0.00    +0.000 C 
ATOM     22  N   UNL     1       1.656   9.292  17.899  0.00  0.00    +0.000 NA
BRANCH  22  23
ATOM     23  O   UNL     1       2.268  10.464  17.442  0.00  0.00    +0.000 OA
ATOM     24  H   UNL     1       2.578  10.889  18.265  0.00  0.00    +0.000 HD
ENDBRANCH  22  23
ENDBRANCH  18  21
ENDBRANCH  14  15
ENDBRANCH  13  14
ENDBRANCH   1  13
TORSDOF 7
ENDMDL
MODEL 6
REMARK VINA RESULT:      -6.3      3.432      7.538
REMARK  Name = 
REMARK  7 active torsions:
REMARK  status: ('A' for Active; 'I' for Inactive)
REMARK    1  A    between atoms: C_2  and  C_4
REMARK    2  A    between atoms: N_7  and  C_8
REMARK    3  A    between atoms: C_8  and  O_9
REMARK    4  A    between atoms: O_9  and  C_10
REMARK    5  A    between atoms: C_10  and  N_11
REMARK    6  A    between atoms: C_14  and  C_15
REMARK    7  A    between atoms: N_16  and  O_17
REMARK                            x       y       z     vdW  Elec       q    Type
REMARK                         _______ _______ _______ _____ _____    ______ ____
ROOT
ATOM      1  C   UNL     1       2.099   4.885  20.784  0.00  0.00    +0.000 C 
ENDROOT
BRANCH   1   5
ATOM      2  C   UNL     1       1.502   8.842  19.428  0.00  0.00    +0.000 A 
ATOM      3  C   UNL     1       2.241   7.951  18.661  0.00  0.00    +0.000 A 
ATOM      4  C   UNL     1       2.512   6.679  19.145  0.00  0.00    +0.000 A 
ATOM      5  N   UNL     1       2.029   6.303  20.355  0.00  0.00    +0.000 N 
ATOM      6  C   UNL     1       1.430   7.206  21.168  0.00  0.00    +0.000 A 
ATOM      7  C   UNL     1       1.131   8.475  20.713  0.00  0.00    +0.000 A 
BRANCH   2   9
ATOM      8  N   UNL     1       0.371  10.100  17.662  0.00  0.00    +0.000 N 
ATOM      9  C   UNL     1       0.970  10.119  18.886  0.00  0.00    +0.000 C 
ATOM     10  O   UNL     1       0.996  11.122  19.589  0.00  0.00    +0.000 OA
ATOM     11  H   UNL     1       0.242  11.011  17.239  0.00  0.00    +0.000 HD
ATOM     12  H   UNL     1       0.588   9.377  16.978  0.00  0.00    +0.000 HD
ENDBRANCH   2   9
ENDBRANCH   1   5
BRANCH   1  13
ATOM     13  O   UNL     1       1.982   4.025  19.634  0.00  0.00    +0.000 OA
BRANCH  13  14
ATOM     14  C   UNL     1       3.036   3.086  19.527  0.00  0.00    +0.000 C 
BRANCH  14  15
ATOM     15  N   UNL     1       4.054   3.614  18.575  0.00  0.00    +0.000 N 
ATOM     16  C   UNL     1       5.210   4.141  19.048  0.00  0.00    +0.000 A 
ATOM     17  C   UNL     1       6.141   4.705  18.182  0.00  0.00    +0.000 A 
ATOM     18  C   UNL     1       5.882   4.715  16.815  0.00  0.00    +0.000 A 
ATOM     19  C   UNL     1       4.720   4.125  16.333  0.00  0.00    +0.000 A 
ATOM     20  C   UNL     1       3.815   3.573  17.238  0.00  0.00    +0.000 A 
BRANCH  18  21
ATOM     21  C   UNL     1       6.816   5.370  15.877  0.00  0.00    +0.000 C 
ATOM     22  N   UNL     1       7.277   4.742  14.845  0.00  0.00    +0.000 NA
BRANCH  22  23
ATOM     23  O   UNL     1       8.152   5.592  14.160  0.00  0.00    +0.000 OA
ATOM     24  H   UNL     1       8.957   5.576  14.713  0.00  0.00    +0.000 HD
ENDBRANCH  22  23
ENDBRANCH  18  21
ENDBRANCH  14  15
ENDBRANCH  13  14
ENDBRANCH   1  13
TORSDOF 7
ENDMDL
MODEL 7
REMARK VINA RESULT:      -6.3      4.539      5.851
REMARK  Name = 
REMARK  7 active torsions:
REMARK  status: ('A' for Active; 'I' for Inactive)
REMARK    1  A    between atoms: C_2  and  C_4
REMARK    2  A    between atoms: N_7  and  C_8
REMARK    3  A    between atoms: C_8  and  O_9
REMARK    4  A    between atoms: O_9  and  C_10
REMARK    5  A    between atoms: C_10  and  N_11
REMARK    6  A    between atoms: C_14  and  C_15
REMARK    7  A    between atoms: N_16  and  O_17
REMARK                            x       y       z     vdW  Elec       q    Type
REMARK                         _______ _______ _______ _____ _____    ______ ____
ROOT
ATOM      1  C   UNL     1       3.278   4.757  19.728  0.00  0.00    +0.000 C 
ENDROOT
BRANCH   1   5
ATOM      2  C   UNL     1       5.816   4.250  16.388  0.00  0.00    +0.000 A 
ATOM      3  C   UNL     1       4.507   3.787  16.340  0.00  0.00    +0.000 A 
ATOM      4  C   UNL     1       3.700   3.875  17.466  0.00  0.00    +0.000 A 
ATOM      5  N   UNL     1       4.186   4.436  18.600  0.00  0.00    +0.000 N 
ATOM      6  C   UNL     1       5.498   4.761  18.700  0.00  0.00    +0.000 A 
ATOM      7  C   UNL     1       6.324   4.701  17.596  0.00  0.00    +0.000 A 
BRANCH   2   9
ATOM      8  N   UNL     1       6.374   3.637  14.087  0.00  0.00    +0.000 N 
ATOM      9  C   UNL     1       6.654   4.413  15.172  0.00  0.00    +0.000 C 
ATOM     10  O   UNL     1       7.499   5.300  15.145  0.00  0.00    +0.000 OA
ATOM     11  H   UNL     1       7.103   3.613  13.385  0.00  0.00    +0.000 HD
ATOM     12  H   UNL     1       5.895   2.744  14.186  0.00  0.00    +0.000 HD
ENDBRANCH   2   9
ENDBRANCH   1   5
BRANCH   1  13
ATOM     13  O   UNL     1       2.204   5.597  19.262  0.00  0.00    +0.000 OA
BRANCH  13  14
ATOM     14  C   UNL     1       2.643   6.852  18.776  0.00  0.00    +0.000 C 
BRANCH  14  15
ATOM     15  N   UNL     1       1.953   7.930  19.540  0.00  0.00    +0.000 N 
ATOM     16  C   UNL     1       1.670   7.752  20.853  0.00  0.00    +0.000 A 
ATOM     17  C   UNL     1       0.963   8.714  21.566  0.00  0.00    +0.000 A 
ATOM     18  C   UNL     1       0.555   9.877  20.920  0.00  0.00    +0.000 A 
ATOM     19  C   UNL     1       0.895  10.077  19.587  0.00  0.00    +0.000 A 
ATOM     20  C   UNL     1       1.603   9.083  18.913  0.00  0.00    +0.000 A 
BRANCH  18  21
ATOM     21  C   UNL     1      -0.259  10.885  21.628  0.00  0.00    +0.000 C 
ATOM     22  N   UNL     1      -0.249  10.966  22.918  0.00  0.00    +0.000 NA
BRANCH  22  23
ATOM     23  O   UNL     1      -1.127  11.983  23.309  0.00  0.00    +0.000 OA
ATOM     24  H   UNL     1      -1.767  11.516  23.881  0.00  0.00    +0.000 HD
ENDBRANCH  22  23
ENDBRANCH  18  21
ENDBRANCH  14  15
ENDBRANCH  13  14
ENDBRANCH   1  13
TORSDOF 7
ENDMDL
MODEL 8
REMARK VINA RESULT:      -6.3      3.921      7.701
REMARK  Name = 
REMARK  7 active torsions:
REMARK  status: ('A' for Active; 'I' for Inactive)
REMARK    1  A    between atoms: C_2  and  C_4
REMARK    2  A    between atoms: N_7  and  C_8
REMARK    3  A    between atoms: C_8  and  O_9
REMARK    4  A    between atoms: O_9  and  C_10
REMARK    5  A    between atoms: C_10  and  N_11
REMARK    6  A    between atoms: C_14  and  C_15
REMARK    7  A    between atoms: N_16  and  O_17
REMARK                            x       y       z     vdW  Elec       q    Type
REMARK                         _______ _______ _______ _____ _____    ______ ____
ROOT
ATOM      1  C   UNL     1       2.549   6.219  20.285  0.00  0.00    +0.000 C 
ENDROOT
BRANCH   1   5
ATOM      2  C   UNL     1       0.830   9.797  18.838  0.00  0.00    +0.000 A 
ATOM      3  C   UNL     1       1.662   9.048  18.017  0.00  0.00    +0.000 A 
ATOM      4  C   UNL     1       2.296   7.920  18.519  0.00  0.00    +0.000 A 
ATOM      5  N   UNL     1       2.078   7.540  19.802  0.00  0.00    +0.000 N 
ATOM      6  C   UNL     1       1.384   8.339  20.648  0.00  0.00    +0.000 A 
ATOM      7  C   UNL     1       0.727   9.459  20.179  0.00  0.00    +0.000 A 
BRANCH   2   9
ATOM      8  N   UNL     1      -1.165  10.490  17.603  0.00  0.00    +0.000 N 
ATOM      9  C   UNL     1      -0.064  10.863  18.316  0.00  0.00    +0.000 C 
ATOM     10  O   UNL     1       0.156  12.029  18.621  0.00  0.00    +0.000 OA
ATOM     11  H   UNL     1      -1.601  11.237  17.077  0.00  0.00    +0.000 HD
ATOM     12  H   UNL     1      -1.203   9.595  17.120  0.00  0.00    +0.000 HD
ENDBRANCH   2   9
ENDBRANCH   1   5
BRANCH   1  13
ATOM     13  O   UNL     1       2.041   5.180  19.426  0.00  0.00    +0.000 OA
BRANCH  13  14
ATOM     14  C   UNL     1       2.808   3.992  19.467  0.00  0.00    +0.000 C 
BRANCH  14  15
ATOM     15  N   UNL     1       3.933   4.113  18.496  0.00  0.00    +0.000 N 
ATOM     16  C   UNL     1       5.188   4.361  18.945  0.00  0.00    +0.000 A 
ATOM     17  C   UNL     1       6.238   4.550  18.053  0.00  0.00    +0.000 A 
ATOM     18  C   UNL     1       5.993   4.470  16.685  0.00  0.00    +0.000 A 
ATOM     19  C   UNL     1       4.715   4.162  16.234  0.00  0.00    +0.000 A 
ATOM     20  C   UNL     1       3.694   3.982  17.166  0.00  0.00    +0.000 A 
BRANCH  18  21
ATOM     21  C   UNL     1       7.070   4.736  15.711  0.00  0.00    +0.000 C 
ATOM     22  N   UNL     1       6.868   5.492  14.681  0.00  0.00    +0.000 NA
BRANCH  22  23
ATOM     23  O   UNL     1       8.046   5.541  13.927  0.00  0.00    +0.000 OA
ATOM     24  H   UNL     1       7.895   4.869  13.234  0.00  0.00    +0.000 HD
ENDBRANCH  22  23
ENDBRANCH  18  21
ENDBRANCH  14  15
ENDBRANCH  13  14
ENDBRANCH   1  13
TORSDOF 7
ENDMDL
MODEL 9
REMARK VINA RESULT:      -6.3      3.368      4.779
REMARK  Name = 
REMARK  7 active torsions:
REMARK  status: ('A' for Active; 'I' for Inactive)
REMARK    1  A    between atoms: C_2  and  C_4
REMARK    2  A    between atoms: N_7  and  C_8
REMARK    3  A    between atoms: C_8  and  O_9
REMARK    4  A    between atoms: O_9  and  C_10
REMARK    5  A    between atoms: C_10  and  N_11
REMARK    6  A    between atoms: C_14  and  C_15
REMARK    7  A    between atoms: N_16  and  O_17
REMARK                            x       y       z     vdW  Elec       q    Type
REMARK                         _______ _______ _______ _____ _____    ______ ____
ROOT
ATOM      1  C   UNL     1       4.633   3.673  18.794  0.00  0.00    +0.000 C 
ENDROOT
BRANCH   1   5
ATOM      2  C   UNL     1       6.505   4.757  15.165  0.00  0.00    +0.000 A 
ATOM      3  C   UNL     1       7.163   4.959  16.371  0.00  0.00    +0.000 A 
ATOM      4  C   UNL     1       6.516   4.685  17.568  0.00  0.00    +0.000 A 
ATOM      5  N   UNL     1       5.251   4.195  17.552  0.00  0.00    +0.000 N 
ATOM      6  C   UNL     1       4.554   4.129  16.392  0.00  0.00    +0.000 A 
ATOM      7  C   UNL     1       5.171   4.379  15.183  0.00  0.00    +0.000 A 
BRANCH   2   9
ATOM      8  N   UNL     1       6.766   3.964  12.866  0.00  0.00    +0.000 N 
ATOM      9  C   UNL     1       7.203   4.795  13.854  0.00  0.00    +0.000 C 
ATOM     10  O   UNL     1       8.078   5.633  13.668  0.00  0.00    +0.000 OA
ATOM     11  H   UNL     1       7.407   3.855  12.090  0.00  0.00    +0.000 HD
ATOM     12  H   UNL     1       6.262   3.106  13.082  0.00  0.00    +0.000 HD
ENDBRANCH   2   9
ENDBRANCH   1   5
BRANCH   1  13
ATOM     13  O   UNL     1       3.307   4.217  18.942  0.00  0.00    +0.000 OA
BRANCH  13  14
ATOM     14  C   UNL     1       3.172   5.069  20.064  0.00  0.00    +0.000 C 
BRANCH  14  15
ATOM     15  N   UNL     1       2.711   6.408  19.597  0.00  0.00    +0.000 N 
ATOM     16  C   UNL     1       1.983   7.197  20.424  0.00  0.00    +0.000 A 
ATOM     17  C   UNL     1       1.483   8.417  19.984  0.00  0.00    +0.000 A 
ATOM     18  C   UNL     1       1.746   8.833  18.682  0.00  0.00    +0.000 A 
ATOM     19  C   UNL     1       2.538   8.043  17.857  0.00  0.00    +0.000 A 
ATOM     20  C   UNL     1       3.017   6.826  18.341  0.00  0.00    +0.000 A 
BRANCH  18  21
ATOM     21  C   UNL     1       1.169  10.088  18.161  0.00  0.00    +0.000 C 
ATOM     22  N   UNL     1       1.078  11.141  18.907  0.00  0.00    +0.000 NA
BRANCH  22  23
ATOM     23  O   UNL     1       0.472  12.161  18.164  0.00  0.00    +0.000 OA
ATOM     24  H   UNL     1       0.365  11.759  17.280  0.00  0.00    +0.000 HD
ENDBRANCH  22  23
ENDBRANCH  18  21
ENDBRANCH  14  15
ENDBRANCH  13  14
ENDBRANCH   1  13
TORSDOF 7
ENDMDL
