MODEL 1
REMARK VINA RESULT:      -7.8      0.000      0.000
REMARK  Name = 
REMARK  8 active torsions:
REMARK  status: ('A' for Active; 'I' for Inactive)
REMARK    1  A    between atoms: O_1  and  C_2
REMARK    2  A    between atoms: C_2  and  C_3
REMARK    3  A    between atoms: C_2  and  C_22
REMARK    4  A    between atoms: C_3  and  N_4
REMARK    5  A    between atoms: N_4  and  C_5
REMARK    6  A    between atoms: C_5  and  C_6
REMARK    7  A    between atoms: C_10  and  C_11
REMARK    8  A    between atoms: C_14  and  C_15
REMARK                            x       y       z     vdW  Elec       q    Type
REMARK                         _______ _______ _______ _____ _____    ______ ____
ROOT
ATOM      1  C   UNL     1       5.023   5.068  19.258  0.00  0.00    +0.000 A 
ATOM      2  C   UNL     1       4.402   3.858  19.490  0.00  0.00    +0.000 A 
ATOM      3  C   UNL     1       3.030   3.896  19.604  0.00  0.00    +0.000 A 
ATOM      4  N   UNL     1       2.302   5.024  19.510  0.00  0.00    +0.000 NA
ATOM      5  C   UNL     1       2.987   6.159  19.276  0.00  0.00    +0.000 A 
ATOM      6  N   UNL     1       4.321   6.214  19.124  0.00  0.00    +0.000 NA
ENDROOT
BRANCH   5   7
ATOM      7  C   UNL     1       2.251   7.434  19.196  0.00  0.00    +0.000 A 
ATOM      8  C   UNL     1       2.132   8.145  17.991  0.00  0.00    +0.000 A 
ATOM      9  C   UNL     1       1.424   9.351  17.920  0.00  0.00    +0.000 A 
ATOM     10  C   UNL     1       0.809   9.886  19.059  0.00  0.00    +0.000 A 
ATOM     11  C   UNL     1       0.917   9.190  20.270  0.00  0.00    +0.000 A 
ATOM     12  C   UNL     1       1.623   7.986  20.332  0.00  0.00    +0.000 A 
BRANCH  10  13
ATOM     13  C   UNL     1       0.042  11.180  19.001  0.00  0.00    +0.000 C 
ATOM     14  F   UNL     1      -1.048  11.132  18.183  0.00  0.00    +0.000 F 
ATOM     15  F   UNL     1      -0.427  11.564  20.220  0.00  0.00    +0.000 F 
ATOM     16  F   UNL     1       0.800  12.218  18.548  0.00  0.00    +0.000 F 
ENDBRANCH  10  13
ENDBRANCH   5   7
BRANCH   1  17
ATOM     17  C   UNL     1       6.539   5.149  19.158  0.00  0.00    +0.000 C 
BRANCH  17  18
ATOM     18  N   UNL     1       6.981   5.672  17.857  0.00  0.00    +0.000 NA
ATOM     19  H   UNL     1       6.223   6.247  17.494  0.00  0.00    +0.000 HD
BRANCH  18  20
ATOM     20  C   UNL     1       7.306   4.597  16.913  0.00  0.00    +0.000 C 
BRANCH  20  21
ATOM     21  C   UNL     1       6.103   4.296  15.991  0.00  0.00    +0.000 C 
BRANCH  21  22
ATOM     22  C   UNL     1       6.504   4.331  14.532  0.00  0.00    +0.000 A 
ATOM     23  C   UNL     1       5.856   3.493  13.611  0.00  0.00    +0.000 A 
ATOM     24  C   UNL     1       6.213   3.513  12.261  0.00  0.00    +0.000 A 
ATOM     25  C   UNL     1       7.212   4.376  11.816  0.00  0.00    +0.000 A 
ATOM     26  C   UNL     1       7.850   5.226  12.716  0.00  0.00    +0.000 A 
ATOM     27  C   UNL     1       7.494   5.207  14.066  0.00  0.00    +0.000 A 
ENDBRANCH  21  22
BRANCH  21  28
ATOM     28  O   UNL     1       5.557   3.011  16.317  0.00  0.00    +0.000 OA
ATOM     29  H   UNL     1       5.000   2.772  15.556  0.00  0.00    +0.000 HD
ENDBRANCH  21  28
ENDBRANCH  20  21
ENDBRANCH  18  20
ENDBRANCH  17  18
ENDBRANCH   1  17
TORSDOF 8
ENDMDL
MODEL 2
REMARK VINA RESULT:      -7.7      1.037      1.165
REMARK  Name = 
REMARK  8 active torsions:
REMARK  status: ('A' for Active; 'I' for Inactive)
REMARK    1  A    between atoms: O_1  and  C_2
REMARK    2  A    between atoms: C_2  and  C_3
REMARK    3  A    between atoms: C_2  and  C_22
REMARK    4  A    between atoms: C_3  and  N_4
REMARK    5  A    between atoms: N_4  and  C_5
REMARK    6  A    between atoms: C_5  and  C_6
REMARK    7  A    between atoms: C_10  and  C_11
REMARK    8  A    between atoms: C_14  and  C_15
REMARK                            x       y       z     vdW  Elec       q    Type
REMARK                         _______ _______ _______ _____ _____    ______ ____
ROOT
ATOM      1  C   UNL     1       4.541   4.952  19.360  0.00  0.00    +0.000 A 
ATOM      2  C   UNL     1       3.801   3.803  19.550  0.00  0.00    +0.000 A 
ATOM      3  C   UNL     1       2.442   3.976  19.689  0.00  0.00    +0.000 A 
ATOM      4  N   UNL     1       1.833   5.176  19.657  0.00  0.00    +0.000 NA
ATOM      5  C   UNL     1       2.629   6.244  19.460  0.00  0.00    +0.000 A 
ATOM      6  N   UNL     1       3.959   6.169  19.288  0.00  0.00    +0.000 NA
ENDROOT
BRANCH   5   7
ATOM      7  C   UNL     1       2.026   7.590  19.449  0.00  0.00    +0.000 A 
ATOM      8  C   UNL     1       1.983   8.370  18.282  0.00  0.00    +0.000 A 
ATOM      9  C   UNL     1       1.402   9.644  18.276  0.00  0.00    +0.000 A 
ATOM     10  C   UNL     1       0.843  10.179  19.443  0.00  0.00    +0.000 A 
ATOM     11  C   UNL     1       0.877   9.415  20.616  0.00  0.00    +0.000 A 
ATOM     12  C   UNL     1       1.456   8.143  20.614  0.00  0.00    +0.000 A 
BRANCH  10  13
ATOM     13  C   UNL     1       0.211  11.547  19.454  0.00  0.00    +0.000 C 
ATOM     14  F   UNL     1       0.532  12.305  18.367  0.00  0.00    +0.000 F 
ATOM     15  F   UNL     1      -1.149  11.493  19.479  0.00  0.00    +0.000 F 
ATOM     16  F   UNL     1       0.577  12.283  20.541  0.00  0.00    +0.000 F 
ENDBRANCH  10  13
ENDBRANCH   5   7
BRANCH   1  17
ATOM     17  C   UNL     1       6.056   4.882  19.238  0.00  0.00    +0.000 C 
BRANCH  17  18
ATOM     18  N   UNL     1       6.482   4.040  18.111  0.00  0.00    +0.000 NA
ATOM     19  H   UNL     1       7.499   3.990  18.145  0.00  0.00    +0.000 HD
BRANCH  18  20
ATOM     20  C   UNL     1       6.039   4.580  16.821  0.00  0.00    +0.000 C 
BRANCH  20  21
ATOM     21  C   UNL     1       7.248   5.031  15.971  0.00  0.00    +0.000 C 
BRANCH  21  22
ATOM     22  C   UNL     1       7.055   4.686  14.511  0.00  0.00    +0.000 A 
ATOM     23  C   UNL     1       6.062   3.766  14.137  0.00  0.00    +0.000 A 
ATOM     24  C   UNL     1       5.870   3.437  12.793  0.00  0.00    +0.000 A 
ATOM     25  C   UNL     1       6.659   4.029  11.810  0.00  0.00    +0.000 A 
ATOM     26  C   UNL     1       7.635   4.956  12.165  0.00  0.00    +0.000 A 
ATOM     27  C   UNL     1       7.829   5.287  13.508  0.00  0.00    +0.000 A 
ENDBRANCH  21  22
BRANCH  21  28
ATOM     28  O   UNL     1       7.440   6.444  16.118  0.00  0.00    +0.000 OA
ATOM     29  H   UNL     1       7.814   6.557  17.009  0.00  0.00    +0.000 HD
ENDBRANCH  21  28
ENDBRANCH  20  21
ENDBRANCH  18  20
ENDBRANCH  17  18
ENDBRANCH   1  17
TORSDOF 8
ENDMDL
MODEL 3
REMARK VINA RESULT:      -7.7      1.805      3.246
REMARK  Name = 
REMARK  8 active torsions:
REMARK  status: ('A' for Active; 'I' for Inactive)
REMARK    1  A    between atoms: O_1  and  C_2
REMARK    2  A    between atoms: C_2  and  C_3
REMARK    3  A    between atoms: C_2  and  C_22
REMARK    4  A    between atoms: C_3  and  N_4
REMARK    5  A    between atoms: N_4  and  C_5
REMARK    6  A    between atoms: C_5  and  C_6
REMARK    7  A    between atoms: C_10  and  C_11
REMARK    8  A    between atoms: C_14  and  C_15
REMARK                            x       y       z     vdW  Elec       q    Type
REMARK                         _______ _______ _______ _____ _____    ______ ____
ROOT
ATOM      1  C   UNL     1       3.558   3.765  18.468  0.00  0.00    +0.000 A 
ATOM      2  C   UNL     1       3.409   3.047  19.637  0.00  0.00    +0.000 A 
ATOM      3  C   UNL     1       2.812   3.714  20.682  0.00  0.00    +0.000 A 
ATOM      4  N   UNL     1       2.393   4.992  20.614  0.00  0.00    +0.000 NA
ATOM      5  C   UNL     1       2.571   5.616  19.435  0.00  0.00    +0.000 A 
ATOM      6  N   UNL     1       3.119   5.037  18.353  0.00  0.00    +0.000 NA
ENDROOT
BRANCH   5   7
ATOM      7  C   UNL     1       2.163   7.027  19.306  0.00  0.00    +0.000 A 
ATOM      8  C   UNL     1       1.542   7.716  20.360  0.00  0.00    +0.000 A 
ATOM      9  C   UNL     1       1.165   9.059  20.234  0.00  0.00    +0.000 A 
ATOM     10  C   UNL     1       1.399   9.757  19.042  0.00  0.00    +0.000 A 
ATOM     11  C   UNL     1       2.017   9.085  17.980  0.00  0.00    +0.000 A 
ATOM     12  C   UNL     1       2.393   7.746  18.115  0.00  0.00    +0.000 A 
BRANCH  10  13
ATOM     13  C   UNL     1       1.002  11.202  18.889  0.00  0.00    +0.000 C 
ATOM     14  F   UNL     1      -0.197  11.375  18.264  0.00  0.00    +0.000 F 
ATOM     15  F   UNL     1       0.892  11.842  20.086  0.00  0.00    +0.000 F 
ATOM     16  F   UNL     1       1.906  11.918  18.164  0.00  0.00    +0.000 F 
ENDBRANCH  10  13
ENDBRANCH   5   7
BRANCH   1  17
ATOM     17  C   UNL     1       4.244   3.140  17.262  0.00  0.00    +0.000 C 
BRANCH  17  18
ATOM     18  N   UNL     1       4.488   4.120  16.194  0.00  0.00    +0.000 NA
ATOM     19  H   UNL     1       3.733   4.018  15.518  0.00  0.00    +0.000 HD
BRANCH  18  20
ATOM     20  C   UNL     1       5.787   3.915  15.545  0.00  0.00    +0.000 C 
BRANCH  20  21
ATOM     21  C   UNL     1       6.555   5.250  15.419  0.00  0.00    +0.000 C 
BRANCH  21  22
ATOM     22  C   UNL     1       7.141   5.677  16.746  0.00  0.00    +0.000 A 
ATOM     23  C   UNL     1       7.319   7.042  17.023  0.00  0.00    +0.000 A 
ATOM     24  C   UNL     1       7.858   7.454  18.244  0.00  0.00    +0.000 A 
ATOM     25  C   UNL     1       8.215   6.509  19.203  0.00  0.00    +0.000 A 
ATOM     26  C   UNL     1       8.026   5.153  18.949  0.00  0.00    +0.000 A 
ATOM     27  C   UNL     1       7.488   4.739  17.729  0.00  0.00    +0.000 A 
ENDBRANCH  21  22
BRANCH  21  28
ATOM     28  O   UNL     1       7.598   5.115  14.444  0.00  0.00    +0.000 OA
ATOM     29  H   UNL     1       8.424   5.110  14.957  0.00  0.00    +0.000 HD
ENDBRANCH  21  28
ENDBRANCH  20  21
ENDBRANCH  18  20
ENDBRANCH  17  18
ENDBRANCH   1  17
TORSDOF 8
ENDMDL
MODEL 4
REMARK VINA RESULT:      -7.7      2.995      4.593
REMARK  Name = 
REMARK  8 active torsions:
REMARK  status: ('A' for Active; 'I' for Inactive)
REMARK    1  A    between atoms: O_1  and  C_2
REMARK    2  A    between atoms: C_2  and  C_3
REMARK    3  A    between atoms: C_2  and  C_22
REMARK    4  A    between atoms: C_3  and  N_4
REMARK    5  A    between atoms: N_4  and  C_5
REMARK    6  A    between atoms: C_5  and  C_6
REMARK    7  A    between atoms: C_10  and  C_11
REMARK    8  A    between atoms: C_14  and  C_15
REMARK                            x       y       z     vdW  Elec       q    Type
REMARK                         _______ _______ _______ _____ _____    ______ ____
ROOT
ATOM      1  C   UNL     1       1.753   5.997  20.365  0.00  0.00    +0.000 A 
ATOM      2  C   UNL     1       2.506   6.229  19.232  0.00  0.00    +0.000 A 
ATOM      3  C   UNL     1       2.518   7.526  18.770  0.00  0.00    +0.000 A 
ATOM      4  N   UNL     1       1.844   8.535  19.353  0.00  0.00    +0.000 NA
ATOM      5  C   UNL     1       1.140   8.222  20.457  0.00  0.00    +0.000 A 
ATOM      6  N   UNL     1       1.091   6.992  20.995  0.00  0.00    +0.000 NA
ENDROOT
BRANCH   5   7
ATOM      7  C   UNL     1       0.352   9.276  21.123  0.00  0.00    +0.000 A 
ATOM      8  C   UNL     1       0.089   9.242  22.502  0.00  0.00    +0.000 A 
ATOM      9  C   UNL     1      -0.653  10.250  23.130  0.00  0.00    +0.000 A 
ATOM     10  C   UNL     1      -1.157  11.330  22.393  0.00  0.00    +0.000 A 
ATOM     11  C   UNL     1      -0.904  11.380  21.016  0.00  0.00    +0.000 A 
ATOM     12  C   UNL     1      -0.161  10.371  20.398  0.00  0.00    +0.000 A 
BRANCH  10  13
ATOM     13  C   UNL     1      -1.955  12.424  23.052  0.00  0.00    +0.000 C 
ATOM     14  F   UNL     1      -2.870  11.966  23.952  0.00  0.00    +0.000 F 
ATOM     15  F   UNL     1      -1.170  13.303  23.735  0.00  0.00    +0.000 F 
ATOM     16  F   UNL     1      -2.658  13.171  22.155  0.00  0.00    +0.000 F 
ENDBRANCH  10  13
ENDBRANCH   5   7
BRANCH   1  17
ATOM     17  C   UNL     1       1.634   4.593  20.936  0.00  0.00    +0.000 C 
BRANCH  17  18
ATOM     18  N   UNL     1       2.058   3.565  19.974  0.00  0.00    +0.000 NA
ATOM     19  H   UNL     1       1.259   2.950  19.825  0.00  0.00    +0.000 HD
BRANCH  18  20
ATOM     20  C   UNL     1       3.211   2.799  20.458  0.00  0.00    +0.000 C 
BRANCH  20  21
ATOM     21  C   UNL     1       4.065   2.288  19.277  0.00  0.00    +0.000 C 
BRANCH  21  22
ATOM     22  C   UNL     1       4.625   3.434  18.464  0.00  0.00    +0.000 A 
ATOM     23  C   UNL     1       5.473   4.373  19.075  0.00  0.00    +0.000 A 
ATOM     24  C   UNL     1       5.999   5.437  18.340  0.00  0.00    +0.000 A 
ATOM     25  C   UNL     1       5.693   5.570  16.987  0.00  0.00    +0.000 A 
ATOM     26  C   UNL     1       4.869   4.636  16.365  0.00  0.00    +0.000 A 
ATOM     27  C   UNL     1       4.341   3.571  17.098  0.00  0.00    +0.000 A 
ENDBRANCH  21  22
BRANCH  21  28
ATOM     28  O   UNL     1       5.135   1.472  19.773  0.00  0.00    +0.000 OA
ATOM     29  H   UNL     1       5.222   1.712  20.711  0.00  0.00    +0.000 HD
ENDBRANCH  21  28
ENDBRANCH  20  21
ENDBRANCH  18  20
ENDBRANCH  17  18
ENDBRANCH   1  17
TORSDOF 8
ENDMDL
MODEL 5
REMARK VINA RESULT:      -7.7      3.097      4.660
REMARK  Name = 
REMARK  8 active torsions:
REMARK  status: ('A' for Active; 'I' for Inactive)
REMARK    1  A    between atoms: O_1  and  C_2
REMARK    2  A    between atoms: C_2  and  C_3
REMARK    3  A    between atoms: C_2  and  C_22
REMARK    4  A    between atoms: C_3  and  N_4
REMARK    5  A    between atoms: N_4  and  C_5
REMARK    6  A    between atoms: C_5  and  C_6
REMARK    7  A    between atoms: C_10  and  C_11
REMARK    8  A    between atoms: C_14  and  C_15
REMARK                            x       y       z     vdW  Elec       q    Type
REMARK                         _______ _______ _______ _____ _____    ______ ____
ROOT
ATOM      1  C   UNL     1       2.118   7.161  19.529  0.00  0.00    +0.000 A 
ATOM      2  C   UNL     1       2.576   7.568  18.293  0.00  0.00    +0.000 A 
ATOM      3  C   UNL     1       2.219   8.839  17.905  0.00  0.00    +0.000 A 
ATOM      4  N   UNL     1       1.463   9.666  18.652  0.00  0.00    +0.000 NA
ATOM      5  C   UNL     1       1.064   9.192  19.847  0.00  0.00    +0.000 A 
ATOM      6  N   UNL     1       1.386   7.976  20.320  0.00  0.00    +0.000 NA
ENDROOT
BRANCH   5   7
ATOM      7  C   UNL     1       0.205  10.037  20.698  0.00  0.00    +0.000 A 
ATOM      8  C   UNL     1      -0.013   9.739  22.053  0.00  0.00    +0.000 A 
ATOM      9  C   UNL     1      -0.824  10.549  22.858  0.00  0.00    +0.000 A 
ATOM     10  C   UNL     1      -1.443  11.689  22.328  0.00  0.00    +0.000 A 
ATOM     11  C   UNL     1      -1.237  12.001  20.979  0.00  0.00    +0.000 A 
ATOM     12  C   UNL     1      -0.424  11.188  20.183  0.00  0.00    +0.000 A 
BRANCH  10  13
ATOM     13  C   UNL     1      -2.316  12.573  23.180  0.00  0.00    +0.000 C 
ATOM     14  F   UNL     1      -3.114  11.884  24.044  0.00  0.00    +0.000 F 
ATOM     15  F   UNL     1      -1.593  13.434  23.950  0.00  0.00    +0.000 F 
ATOM     16  F   UNL     1      -3.155  13.349  22.439  0.00  0.00    +0.000 F 
ENDBRANCH  10  13
ENDBRANCH   5   7
BRANCH   1  17
ATOM     17  C   UNL     1       2.416   5.759  20.039  0.00  0.00    +0.000 C 
BRANCH  17  18
ATOM     18  N   UNL     1       3.855   5.461  20.030  0.00  0.00    +0.000 NA
ATOM     19  H   UNL     1       4.323   6.266  19.618  0.00  0.00    +0.000 HD
BRANCH  18  20
ATOM     20  C   UNL     1       4.161   4.245  19.268  0.00  0.00    +0.000 C 
BRANCH  20  21
ATOM     21  C   UNL     1       4.727   4.599  17.875  0.00  0.00    +0.000 C 
BRANCH  21  22
ATOM     22  C   UNL     1       5.881   5.571  17.978  0.00  0.00    +0.000 A 
ATOM     23  C   UNL     1       6.925   5.320  18.884  0.00  0.00    +0.000 A 
ATOM     24  C   UNL     1       7.999   6.206  18.992  0.00  0.00    +0.000 A 
ATOM     25  C   UNL     1       8.047   7.345  18.191  0.00  0.00    +0.000 A 
ATOM     26  C   UNL     1       7.028   7.596  17.276  0.00  0.00    +0.000 A 
ATOM     27  C   UNL     1       5.954   6.711  17.167  0.00  0.00    +0.000 A 
ENDBRANCH  21  22
BRANCH  21  28
ATOM     28  O   UNL     1       5.153   3.402  17.210  0.00  0.00    +0.000 OA
ATOM     29  H   UNL     1       5.497   3.699  16.351  0.00  0.00    +0.000 HD
ENDBRANCH  21  28
ENDBRANCH  20  21
ENDBRANCH  18  20
ENDBRANCH  17  18
ENDBRANCH   1  17
TORSDOF 8
ENDMDL
MODEL 6
REMARK VINA RESULT:      -7.7      3.098      4.666
REMARK  Name = 
REMARK  8 active torsions:
REMARK  status: ('A' for Active; 'I' for Inactive)
REMARK    1  A    between atoms: O_1  and  C_2
REMARK    2  A    between atoms: C_2  and  C_3
REMARK    3  A    between atoms: C_2  and  C_22
REMARK    4  A    between atoms: C_3  and  N_4
REMARK    5  A    between atoms: N_4  and  C_5
REMARK    6  A    between atoms: C_5  and  C_6
REMARK    7  A    between atoms: C_10  and  C_11
REMARK    8  A    between atoms: C_14  and  C_15
REMARK                            x       y       z     vdW  Elec       q    Type
REMARK                         _______ _______ _______ _____ _____    ______ ____
ROOT
ATOM      1  C   UNL     1       2.095   7.370  19.581  0.00  0.00    +0.000 A 
ATOM      2  C   UNL     1       2.529   7.762  18.332  0.00  0.00    +0.000 A 
ATOM      3  C   UNL     1       2.121   9.009  17.915  0.00  0.00    +0.000 A 
ATOM      4  N   UNL     1       1.338   9.825  18.646  0.00  0.00    +0.000 NA
ATOM      5  C   UNL     1       0.966   9.366  19.856  0.00  0.00    +0.000 A 
ATOM      6  N   UNL     1       1.337   8.176  20.356  0.00  0.00    +0.000 NA
ENDROOT
BRANCH   5   7
ATOM      7  C   UNL     1       0.081  10.198  20.692  0.00  0.00    +0.000 A 
ATOM      8  C   UNL     1      -0.653  11.268  20.154  0.00  0.00    +0.000 A 
ATOM      9  C   UNL     1      -1.497  12.050  20.952  0.00  0.00    +0.000 A 
ATOM     10  C   UNL     1      -1.635  11.782  22.321  0.00  0.00    +0.000 A 
ATOM     11  C   UNL     1      -0.911  10.719  22.874  0.00  0.00    +0.000 A 
ATOM     12  C   UNL     1      -0.072   9.942  22.070  0.00  0.00    +0.000 A 
BRANCH  10  13
ATOM     13  C   UNL     1      -2.541  12.610  23.194  0.00  0.00    +0.000 C 
ATOM     14  F   UNL     1      -3.329  11.868  24.022  0.00  0.00    +0.000 F 
ATOM     15  F   UNL     1      -1.851  13.461  24.003  0.00  0.00    +0.000 F 
ATOM     16  F   UNL     1      -3.394  13.390  22.471  0.00  0.00    +0.000 F 
ENDBRANCH  10  13
ENDBRANCH   5   7
BRANCH   1  17
ATOM     17  C   UNL     1       2.450   5.994  20.123  0.00  0.00    +0.000 C 
BRANCH  17  18
ATOM     18  N   UNL     1       3.829   5.607  19.792  0.00  0.00    +0.000 NA
ATOM     19  H   UNL     1       4.241   6.384  19.278  0.00  0.00    +0.000 HD
BRANCH  18  20
ATOM     20  C   UNL     1       3.880   4.379  18.992  0.00  0.00    +0.000 C 
BRANCH  20  21
ATOM     21  C   UNL     1       4.639   4.619  17.667  0.00  0.00    +0.000 C 
BRANCH  21  22
ATOM     22  C   UNL     1       5.831   5.528  17.871  0.00  0.00    +0.000 A 
ATOM     23  C   UNL     1       5.924   6.728  17.147  0.00  0.00    +0.000 A 
ATOM     24  C   UNL     1       7.017   7.579  17.323  0.00  0.00    +0.000 A 
ATOM     25  C   UNL     1       8.021   7.247  18.229  0.00  0.00    +0.000 A 
ATOM     26  C   UNL     1       7.932   6.069  18.968  0.00  0.00    +0.000 A 
ATOM     27  C   UNL     1       6.840   5.217  18.793  0.00  0.00    +0.000 A 
ENDBRANCH  21  22
BRANCH  21  28
ATOM     28  O   UNL     1       5.069   3.363  17.125  0.00  0.00    +0.000 OA
ATOM     29  H   UNL     1       5.999   3.275  17.396  0.00  0.00    +0.000 HD
ENDBRANCH  21  28
ENDBRANCH  20  21
ENDBRANCH  18  20
ENDBRANCH  17  18
ENDBRANCH   1  17
TORSDOF 8
ENDMDL
MODEL 7
REMARK VINA RESULT:      -7.6      1.888      3.076
REMARK  Name = 
REMARK  8 active torsions:
REMARK  status: ('A' for Active; 'I' for Inactive)
REMARK    1  A    between atoms: O_1  and  C_2
REMARK    2  A    between atoms: C_2  and  C_3
REMARK    3  A    between atoms: C_2  and  C_22
REMARK    4  A    between atoms: C_3  and  N_4
REMARK    5  A    between atoms: N_4  and  C_5
REMARK    6  A    between atoms: C_5  and  C_6
REMARK    7  A    between atoms: C_10  and  C_11
REMARK    8  A    between atoms: C_14  and  C_15
REMARK                            x       y       z     vdW  Elec       q    Type
REMARK                         _______ _______ _______ _____ _____    ______ ____
ROOT
ATOM      1  C   UNL     1       3.228   3.648  18.856  0.00  0.00    +0.000 A 
ATOM      2  C   UNL     1       3.066   2.946  20.033  0.00  0.00    +0.000 A 
ATOM      3  C   UNL     1       2.512   3.645  21.081  0.00  0.00    +0.000 A 
ATOM      4  N   UNL     1       2.145   4.938  21.009  0.00  0.00    +0.000 NA
ATOM      5  C   UNL     1       2.332   5.545  19.822  0.00  0.00    +0.000 A 
ATOM      6  N   UNL     1       2.840   4.936  18.737  0.00  0.00    +0.000 NA
ENDROOT
BRANCH   5   7
ATOM      7  C   UNL     1       1.981   6.971  19.687  0.00  0.00    +0.000 A 
ATOM      8  C   UNL     1       2.205   7.678  18.495  0.00  0.00    +0.000 A 
ATOM      9  C   UNL     1       1.863   9.030  18.371  0.00  0.00    +0.000 A 
ATOM     10  C   UNL     1       1.281   9.720  19.443  0.00  0.00    +0.000 A 
ATOM     11  C   UNL     1       1.051   9.031  20.640  0.00  0.00    +0.000 A 
ATOM     12  C   UNL     1       1.393   7.681  20.755  0.00  0.00    +0.000 A 
BRANCH  10  13
ATOM     13  C   UNL     1       0.904  11.174  19.326  0.00  0.00    +0.000 C 
ATOM     14  F   UNL     1       1.444  11.792  18.238  0.00  0.00    +0.000 F 
ATOM     15  F   UNL     1      -0.442  11.357  19.226  0.00  0.00    +0.000 F 
ATOM     16  F   UNL     1       1.302  11.905  20.404  0.00  0.00    +0.000 F 
ENDBRANCH  10  13
ENDBRANCH   5   7
BRANCH   1  17
ATOM     17  C   UNL     1       3.870   2.986  17.646  0.00  0.00    +0.000 C 
BRANCH  17  18
ATOM     18  N   UNL     1       4.247   3.964  16.615  0.00  0.00    +0.000 NA
ATOM     19  H   UNL     1       3.531   3.924  15.891  0.00  0.00    +0.000 HD
BRANCH  18  20
ATOM     20  C   UNL     1       5.569   3.681  16.045  0.00  0.00    +0.000 C 
BRANCH  20  21
ATOM     21  C   UNL     1       6.263   4.986  15.597  0.00  0.00    +0.000 C 
BRANCH  21  22
ATOM     22  C   UNL     1       6.937   5.680  16.760  0.00  0.00    +0.000 A 
ATOM     23  C   UNL     1       7.387   4.927  17.856  0.00  0.00    +0.000 A 
ATOM     24  C   UNL     1       8.012   5.551  18.937  0.00  0.00    +0.000 A 
ATOM     25  C   UNL     1       8.203   6.931  18.931  0.00  0.00    +0.000 A 
ATOM     26  C   UNL     1       7.778   7.688  17.843  0.00  0.00    +0.000 A 
ATOM     27  C   UNL     1       7.153   7.065  16.760  0.00  0.00    +0.000 A 
ENDBRANCH  21  22
BRANCH  21  28
ATOM     28  O   UNL     1       7.227   4.693  14.577  0.00  0.00    +0.000 OA
ATOM     29  H   UNL     1       7.509   3.779  14.751  0.00  0.00    +0.000 HD
ENDBRANCH  21  28
ENDBRANCH  20  21
ENDBRANCH  18  20
ENDBRANCH  17  18
ENDBRANCH   1  17
TORSDOF 8
ENDMDL
MODEL 8
REMARK VINA RESULT:      -7.6      1.399      1.930
REMARK  Name = 
REMARK  8 active torsions:
REMARK  status: ('A' for Active; 'I' for Inactive)
REMARK    1  A    between atoms: O_1  and  C_2
REMARK    2  A    between atoms: C_2  and  C_3
REMARK    3  A    between atoms: C_2  and  C_22
REMARK    4  A    between atoms: C_3  and  N_4
REMARK    5  A    between atoms: N_4  and  C_5
REMARK    6  A    between atoms: C_5  and  C_6
REMARK    7  A    between atoms: C_10  and  C_11
REMARK    8  A    between atoms: C_14  and  C_15
REMARK                            x       y       z     vdW  Elec       q    Type
REMARK                         _______ _______ _______ _____ _____    ______ ____
ROOT
ATOM      1  C   UNL     1       3.134   4.258  18.730  0.00  0.00    +0.000 A 
ATOM      2  C   UNL     1       2.888   3.590  19.911  0.00  0.00    +0.000 A 
ATOM      3  C   UNL     1       2.285   4.325  20.906  0.00  0.00    +0.000 A 
ATOM      4  N   UNL     1       1.946   5.622  20.779  0.00  0.00    +0.000 NA
ATOM      5  C   UNL     1       2.215   6.194  19.591  0.00  0.00    +0.000 A 
ATOM      6  N   UNL     1       2.776   5.549  18.555  0.00  0.00    +0.000 NA
ENDROOT
BRANCH   5   7
ATOM      7  C   UNL     1       1.898   7.622  19.400  0.00  0.00    +0.000 A 
ATOM      8  C   UNL     1       2.147   8.277  18.183  0.00  0.00    +0.000 A 
ATOM      9  C   UNL     1       1.837   9.631  18.005  0.00  0.00    +0.000 A 
ATOM     10  C   UNL     1       1.264  10.375  19.045  0.00  0.00    +0.000 A 
ATOM     11  C   UNL     1       1.010   9.738  20.266  0.00  0.00    +0.000 A 
ATOM     12  C   UNL     1       1.320   8.385  20.435  0.00  0.00    +0.000 A 
BRANCH  10  13
ATOM     13  C   UNL     1       0.922  11.831  18.870  0.00  0.00    +0.000 C 
ATOM     14  F   UNL     1       0.863  12.523  20.044  0.00  0.00    +0.000 F 
ATOM     15  F   UNL     1       1.827  12.491  18.096  0.00  0.00    +0.000 F 
ATOM     16  F   UNL     1      -0.288  12.015  18.270  0.00  0.00    +0.000 F 
ENDBRANCH  10  13
ENDBRANCH   5   7
BRANCH   1  17
ATOM     17  C   UNL     1       3.836   3.555  17.578  0.00  0.00    +0.000 C 
BRANCH  17  18
ATOM     18  N   UNL     1       5.257   3.922  17.489  0.00  0.00    +0.000 NA
ATOM     19  H   UNL     1       5.570   4.132  18.435  0.00  0.00    +0.000 HD
BRANCH  18  20
ATOM     20  C   UNL     1       5.473   5.076  16.609  0.00  0.00    +0.000 C 
BRANCH  20  21
ATOM     21  C   UNL     1       6.900   5.055  16.017  0.00  0.00    +0.000 C 
BRANCH  21  22
ATOM     22  C   UNL     1       6.881   4.714  14.543  0.00  0.00    +0.000 A 
ATOM     23  C   UNL     1       7.762   5.365  13.665  0.00  0.00    +0.000 A 
ATOM     24  C   UNL     1       7.758   5.063  12.302  0.00  0.00    +0.000 A 
ATOM     25  C   UNL     1       6.882   4.100  11.804  0.00  0.00    +0.000 A 
ATOM     26  C   UNL     1       6.016   3.434  12.666  0.00  0.00    +0.000 A 
ATOM     27  C   UNL     1       6.018   3.735  14.030  0.00  0.00    +0.000 A 
ENDBRANCH  21  22
BRANCH  21  28
ATOM     28  O   UNL     1       7.523   6.331  16.216  0.00  0.00    +0.000 OA
ATOM     29  H   UNL     1       8.371   6.134  16.647  0.00  0.00    +0.000 HD
ENDBRANCH  21  28
ENDBRANCH  20  21
ENDBRANCH  18  20
ENDBRANCH  17  18
ENDBRANCH   1  17
TORSDOF 8
ENDMDL
MODEL 9
REMARK VINA RESULT:      -7.6      1.359      1.893
REMARK  Name = 
REMARK  8 active torsions:
REMARK  status: ('A' for Active; 'I' for Inactive)
REMARK    1  A    between atoms: O_1  and  C_2
REMARK    2  A    between atoms: C_2  and  C_3
REMARK    3  A    between atoms: C_2  and  C_22
REMARK    4  A    between atoms: C_3  and  N_4
REMARK    5  A    between atoms: N_4  and  C_5
REMARK    6  A    between atoms: C_5  and  C_6
REMARK    7  A    between atoms: C_10  and  C_11
REMARK    8  A    between atoms: C_14  and  C_15
REMARK                            x       y       z     vdW  Elec       q    Type
REMARK                         _______ _______ _______ _____ _____    ______ ____
ROOT
ATOM      1  C   UNL     1       3.210   3.896  18.945  0.00  0.00    +0.000 A 
ATOM      2  C   UNL     1       2.969   3.242  20.135  0.00  0.00    +0.000 A 
ATOM      3  C   UNL     1       2.359   3.986  21.120  0.00  0.00    +0.000 A 
ATOM      4  N   UNL     1       2.012   5.278  20.976  0.00  0.00    +0.000 NA
ATOM      5  C   UNL     1       2.278   5.837  19.780  0.00  0.00    +0.000 A 
ATOM      6  N   UNL     1       2.844   5.182  18.753  0.00  0.00    +0.000 NA
ENDROOT
BRANCH   5   7
ATOM      7  C   UNL     1       1.952   7.260  19.570  0.00  0.00    +0.000 A 
ATOM      8  C   UNL     1       1.379   8.045  20.583  0.00  0.00    +0.000 A 
ATOM      9  C   UNL     1       1.079   9.397  20.379  0.00  0.00    +0.000 A 
ATOM     10  C   UNL     1       1.346  10.009  19.148  0.00  0.00    +0.000 A 
ATOM     11  C   UNL     1       1.917   9.242  18.125  0.00  0.00    +0.000 A 
ATOM     12  C   UNL     1       2.215   7.893  18.338  0.00  0.00    +0.000 A 
BRANCH  10  13
ATOM     13  C   UNL     1       1.032  11.464  18.912  0.00  0.00    +0.000 C 
ATOM     14  F   UNL     1       2.036  12.144  18.288  0.00  0.00    +0.000 F 
ATOM     15  F   UNL     1      -0.073  11.640  18.135  0.00  0.00    +0.000 F 
ATOM     16  F   UNL     1       0.788  12.140  20.069  0.00  0.00    +0.000 F 
ENDBRANCH  10  13
ENDBRANCH   5   7
BRANCH   1  17
ATOM     17  C   UNL     1       3.918   3.182  17.803  0.00  0.00    +0.000 C 
BRANCH  17  18
ATOM     18  N   UNL     1       5.278   3.696  17.586  0.00  0.00    +0.000 NA
ATOM     19  H   UNL     1       5.553   4.179  18.440  0.00  0.00    +0.000 HD
BRANCH  18  20
ATOM     20  C   UNL     1       5.345   4.607  16.438  0.00  0.00    +0.000 C 
BRANCH  20  21
ATOM     21  C   UNL     1       6.802   4.768  15.951  0.00  0.00    +0.000 C 
BRANCH  21  22
ATOM     22  C   UNL     1       6.901   4.615  14.449  0.00  0.00    +0.000 A 
ATOM     23  C   UNL     1       6.122   3.648  13.793  0.00  0.00    +0.000 A 
ATOM     24  C   UNL     1       6.201   3.494  12.408  0.00  0.00    +0.000 A 
ATOM     25  C   UNL     1       7.050   4.309  11.662  0.00  0.00    +0.000 A 
ATOM     26  C   UNL     1       7.814   5.285  12.297  0.00  0.00    +0.000 A 
ATOM     27  C   UNL     1       7.737   5.440  13.683  0.00  0.00    +0.000 A 
ENDBRANCH  21  22
BRANCH  21  28
ATOM     28  O   UNL     1       7.302   6.053  16.346  0.00  0.00    +0.000 OA
ATOM     29  H   UNL     1       8.096   5.864  16.874  0.00  0.00    +0.000 HD
ENDBRANCH  21  28
ENDBRANCH  20  21
ENDBRANCH  18  20
ENDBRANCH  17  18
ENDBRANCH   1  17
TORSDOF 8
ENDMDL
