MODEL 1
REMARK VINA RESULT:      -8.2      0.000      0.000
REMARK  Name = 
REMARK  6 active torsions:
REMARK  status: ('A' for Active; 'I' for Inactive)
REMARK    1  A    between atoms: C_2  and  O_3
REMARK    2  A    between atoms: C_2  and  C_4
REMARK    3  A    between atoms: C_4  and  O_5
REMARK    4  A    between atoms: O_5  and  C_6
REMARK    5  A    between atoms: C_9  and  C_10
REMARK    6  A    between atoms: C_15  and  C_16
REMARK                            x       y       z     vdW  Elec       q    Type
REMARK                         _______ _______ _______ _____ _____    ______ ____
ROOT
ATOM      1  C   UNL     1       6.111   5.047  16.484  0.00  0.00    +0.000 A 
ATOM      2  C   UNL     1       7.133   5.290  15.549  0.00  0.00    +0.000 A 
ATOM      3  C   UNL     1       7.048   4.790  14.252  0.00  0.00    +0.000 A 
ATOM      4  C   UNL     1       5.960   4.004  13.871  0.00  0.00    +0.000 A 
ATOM      5  C   UNL     1       4.981   3.697  14.834  0.00  0.00    +0.000 A 
ATOM      6  C   UNL     1       5.021   4.210  16.152  0.00  0.00    +0.000 A 
ENDROOT
BRANCH   6   7
ATOM      7  C   UNL     1       3.911   3.883  17.093  0.00  0.00    +0.000 A 
ATOM      8  C   UNL     1       3.706   2.581  17.590  0.00  0.00    +0.000 A 
ATOM      9  C   UNL     1       2.684   2.300  18.509  0.00  0.00    +0.000 A 
ATOM     10  C   UNL     1       1.816   3.308  18.910  0.00  0.00    +0.000 A 
ATOM     11 CL   UNL     1       0.558   2.966  20.032  0.00  0.00    +0.000 Cl
ATOM     12  C   UNL     1       1.961   4.595  18.405  0.00  0.00    +0.000 A 
ATOM     13  C   UNL     1       3.003   4.876  17.515  0.00  0.00    +0.000 A 
ENDBRANCH   6   7
BRANCH   4  14
ATOM     14  C   UNL     1       5.813   3.501  12.456  0.00  0.00    +0.000 C 
ATOM     15  F   UNL     1       6.707   4.050  11.588  0.00  0.00    +0.000 F 
ATOM     16  F   UNL     1       5.974   2.153  12.362  0.00  0.00    +0.000 F 
ATOM     17  F   UNL     1       4.581   3.770  11.941  0.00  0.00    +0.000 F 
ENDBRANCH   4  14
BRANCH   1  18
ATOM     18  O   UNL     1       6.128   5.611  17.740  0.00  0.00    +0.000 OA
BRANCH  18  19
ATOM     19  C   UNL     1       6.879   4.903  18.733  0.00  0.00    +0.000 C 
BRANCH  19  21
ATOM     20  O   UNL     1       8.294   6.864  18.881  0.00  0.00    +0.000 OA
ATOM     21  C   UNL     1       7.850   5.853  19.410  0.00  0.00    +0.000 C 
BRANCH  21  22
ATOM     22  O   UNL     1       8.191   5.476  20.665  0.00  0.00    +0.000 OA
ATOM     23  H   UNL     1       8.241   6.267  21.246  0.00  0.00    +0.000 HD
ENDBRANCH  21  22
ENDBRANCH  19  21
ENDBRANCH  18  19
ENDBRANCH   1  18
TORSDOF 6
ENDMDL
MODEL 2
REMARK VINA RESULT:      -8.2      0.199      1.044
REMARK  Name = 
REMARK  6 active torsions:
REMARK  status: ('A' for Active; 'I' for Inactive)
REMARK    1  A    between atoms: C_2  and  O_3
REMARK    2  A    between atoms: C_2  and  C_4
REMARK    3  A    between atoms: C_4  and  O_5
REMARK    4  A    between atoms: O_5  and  C_6
REMARK    5  A    between atoms: C_9  and  C_10
REMARK    6  A    between atoms: C_15  and  C_16
REMARK                            x       y       z     vdW  Elec       q    Type
REMARK                         _______ _______ _______ _____ _____    ______ ____
ROOT
ATOM      1  C   UNL     1       6.242   4.950  16.317  0.00  0.00    +0.000 A 
ATOM      2  C   UNL     1       7.241   5.145  15.347  0.00  0.00    +0.000 A 
ATOM      3  C   UNL     1       7.084   4.661  14.051  0.00  0.00    +0.000 A 
ATOM      4  C   UNL     1       5.941   3.939  13.704  0.00  0.00    +0.000 A 
ATOM      5  C   UNL     1       4.981   3.678  14.700  0.00  0.00    +0.000 A 
ATOM      6  C   UNL     1       5.096   4.176  16.019  0.00  0.00    +0.000 A 
ENDROOT
BRANCH   6   7
ATOM      7  C   UNL     1       4.004   3.904  16.997  0.00  0.00    +0.000 A 
ATOM      8  C   UNL     1       3.142   4.917  17.463  0.00  0.00    +0.000 A 
ATOM      9  C   UNL     1       2.092   4.635  18.349  0.00  0.00    +0.000 A 
ATOM     10  C   UNL     1       1.915   3.342  18.825  0.00  0.00    +0.000 A 
ATOM     11 CL   UNL     1       0.632   2.994  19.917  0.00  0.00    +0.000 Cl
ATOM     12  C   UNL     1       2.774   2.327  18.422  0.00  0.00    +0.000 A 
ATOM     13  C   UNL     1       3.799   2.607  17.511  0.00  0.00    +0.000 A 
ENDBRANCH   6   7
BRANCH   4  14
ATOM     14  C   UNL     1       5.717   3.455  12.292  0.00  0.00    +0.000 C 
ATOM     15  F   UNL     1       6.558   4.022  11.383  0.00  0.00    +0.000 F 
ATOM     16  F   UNL     1       5.878   2.110  12.169  0.00  0.00    +0.000 F 
ATOM     17  F   UNL     1       4.456   3.726  11.851  0.00  0.00    +0.000 F 
ENDBRANCH   4  14
BRANCH   1  18
ATOM     18  O   UNL     1       6.334   5.502  17.575  0.00  0.00    +0.000 OA
BRANCH  18  19
ATOM     19  C   UNL     1       7.224   4.843  18.483  0.00  0.00    +0.000 C 
BRANCH  19  21
ATOM     20  O   UNL     1       8.328   6.956  18.910  0.00  0.00    +0.000 OA
ATOM     21  C   UNL     1       7.940   5.876  19.334  0.00  0.00    +0.000 C 
BRANCH  21  22
ATOM     22  O   UNL     1       8.117   5.490  20.620  0.00  0.00    +0.000 OA
ATOM     23  H   UNL     1       8.325   4.530  20.651  0.00  0.00    +0.000 HD
ENDBRANCH  21  22
ENDBRANCH  19  21
ENDBRANCH  18  19
ENDBRANCH   1  18
TORSDOF 6
ENDMDL
MODEL 3
REMARK VINA RESULT:      -8.0      0.672      1.150
REMARK  Name = 
REMARK  6 active torsions:
REMARK  status: ('A' for Active; 'I' for Inactive)
REMARK    1  A    between atoms: C_2  and  O_3
REMARK    2  A    between atoms: C_2  and  C_4
REMARK    3  A    between atoms: C_4  and  O_5
REMARK    4  A    between atoms: O_5  and  C_6
REMARK    5  A    between atoms: C_9  and  C_10
REMARK    6  A    between atoms: C_15  and  C_16
REMARK                            x       y       z     vdW  Elec       q    Type
REMARK                         _______ _______ _______ _____ _____    ______ ____
ROOT
ATOM      1  C   UNL     1       6.264   5.420  16.313  0.00  0.00    +0.000 A 
ATOM      2  C   UNL     1       7.260   5.573  15.333  0.00  0.00    +0.000 A 
ATOM      3  C   UNL     1       7.147   4.944  14.096  0.00  0.00    +0.000 A 
ATOM      4  C   UNL     1       6.056   4.119  13.823  0.00  0.00    +0.000 A 
ATOM      5  C   UNL     1       5.103   3.906  14.837  0.00  0.00    +0.000 A 
ATOM      6  C   UNL     1       5.172   4.549  16.095  0.00  0.00    +0.000 A 
ENDROOT
BRANCH   6   7
ATOM      7  C   UNL     1       4.088   4.314  17.092  0.00  0.00    +0.000 A 
ATOM      8  C   UNL     1       3.801   3.033  17.603  0.00  0.00    +0.000 A 
ATOM      9  C   UNL     1       2.808   2.836  18.573  0.00  0.00    +0.000 A 
ATOM     10  C   UNL     1       2.047   3.912  19.014  0.00  0.00    +0.000 A 
ATOM     11 CL   UNL     1       0.824   3.673  20.200  0.00  0.00    +0.000 Cl
ATOM     12  C   UNL     1       2.272   5.182  18.499  0.00  0.00    +0.000 A 
ATOM     13  C   UNL     1       3.288   5.378  17.556  0.00  0.00    +0.000 A 
ENDBRANCH   6   7
BRANCH   4  14
ATOM     14  C   UNL     1       5.877   3.474  12.470  0.00  0.00    +0.000 C 
ATOM     15  F   UNL     1       4.636   3.659  11.939  0.00  0.00    +0.000 F 
ATOM     16  F   UNL     1       6.757   3.947  11.547  0.00  0.00    +0.000 F 
ATOM     17  F   UNL     1       6.065   2.126  12.515  0.00  0.00    +0.000 F 
ENDBRANCH   4  14
BRANCH   1  18
ATOM     18  O   UNL     1       6.308   6.108  17.506  0.00  0.00    +0.000 OA
BRANCH  18  19
ATOM     19  C   UNL     1       7.573   6.115  18.177  0.00  0.00    +0.000 C 
BRANCH  19  21
ATOM     20  O   UNL     1       6.381   4.991  19.961  0.00  0.00    +0.000 OA
ATOM     21  C   UNL     1       7.432   5.447  19.533  0.00  0.00    +0.000 C 
BRANCH  21  22
ATOM     22  O   UNL     1       8.588   5.405  20.239  0.00  0.00    +0.000 OA
ATOM     23  H   UNL     1       9.349   5.556  19.636  0.00  0.00    +0.000 HD
ENDBRANCH  21  22
ENDBRANCH  19  21
ENDBRANCH  18  19
ENDBRANCH   1  18
TORSDOF 6
ENDMDL
MODEL 4
REMARK VINA RESULT:      -8.0      0.661      1.525
REMARK  Name = 
REMARK  6 active torsions:
REMARK  status: ('A' for Active; 'I' for Inactive)
REMARK    1  A    between atoms: C_2  and  O_3
REMARK    2  A    between atoms: C_2  and  C_4
REMARK    3  A    between atoms: C_4  and  O_5
REMARK    4  A    between atoms: O_5  and  C_6
REMARK    5  A    between atoms: C_9  and  C_10
REMARK    6  A    between atoms: C_15  and  C_16
REMARK                            x       y       z     vdW  Elec       q    Type
REMARK                         _______ _______ _______ _____ _____    ______ ____
ROOT
ATOM      1  C   UNL     1       6.234   5.449  16.294  0.00  0.00    +0.000 A 
ATOM      2  C   UNL     1       7.219   5.623  15.307  0.00  0.00    +0.000 A 
ATOM      3  C   UNL     1       7.124   4.974  14.078  0.00  0.00    +0.000 A 
ATOM      4  C   UNL     1       6.061   4.107  13.822  0.00  0.00    +0.000 A 
ATOM      5  C   UNL     1       5.120   3.874  14.843  0.00  0.00    +0.000 A 
ATOM      6  C   UNL     1       5.172   4.536  16.092  0.00  0.00    +0.000 A 
ENDROOT
BRANCH   6   7
ATOM      7  C   UNL     1       4.101   4.276  17.098  0.00  0.00    +0.000 A 
ATOM      8  C   UNL     1       3.261   5.299  17.581  0.00  0.00    +0.000 A 
ATOM      9  C   UNL     1       2.230   5.030  18.493  0.00  0.00    +0.000 A 
ATOM     10  C   UNL     1       2.052   3.739  18.977  0.00  0.00    +0.000 A 
ATOM     11 CL   UNL     1       0.793   3.407  20.101  0.00  0.00    +0.000 Cl
ATOM     12  C   UNL     1       2.892   2.715  18.557  0.00  0.00    +0.000 A 
ATOM     13  C   UNL     1       3.897   2.983  17.620  0.00  0.00    +0.000 A 
ENDBRANCH   6   7
BRANCH   4  14
ATOM     14  C   UNL     1       5.899   3.439  12.478  0.00  0.00    +0.000 C 
ATOM     15  F   UNL     1       4.694   3.681  11.892  0.00  0.00    +0.000 F 
ATOM     16  F   UNL     1       6.842   3.836  11.582  0.00  0.00    +0.000 F 
ATOM     17  F   UNL     1       6.006   2.083  12.563  0.00  0.00    +0.000 F 
ENDBRANCH   4  14
BRANCH   1  18
ATOM     18  O   UNL     1       6.258   6.154  17.477  0.00  0.00    +0.000 OA
BRANCH  18  19
ATOM     19  C   UNL     1       7.513   6.173  18.166  0.00  0.00    +0.000 C 
BRANCH  19  21
ATOM     20  O   UNL     1       6.335   4.935  19.883  0.00  0.00    +0.000 OA
ATOM     21  C   UNL     1       7.374   5.453  19.495  0.00  0.00    +0.000 C 
BRANCH  21  22
ATOM     22  O   UNL     1       8.514   5.438  20.225  0.00  0.00    +0.000 OA
ATOM     23  H   UNL     1       8.427   6.051  20.988  0.00  0.00    +0.000 HD
ENDBRANCH  21  22
ENDBRANCH  19  21
ENDBRANCH  18  19
ENDBRANCH   1  18
TORSDOF 6
ENDMDL
MODEL 5
REMARK VINA RESULT:      -8.0      3.869      5.301
REMARK  Name = 
REMARK  6 active torsions:
REMARK  status: ('A' for Active; 'I' for Inactive)
REMARK    1  A    between atoms: C_2  and  O_3
REMARK    2  A    between atoms: C_2  and  C_4
REMARK    3  A    between atoms: C_4  and  O_5
REMARK    4  A    between atoms: O_5  and  C_6
REMARK    5  A    between atoms: C_9  and  C_10
REMARK    6  A    between atoms: C_15  and  C_16
REMARK                            x       y       z     vdW  Elec       q    Type
REMARK                         _______ _______ _______ _____ _____    ______ ____
ROOT
ATOM      1  C   UNL     1       2.854   4.618  17.628  0.00  0.00    +0.000 A 
ATOM      2  C   UNL     1       3.615   3.621  16.993  0.00  0.00    +0.000 A 
ATOM      3  C   UNL     1       4.947   3.846  16.653  0.00  0.00    +0.000 A 
ATOM      4  C   UNL     1       5.537   5.085  16.906  0.00  0.00    +0.000 A 
ATOM      5  C   UNL     1       4.747   6.106  17.468  0.00  0.00    +0.000 A 
ATOM      6  C   UNL     1       3.400   5.904  17.850  0.00  0.00    +0.000 A 
ENDROOT
BRANCH   6   7
ATOM      7  C   UNL     1       2.651   7.021  18.494  0.00  0.00    +0.000 A 
ATOM      8  C   UNL     1       2.265   8.175  17.783  0.00  0.00    +0.000 A 
ATOM      9  C   UNL     1       1.523   9.197  18.392  0.00  0.00    +0.000 A 
ATOM     10  C   UNL     1       1.196   9.107  19.740  0.00  0.00    +0.000 A 
ATOM     11 CL   UNL     1       0.291  10.361  20.493  0.00  0.00    +0.000 Cl
ATOM     12  C   UNL     1       1.600   8.004  20.483  0.00  0.00    +0.000 A 
ATOM     13  C   UNL     1       2.310   6.971  19.861  0.00  0.00    +0.000 A 
ENDBRANCH   6   7
BRANCH   4  14
ATOM     14  C   UNL     1       6.994   5.337  16.604  0.00  0.00    +0.000 C 
ATOM     15  F   UNL     1       7.842   4.554  17.327  0.00  0.00    +0.000 F 
ATOM     16  F   UNL     1       7.302   5.119  15.297  0.00  0.00    +0.000 F 
ATOM     17  F   UNL     1       7.359   6.623  16.868  0.00  0.00    +0.000 F 
ENDBRANCH   4  14
BRANCH   1  18
ATOM     18  O   UNL     1       1.567   4.384  18.059  0.00  0.00    +0.000 OA
BRANCH  18  19
ATOM     19  C   UNL     1       1.292   3.054  18.513  0.00  0.00    +0.000 C 
BRANCH  19  21
ATOM     20  O   UNL     1       2.759   2.721  20.411  0.00  0.00    +0.000 OA
ATOM     21  C   UNL     1       1.632   2.941  19.988  0.00  0.00    +0.000 C 
BRANCH  21  22
ATOM     22  O   UNL     1       0.563   3.099  20.804  0.00  0.00    +0.000 OA
ATOM     23  H   UNL     1       0.060   2.257  20.859  0.00  0.00    +0.000 HD
ENDBRANCH  21  22
ENDBRANCH  19  21
ENDBRANCH  18  19
ENDBRANCH   1  18
TORSDOF 6
ENDMDL
MODEL 6
REMARK VINA RESULT:      -7.9      4.012      5.448
REMARK  Name = 
REMARK  6 active torsions:
REMARK  status: ('A' for Active; 'I' for Inactive)
REMARK    1  A    between atoms: C_2  and  O_3
REMARK    2  A    between atoms: C_2  and  C_4
REMARK    3  A    between atoms: C_4  and  O_5
REMARK    4  A    between atoms: O_5  and  C_6
REMARK    5  A    between atoms: C_9  and  C_10
REMARK    6  A    between atoms: C_15  and  C_16
REMARK                            x       y       z     vdW  Elec       q    Type
REMARK                         _______ _______ _______ _____ _____    ______ ____
ROOT
ATOM      1  C   UNL     1       2.856   4.643  17.619  0.00  0.00    +0.000 A 
ATOM      2  C   UNL     1       3.645   3.642  17.027  0.00  0.00    +0.000 A 
ATOM      3  C   UNL     1       5.011   3.832  16.830  0.00  0.00    +0.000 A 
ATOM      4  C   UNL     1       5.611   5.040  17.185  0.00  0.00    +0.000 A 
ATOM      5  C   UNL     1       4.801   6.069  17.702  0.00  0.00    +0.000 A 
ATOM      6  C   UNL     1       3.417   5.901  17.941  0.00  0.00    +0.000 A 
ENDROOT
BRANCH   6   7
ATOM      7  C   UNL     1       2.643   7.022  18.548  0.00  0.00    +0.000 A 
ATOM      8  C   UNL     1       2.253   7.019  19.902  0.00  0.00    +0.000 A 
ATOM      9  C   UNL     1       1.564   8.101  20.468  0.00  0.00    +0.000 A 
ATOM     10  C   UNL     1       1.207   9.187  19.677  0.00  0.00    +0.000 A 
ATOM     11 CL   UNL     1       0.357  10.513  20.367  0.00  0.00    +0.000 Cl
ATOM     12  C   UNL     1       1.536   9.203  18.327  0.00  0.00    +0.000 A 
ATOM     13  C   UNL     1       2.254   8.136  17.776  0.00  0.00    +0.000 A 
ENDBRANCH   6   7
BRANCH   4  14
ATOM     14  C   UNL     1       7.099   5.251  17.039  0.00  0.00    +0.000 C 
ATOM     15  F   UNL     1       7.650   4.544  16.014  0.00  0.00    +0.000 F 
ATOM     16  F   UNL     1       7.422   6.553  16.816  0.00  0.00    +0.000 F 
ATOM     17  F   UNL     1       7.782   4.878  18.157  0.00  0.00    +0.000 F 
ENDBRANCH   4  14
BRANCH   1  18
ATOM     18  O   UNL     1       1.525   4.441  17.911  0.00  0.00    +0.000 OA
BRANCH  18  19
ATOM     19  C   UNL     1       1.182   3.134  18.387  0.00  0.00    +0.000 C 
BRANCH  19  21
ATOM     20  O   UNL     1       1.951   2.329  20.538  0.00  0.00    +0.000 OA
ATOM     21  C   UNL     1       1.256   3.110  19.903  0.00  0.00    +0.000 C 
BRANCH  21  22
ATOM     22  O   UNL     1       0.470   4.039  20.499  0.00  0.00    +0.000 OA
ATOM     23  H   UNL     1       1.030   4.747  20.887  0.00  0.00    +0.000 HD
ENDBRANCH  21  22
ENDBRANCH  19  21
ENDBRANCH  18  19
ENDBRANCH   1  18
TORSDOF 6
ENDMDL
MODEL 7
REMARK VINA RESULT:      -7.9      0.189      1.064
REMARK  Name = 
REMARK  6 active torsions:
REMARK  status: ('A' for Active; 'I' for Inactive)
REMARK    1  A    between atoms: C_2  and  O_3
REMARK    2  A    between atoms: C_2  and  C_4
REMARK    3  A    between atoms: C_4  and  O_5
REMARK    4  A    between atoms: O_5  and  C_6
REMARK    5  A    between atoms: C_9  and  C_10
REMARK    6  A    between atoms: C_15  and  C_16
REMARK                            x       y       z     vdW  Elec       q    Type
REMARK                         _______ _______ _______ _____ _____    ______ ____
ROOT
ATOM      1  C   UNL     1       6.148   5.175  16.579  0.00  0.00    +0.000 A 
ATOM      2  C   UNL     1       7.175   5.414  15.650  0.00  0.00    +0.000 A 
ATOM      3  C   UNL     1       7.109   4.891  14.361  0.00  0.00    +0.000 A 
ATOM      4  C   UNL     1       6.034   4.087  13.983  0.00  0.00    +0.000 A 
ATOM      5  C   UNL     1       5.048   3.785  14.941  0.00  0.00    +0.000 A 
ATOM      6  C   UNL     1       5.070   4.320  16.251  0.00  0.00    +0.000 A 
ENDROOT
BRANCH   6   7
ATOM      7  C   UNL     1       3.954   3.997  17.186  0.00  0.00    +0.000 A 
ATOM      8  C   UNL     1       3.767   2.705  17.715  0.00  0.00    +0.000 A 
ATOM      9  C   UNL     1       2.739   2.428  18.627  0.00  0.00    +0.000 A 
ATOM     10  C   UNL     1       1.847   3.430  18.992  0.00  0.00    +0.000 A 
ATOM     11 CL   UNL     1       0.582   3.093  20.107  0.00  0.00    +0.000 Cl
ATOM     12  C   UNL     1       1.975   4.705  18.456  0.00  0.00    +0.000 A 
ATOM     13  C   UNL     1       3.023   4.984  17.572  0.00  0.00    +0.000 A 
ENDBRANCH   6   7
BRANCH   4  14
ATOM     14  C   UNL     1       5.906   3.558  12.575  0.00  0.00    +0.000 C 
ATOM     15  F   UNL     1       6.130   2.219  12.474  0.00  0.00    +0.000 F 
ATOM     16  F   UNL     1       4.671   3.775  12.046  0.00  0.00    +0.000 F 
ATOM     17  F   UNL     1       6.790   4.148  11.723  0.00  0.00    +0.000 F 
ENDBRANCH   4  14
BRANCH   1  18
ATOM     18  O   UNL     1       6.146   5.760  17.826  0.00  0.00    +0.000 OA
BRANCH  18  19
ATOM     19  C   UNL     1       6.598   4.933  18.904  0.00  0.00    +0.000 C 
BRANCH  19  21
ATOM     20  O   UNL     1       8.152   5.276  20.731  0.00  0.00    +0.000 OA
ATOM     21  C   UNL     1       7.730   5.630  19.638  0.00  0.00    +0.000 C 
BRANCH  21  22
ATOM     22  O   UNL     1       8.235   6.694  18.970  0.00  0.00    +0.000 OA
ATOM     23  H   UNL     1       7.577   7.015  18.313  0.00  0.00    +0.000 HD
ENDBRANCH  21  22
ENDBRANCH  19  21
ENDBRANCH  18  19
ENDBRANCH   1  18
TORSDOF 6
ENDMDL
MODEL 8
REMARK VINA RESULT:      -7.9      0.530      1.530
REMARK  Name = 
REMARK  6 active torsions:
REMARK  status: ('A' for Active; 'I' for Inactive)
REMARK    1  A    between atoms: C_2  and  O_3
REMARK    2  A    between atoms: C_2  and  C_4
REMARK    3  A    between atoms: C_4  and  O_5
REMARK    4  A    between atoms: O_5  and  C_6
REMARK    5  A    between atoms: C_9  and  C_10
REMARK    6  A    between atoms: C_15  and  C_16
REMARK                            x       y       z     vdW  Elec       q    Type
REMARK                         _______ _______ _______ _____ _____    ______ ____
ROOT
ATOM      1  C   UNL     1       6.224   4.700  16.531  0.00  0.00    +0.000 A 
ATOM      2  C   UNL     1       7.262   4.910  15.606  0.00  0.00    +0.000 A 
ATOM      3  C   UNL     1       7.123   4.522  14.276  0.00  0.00    +0.000 A 
ATOM      4  C   UNL     1       5.960   3.882  13.848  0.00  0.00    +0.000 A 
ATOM      5  C   UNL     1       4.957   3.602  14.795  0.00  0.00    +0.000 A 
ATOM      6  C   UNL     1       5.052   4.006  16.148  0.00  0.00    +0.000 A 
ENDROOT
BRANCH   6   7
ATOM      7  C   UNL     1       3.918   3.722  17.073  0.00  0.00    +0.000 A 
ATOM      8  C   UNL     1       3.008   4.720  17.474  0.00  0.00    +0.000 A 
ATOM      9  C   UNL     1       1.921   4.428  18.309  0.00  0.00    +0.000 A 
ATOM     10  C   UNL     1       1.751   3.138  18.801  0.00  0.00    +0.000 A 
ATOM     11 CL   UNL     1       0.421   2.777  19.831  0.00  0.00    +0.000 Cl
ATOM     12  C   UNL     1       2.655   2.139  18.462  0.00  0.00    +0.000 A 
ATOM     13  C   UNL     1       3.719   2.430  17.600  0.00  0.00    +0.000 A 
ENDBRANCH   6   7
BRANCH   4  14
ATOM     14  C   UNL     1       5.758   3.506  12.400  0.00  0.00    +0.000 C 
ATOM     15  F   UNL     1       5.899   2.173  12.159  0.00  0.00    +0.000 F 
ATOM     16  F   UNL     1       4.522   3.844  11.941  0.00  0.00    +0.000 F 
ATOM     17  F   UNL     1       6.648   4.130  11.579  0.00  0.00    +0.000 F 
ENDBRANCH   4  14
BRANCH   1  18
ATOM     18  O   UNL     1       6.301   5.161  17.826  0.00  0.00    +0.000 OA
BRANCH  18  19
ATOM     19  C   UNL     1       6.872   6.464  17.992  0.00  0.00    +0.000 C 
BRANCH  19  21
ATOM     20  O   UNL     1       8.254   5.409  19.679  0.00  0.00    +0.000 OA
ATOM     21  C   UNL     1       8.002   6.399  19.005  0.00  0.00    +0.000 C 
BRANCH  21  22
ATOM     22  O   UNL     1       8.711   7.549  19.100  0.00  0.00    +0.000 OA
ATOM     23  H   UNL     1       8.731   7.848  20.036  0.00  0.00    +0.000 HD
ENDBRANCH  21  22
ENDBRANCH  19  21
ENDBRANCH  18  19
ENDBRANCH   1  18
TORSDOF 6
ENDMDL
MODEL 9
REMARK VINA RESULT:      -7.8      0.924      1.300
REMARK  Name = 
REMARK  6 active torsions:
REMARK  status: ('A' for Active; 'I' for Inactive)
REMARK    1  A    between atoms: C_2  and  O_3
REMARK    2  A    between atoms: C_2  and  C_4
REMARK    3  A    between atoms: C_4  and  O_5
REMARK    4  A    between atoms: O_5  and  C_6
REMARK    5  A    between atoms: C_9  and  C_10
REMARK    6  A    between atoms: C_15  and  C_16
REMARK                            x       y       z     vdW  Elec       q    Type
REMARK                         _______ _______ _______ _____ _____    ______ ____
ROOT
ATOM      1  C   UNL     1       6.407   5.052  16.269  0.00  0.00    +0.000 A 
ATOM      2  C   UNL     1       7.388   5.161  15.269  0.00  0.00    +0.000 A 
ATOM      3  C   UNL     1       7.175   4.634  13.997  0.00  0.00    +0.000 A 
ATOM      4  C   UNL     1       5.991   3.954  13.708  0.00  0.00    +0.000 A 
ATOM      5  C   UNL     1       5.046   3.778  14.736  0.00  0.00    +0.000 A 
ATOM      6  C   UNL     1       5.219   4.322  16.031  0.00  0.00    +0.000 A 
ENDROOT
BRANCH   6   7
ATOM      7  C   UNL     1       4.141   4.141  17.046  0.00  0.00    +0.000 A 
ATOM      8  C   UNL     1       3.865   2.889  17.632  0.00  0.00    +0.000 A 
ATOM      9  C   UNL     1       2.878   2.744  18.617  0.00  0.00    +0.000 A 
ATOM     10  C   UNL     1       2.113   3.840  18.999  0.00  0.00    +0.000 A 
ATOM     11 CL   UNL     1       0.896   3.664  20.203  0.00  0.00    +0.000 Cl
ATOM     12  C   UNL     1       2.328   5.079  18.409  0.00  0.00    +0.000 A 
ATOM     13  C   UNL     1       3.337   5.225  17.451  0.00  0.00    +0.000 A 
ENDBRANCH   6   7
BRANCH   4  14
ATOM     14  C   UNL     1       5.707   3.428  12.322  0.00  0.00    +0.000 C 
ATOM     15  F   UNL     1       5.876   2.081  12.207  0.00  0.00    +0.000 F 
ATOM     16  F   UNL     1       4.434   3.684  11.918  0.00  0.00    +0.000 F 
ATOM     17  F   UNL     1       6.521   3.987  11.384  0.00  0.00    +0.000 F 
ENDBRANCH   4  14
BRANCH   1  18
ATOM     18  O   UNL     1       6.558   5.647  17.502  0.00  0.00    +0.000 OA
BRANCH  18  19
ATOM     19  C   UNL     1       6.513   7.079  17.513  0.00  0.00    +0.000 C 
BRANCH  19  21
ATOM     20  O   UNL     1       8.283   8.708  17.805  0.00  0.00    +0.000 OA
ATOM     21  C   UNL     1       7.802   7.622  18.103  0.00  0.00    +0.000 C 
BRANCH  21  22
ATOM     22  O   UNL     1       8.384   6.787  18.996  0.00  0.00    +0.000 OA
ATOM     23  H   UNL     1       8.379   5.870  18.642  0.00  0.00    +0.000 HD
ENDBRANCH  21  22
ENDBRANCH  19  21
ENDBRANCH  18  19
ENDBRANCH   1  18
TORSDOF 6
ENDMDL
