MODEL 1
REMARK VINA RESULT:      -7.8      0.000      0.000
REMARK  Name = 
REMARK  16 active torsions:
REMARK  status: ('A' for Active; 'I' for Inactive)
REMARK    1  A    between atoms: C_1  and  C_2
REMARK    2  A    between atoms: C_2  and  O_3
REMARK    3  A    between atoms: O_3  and  C_4
REMARK    4  A    between atoms: C_7  and  O_8
REMARK    5  A    between atoms: O_8  and  C_9
REMARK    6  A    between atoms: C_9  and  C_10
REMARK    7  A    between atoms: C_10  and  O_11
REMARK    8  A    between atoms: C_10  and  C_12
REMARK    9  A    between atoms: C_12  and  N_13
REMARK   10  A    between atoms: N_13  and  C_14
REMARK   11  A    between atoms: N_13  and  C_15
REMARK   12  A    between atoms: C_15  and  C_16
REMARK   13  A    between atoms: C_17  and  C_18
REMARK   14  A    between atoms: N_20  and  C_21
REMARK   15  A    between atoms: C_21  and  C_22
REMARK   16  A    between atoms: C_30  and  C_31
REMARK                            x       y       z     vdW  Elec       q    Type
REMARK                         _______ _______ _______ _____ _____    ______ ____
ROOT
ATOM      1  N   UNL     1       1.678   5.162  20.450  0.00  0.00    +0.000 NA
ATOM      2  C   UNL     1       2.138   4.032  21.262  0.00  0.00    +0.000 C 
ENDROOT
BRANCH   1   3
ATOM      3  C   UNL     1       1.369   4.743  19.061  0.00  0.00    +0.000 C 
BRANCH   3   4
ATOM      4  C   UNL     1       1.019   3.240  18.874  0.00  0.00    +0.000 C 
BRANCH   4   5
ATOM      5  O   UNL     1       0.380   2.699  20.040  0.00  0.00    +0.000 OA
ATOM      6  H   UNL     1       0.462   3.346  20.758  0.00  0.00    +0.000 HD
ENDBRANCH   4   5
BRANCH   4   7
ATOM      7  C   UNL     1       2.304   2.434  18.584  0.00  0.00    +0.000 C 
BRANCH   7   8
ATOM      8  O   UNL     1       2.900   2.922  17.381  0.00  0.00    +0.000 OA
BRANCH   8  12
ATOM      9  C   UNL     1       6.570   4.889  17.573  0.00  0.00    +0.000 A 
ATOM     10  C   UNL     1       5.966   4.576  16.355  0.00  0.00    +0.000 A 
ATOM     11  C   UNL     1       4.741   3.906  16.329  0.00  0.00    +0.000 A 
ATOM     12  C   UNL     1       4.125   3.517  17.518  0.00  0.00    +0.000 A 
ATOM     13  C   UNL     1       4.746   3.797  18.735  0.00  0.00    +0.000 A 
ATOM     14  C   UNL     1       5.970   4.473  18.762  0.00  0.00    +0.000 A 
BRANCH   9  15
ATOM     15  O   UNL     1       7.737   5.592  17.483  0.00  0.00    +0.000 OA
BRANCH  15  17
ATOM     16  C   UNL     1       7.634   7.972  17.492  0.00  0.00    +0.000 C 
ATOM     17  C   UNL     1       7.847   6.731  18.338  0.00  0.00    +0.000 C 
ENDBRANCH  15  17
ENDBRANCH   9  15
ENDBRANCH   8  12
ENDBRANCH   7   8
ENDBRANCH   4   7
ENDBRANCH   3   4
ENDBRANCH   1   3
BRANCH   1  18
ATOM     18  C   UNL     1       2.673   6.253  20.505  0.00  0.00    +0.000 C 
BRANCH  18  19
ATOM     19  C   UNL     1       2.162   7.449  19.766  0.00  0.00    +0.000 A 
ATOM     20  C   UNL     1       2.515   7.888  18.460  0.00  0.00    +0.000 A 
ATOM     21  C   UNL     1       3.343   7.200  17.439  0.00  0.00    +0.000 C 
ATOM     22  N   UNL     1       2.002   9.094  18.190  0.00  0.00    +0.000 NA
ATOM     23  N   UNL     1       1.285   9.403  19.288  0.00  0.00    +0.000 N 
ATOM     24  C   UNL     1       1.209   8.365  20.186  0.00  0.00    +0.000 A 
ATOM     25  C   UNL     1       0.292   8.329  21.352  0.00  0.00    +0.000 C 
BRANCH  23  26
ATOM     26  C   UNL     1       0.769  10.762  19.431  0.00  0.00    +0.000 C 
BRANCH  26  27
ATOM     27  C   UNL     1      -0.651  10.869  18.937  0.00  0.00    +0.000 A 
ATOM     28  C   UNL     1      -1.576  11.681  19.608  0.00  0.00    +0.000 A 
ATOM     29  C   UNL     1      -2.845  11.885  19.083  0.00  0.00    +0.000 A 
ATOM     30  C   UNL     1      -3.221  11.274  17.880  0.00  0.00    +0.000 A 
ATOM     31 CL   UNL     1      -4.776  11.648  17.232  0.00  0.00    +0.000 Cl
ATOM     32  C   UNL     1      -2.327  10.411  17.234  0.00  0.00    +0.000 A 
ATOM     33 CL   UNL     1      -2.714   9.607  15.758  0.00  0.00    +0.000 Cl
ATOM     34  C   UNL     1      -1.052  10.200  17.771  0.00  0.00    +0.000 A 
ENDBRANCH  26  27
ENDBRANCH  23  26
ENDBRANCH  18  19
ENDBRANCH   1  18
TORSDOF 12
ENDMDL
MODEL 2
REMARK VINA RESULT:      -7.8      1.560      2.241
REMARK  Name = 
REMARK  16 active torsions:
REMARK  status: ('A' for Active; 'I' for Inactive)
REMARK    1  A    between atoms: C_1  and  C_2
REMARK    2  A    between atoms: C_2  and  O_3
REMARK    3  A    between atoms: O_3  and  C_4
REMARK    4  A    between atoms: C_7  and  O_8
REMARK    5  A    between atoms: O_8  and  C_9
REMARK    6  A    between atoms: C_9  and  C_10
REMARK    7  A    between atoms: C_10  and  O_11
REMARK    8  A    between atoms: C_10  and  C_12
REMARK    9  A    between atoms: C_12  and  N_13
REMARK   10  A    between atoms: N_13  and  C_14
REMARK   11  A    between atoms: N_13  and  C_15
REMARK   12  A    between atoms: C_15  and  C_16
REMARK   13  A    between atoms: C_17  and  C_18
REMARK   14  A    between atoms: N_20  and  C_21
REMARK   15  A    between atoms: C_21  and  C_22
REMARK   16  A    between atoms: C_30  and  C_31
REMARK                            x       y       z     vdW  Elec       q    Type
REMARK                         _______ _______ _______ _____ _____    ______ ____
ROOT
ATOM      1  N   UNL     1       2.110   5.455  20.198  0.00  0.00    +0.000 NA
ATOM      2  C   UNL     1       0.899   4.666  20.443  0.00  0.00    +0.000 C 
ENDROOT
BRANCH   1   3
ATOM      3  C   UNL     1       3.337   4.657  20.444  0.00  0.00    +0.000 C 
BRANCH   3   4
ATOM      4  C   UNL     1       3.203   3.126  20.207  0.00  0.00    +0.000 C 
BRANCH   4   5
ATOM      5  O   UNL     1       3.267   2.395  21.440  0.00  0.00    +0.000 OA
ATOM      6  H   UNL     1       3.699   2.956  22.103  0.00  0.00    +0.000 HD
ENDBRANCH   4   5
BRANCH   4   7
ATOM      7  C   UNL     1       4.331   2.640  19.272  0.00  0.00    +0.000 C 
BRANCH   7   8
ATOM      8  O   UNL     1       5.327   3.658  19.172  0.00  0.00    +0.000 OA
BRANCH   8  12
ATOM      9  C   UNL     1       6.305   4.994  15.347  0.00  0.00    +0.000 A 
ATOM     10  C   UNL     1       7.268   4.857  16.347  0.00  0.00    +0.000 A 
ATOM     11  C   UNL     1       6.902   4.417  17.621  0.00  0.00    +0.000 A 
ATOM     12  C   UNL     1       5.568   4.140  17.914  0.00  0.00    +0.000 A 
ATOM     13  C   UNL     1       4.598   4.311  16.926  0.00  0.00    +0.000 A 
ATOM     14  C   UNL     1       4.965   4.746  15.648  0.00  0.00    +0.000 A 
BRANCH   9  15
ATOM     15  O   UNL     1       6.781   5.378  14.126  0.00  0.00    +0.000 OA
BRANCH  15  17
ATOM     16  C   UNL     1       6.007   3.606  12.733  0.00  0.00    +0.000 C 
ATOM     17  C   UNL     1       7.230   4.325  13.272  0.00  0.00    +0.000 C 
ENDBRANCH  15  17
ENDBRANCH   9  15
ENDBRANCH   8  12
ENDBRANCH   7   8
ENDBRANCH   4   7
ENDBRANCH   3   4
ENDBRANCH   1   3
BRANCH   1  18
ATOM     18  C   UNL     1       2.069   6.693  21.004  0.00  0.00    +0.000 C 
BRANCH  18  19
ATOM     19  C   UNL     1       1.626   7.841  20.153  0.00  0.00    +0.000 A 
ATOM     20  C   UNL     1       2.106   8.216  18.868  0.00  0.00    +0.000 A 
ATOM     21  C   UNL     1       3.040   7.486  17.975  0.00  0.00    +0.000 C 
ATOM     22  N   UNL     1       1.614   9.398  18.483  0.00  0.00    +0.000 NA
ATOM     23  N   UNL     1       0.786   9.755  19.484  0.00  0.00    +0.000 N 
ATOM     24  C   UNL     1       0.627   8.765  20.425  0.00  0.00    +0.000 A 
ATOM     25  C   UNL     1      -0.404   8.778  21.492  0.00  0.00    +0.000 C 
BRANCH  23  26
ATOM     26  C   UNL     1       0.247  11.112  19.500  0.00  0.00    +0.000 C 
BRANCH  26  27
ATOM     27  C   UNL     1      -1.163  11.154  18.967  0.00  0.00    +0.000 A 
ATOM     28  C   UNL     1      -2.137  11.938  19.600  0.00  0.00    +0.000 A 
ATOM     29  C   UNL     1      -3.399  12.083  19.037  0.00  0.00    +0.000 A 
ATOM     30  C   UNL     1      -3.717  11.438  17.835  0.00  0.00    +0.000 A 
ATOM     31 CL   UNL     1      -5.267  11.739  17.139  0.00  0.00    +0.000 Cl
ATOM     32  C   UNL     1      -2.771  10.602  17.228  0.00  0.00    +0.000 A 
ATOM     33 CL   UNL     1      -3.085   9.760  15.755  0.00  0.00    +0.000 Cl
ATOM     34  C   UNL     1      -1.504  10.451  17.802  0.00  0.00    +0.000 A 
ENDBRANCH  26  27
ENDBRANCH  23  26
ENDBRANCH  18  19
ENDBRANCH   1  18
TORSDOF 12
ENDMDL
MODEL 3
REMARK VINA RESULT:      -7.7      1.382      2.600
REMARK  Name = 
REMARK  16 active torsions:
REMARK  status: ('A' for Active; 'I' for Inactive)
REMARK    1  A    between atoms: C_1  and  C_2
REMARK    2  A    between atoms: C_2  and  O_3
REMARK    3  A    between atoms: O_3  and  C_4
REMARK    4  A    between atoms: C_7  and  O_8
REMARK    5  A    between atoms: O_8  and  C_9
REMARK    6  A    between atoms: C_9  and  C_10
REMARK    7  A    between atoms: C_10  and  O_11
REMARK    8  A    between atoms: C_10  and  C_12
REMARK    9  A    between atoms: C_12  and  N_13
REMARK   10  A    between atoms: N_13  and  C_14
REMARK   11  A    between atoms: N_13  and  C_15
REMARK   12  A    between atoms: C_15  and  C_16
REMARK   13  A    between atoms: C_17  and  C_18
REMARK   14  A    between atoms: N_20  and  C_21
REMARK   15  A    between atoms: C_21  and  C_22
REMARK   16  A    between atoms: C_30  and  C_31
REMARK                            x       y       z     vdW  Elec       q    Type
REMARK                         _______ _______ _______ _____ _____    ______ ____
ROOT
ATOM      1  N   UNL     1       2.212   4.683  19.470  0.00  0.00    +0.000 NA
ATOM      2  C   UNL     1       1.110   4.219  20.317  0.00  0.00    +0.000 C 
ENDROOT
BRANCH   1   3
ATOM      3  C   UNL     1       3.154   3.581  19.152  0.00  0.00    +0.000 C 
BRANCH   3   4
ATOM      4  C   UNL     1       4.400   3.983  18.314  0.00  0.00    +0.000 C 
BRANCH   4   5
ATOM      5  O   UNL     1       4.597   3.092  17.205  0.00  0.00    +0.000 OA
ATOM      6  H   UNL     1       4.888   2.235  17.553  0.00  0.00    +0.000 HD
ENDBRANCH   4   5
BRANCH   4   7
ATOM      7  C   UNL     1       5.660   3.965  19.206  0.00  0.00    +0.000 C 
BRANCH   7   8
ATOM      8  O   UNL     1       6.811   4.204  18.395  0.00  0.00    +0.000 OA
BRANCH   8  12
ATOM      9  C   UNL     1       8.000   8.158  17.837  0.00  0.00    +0.000 A 
ATOM     10  C   UNL     1       8.296   7.460  19.008  0.00  0.00    +0.000 A 
ATOM     11  C   UNL     1       7.871   6.139  19.165  0.00  0.00    +0.000 A 
ATOM     12  C   UNL     1       7.123   5.517  18.167  0.00  0.00    +0.000 A 
ATOM     13  C   UNL     1       6.796   6.225  17.011  0.00  0.00    +0.000 A 
ATOM     14  C   UNL     1       7.226   7.547  16.850  0.00  0.00    +0.000 A 
BRANCH   9  15
ATOM     15  O   UNL     1       8.510   9.424  17.767  0.00  0.00    +0.000 OA
BRANCH  15  17
ATOM     16  C   UNL     1       9.999  11.126  18.517  0.00  0.00    +0.000 C 
ATOM     17  C   UNL     1       9.261   9.857  18.902  0.00  0.00    +0.000 C 
ENDBRANCH  15  17
ENDBRANCH   9  15
ENDBRANCH   8  12
ENDBRANCH   7   8
ENDBRANCH   4   7
ENDBRANCH   3   4
ENDBRANCH   1   3
BRANCH   1  18
ATOM     18  C   UNL     1       2.881   5.834  20.110  0.00  0.00    +0.000 C 
BRANCH  18  19
ATOM     19  C   UNL     1       2.370   7.113  19.524  0.00  0.00    +0.000 A 
ATOM     20  C   UNL     1       2.659   7.668  18.247  0.00  0.00    +0.000 A 
ATOM     21  C   UNL     1       3.399   7.060  17.114  0.00  0.00    +0.000 C 
ATOM     22  N   UNL     1       2.175   8.910  18.128  0.00  0.00    +0.000 NA
ATOM     23  N   UNL     1       1.537   9.130  19.295  0.00  0.00    +0.000 N 
ATOM     24  C   UNL     1       1.478   8.011  20.091  0.00  0.00    +0.000 A 
ATOM     25  C   UNL     1       0.632   7.887  21.304  0.00  0.00    +0.000 C 
BRANCH  23  26
ATOM     26  C   UNL     1       1.080  10.483  19.601  0.00  0.00    +0.000 C 
BRANCH  26  27
ATOM     27  C   UNL     1      -0.344  10.699  19.157  0.00  0.00    +0.000 A 
ATOM     28  C   UNL     1      -1.190  11.552  19.879  0.00  0.00    +0.000 A 
ATOM     29  C   UNL     1      -2.458  11.857  19.401  0.00  0.00    +0.000 A 
ATOM     30  C   UNL     1      -2.911  11.307  18.195  0.00  0.00    +0.000 A 
ATOM     31 CL   UNL     1      -4.456  11.804  17.608  0.00  0.00    +0.000 Cl
ATOM     32  C   UNL     1      -2.098  10.406  17.498  0.00  0.00    +0.000 A 
ATOM     33 CL   UNL     1      -2.584   9.673  16.014  0.00  0.00    +0.000 Cl
ATOM     34  C   UNL     1      -0.825  10.093  17.987  0.00  0.00    +0.000 A 
ENDBRANCH  26  27
ENDBRANCH  23  26
ENDBRANCH  18  19
ENDBRANCH   1  18
TORSDOF 12
ENDMDL
MODEL 4
REMARK VINA RESULT:      -7.7      1.189      1.668
REMARK  Name = 
REMARK  16 active torsions:
REMARK  status: ('A' for Active; 'I' for Inactive)
REMARK    1  A    between atoms: C_1  and  C_2
REMARK    2  A    between atoms: C_2  and  O_3
REMARK    3  A    between atoms: O_3  and  C_4
REMARK    4  A    between atoms: C_7  and  O_8
REMARK    5  A    between atoms: O_8  and  C_9
REMARK    6  A    between atoms: C_9  and  C_10
REMARK    7  A    between atoms: C_10  and  O_11
REMARK    8  A    between atoms: C_10  and  C_12
REMARK    9  A    between atoms: C_12  and  N_13
REMARK   10  A    between atoms: N_13  and  C_14
REMARK   11  A    between atoms: N_13  and  C_15
REMARK   12  A    between atoms: C_15  and  C_16
REMARK   13  A    between atoms: C_17  and  C_18
REMARK   14  A    between atoms: N_20  and  C_21
REMARK   15  A    between atoms: C_21  and  C_22
REMARK   16  A    between atoms: C_30  and  C_31
REMARK                            x       y       z     vdW  Elec       q    Type
REMARK                         _______ _______ _______ _____ _____    ______ ____
ROOT
ATOM      1  N   UNL     1       2.192   4.656  20.033  0.00  0.00    +0.000 NA
ATOM      2  C   UNL     1       0.793   4.246  19.880  0.00  0.00    +0.000 C 
ENDROOT
BRANCH   1   3
ATOM      3  C   UNL     1       3.039   3.534  20.508  0.00  0.00    +0.000 C 
BRANCH   3   4
ATOM      4  C   UNL     1       3.443   2.493  19.427  0.00  0.00    +0.000 C 
BRANCH   4   5
ATOM      5  O   UNL     1       4.754   1.960  19.674  0.00  0.00    +0.000 OA
ATOM      6  H   UNL     1       4.796   1.071  19.289  0.00  0.00    +0.000 HD
ENDBRANCH   4   5
BRANCH   4   7
ATOM      7  C   UNL     1       3.421   3.151  18.031  0.00  0.00    +0.000 C 
BRANCH   7   8
ATOM      8  O   UNL     1       4.700   2.988  17.416  0.00  0.00    +0.000 OA
BRANCH   8  12
ATOM      9  C   UNL     1       7.038   6.385  16.816  0.00  0.00    +0.000 A 
ATOM     10  C   UNL     1       7.064   5.677  18.018  0.00  0.00    +0.000 A 
ATOM     11  C   UNL     1       6.258   4.549  18.188  0.00  0.00    +0.000 A 
ATOM     12  C   UNL     1       5.399   4.139  17.170  0.00  0.00    +0.000 A 
ATOM     13  C   UNL     1       5.345   4.867  15.981  0.00  0.00    +0.000 A 
ATOM     14  C   UNL     1       6.155   5.993  15.808  0.00  0.00    +0.000 A 
BRANCH   9  15
ATOM     15  O   UNL     1       7.905   7.438  16.739  0.00  0.00    +0.000 OA
BRANCH  15  17
ATOM     16  C   UNL     1       7.731   9.642  17.627  0.00  0.00    +0.000 C 
ATOM     17  C   UNL     1       8.073   8.197  17.937  0.00  0.00    +0.000 C 
ENDBRANCH  15  17
ENDBRANCH   9  15
ENDBRANCH   8  12
ENDBRANCH   7   8
ENDBRANCH   4   7
ENDBRANCH   3   4
ENDBRANCH   1   3
BRANCH   1  18
ATOM     18  C   UNL     1       2.270   5.838  20.916  0.00  0.00    +0.000 C 
BRANCH  18  19
ATOM     19  C   UNL     1       1.918   7.074  20.148  0.00  0.00    +0.000 A 
ATOM     20  C   UNL     1       2.397   7.477  18.872  0.00  0.00    +0.000 A 
ATOM     21  C   UNL     1       3.229   6.716  17.907  0.00  0.00    +0.000 C 
ATOM     22  N   UNL     1       2.014   8.723  18.571  0.00  0.00    +0.000 NA
ATOM     23  N   UNL     1       1.253   9.097  19.619  0.00  0.00    +0.000 N 
ATOM     24  C   UNL     1       1.024   8.072  20.506  0.00  0.00    +0.000 A 
ATOM     25  C   UNL     1       0.030   8.120  21.606  0.00  0.00    +0.000 C 
BRANCH  23  26
ATOM     26  C   UNL     1       0.851  10.496  19.732  0.00  0.00    +0.000 C 
BRANCH  26  27
ATOM     27  C   UNL     1      -0.532  10.721  19.176  0.00  0.00    +0.000 A 
ATOM     28  C   UNL     1      -1.425  11.585  19.825  0.00  0.00    +0.000 A 
ATOM     29  C   UNL     1      -2.649  11.896  19.248  0.00  0.00    +0.000 A 
ATOM     30  C   UNL     1      -3.011  11.341  18.014  0.00  0.00    +0.000 A 
ATOM     31 CL   UNL     1      -4.502  11.846  17.305  0.00  0.00    +0.000 Cl
ATOM     32  C   UNL     1      -2.154  10.429  17.388  0.00  0.00    +0.000 A 
ATOM     33 CL   UNL     1      -2.529   9.689  15.875  0.00  0.00    +0.000 Cl
ATOM     34  C   UNL     1      -0.925  10.110  17.977  0.00  0.00    +0.000 A 
ENDBRANCH  26  27
ENDBRANCH  23  26
ENDBRANCH  18  19
ENDBRANCH   1  18
TORSDOF 12
ENDMDL
MODEL 5
REMARK VINA RESULT:      -7.2      3.182      4.600
REMARK  Name = 
REMARK  16 active torsions:
REMARK  status: ('A' for Active; 'I' for Inactive)
REMARK    1  A    between atoms: C_1  and  C_2
REMARK    2  A    between atoms: C_2  and  O_3
REMARK    3  A    between atoms: O_3  and  C_4
REMARK    4  A    between atoms: C_7  and  O_8
REMARK    5  A    between atoms: O_8  and  C_9
REMARK    6  A    between atoms: C_9  and  C_10
REMARK    7  A    between atoms: C_10  and  O_11
REMARK    8  A    between atoms: C_10  and  C_12
REMARK    9  A    between atoms: C_12  and  N_13
REMARK   10  A    between atoms: N_13  and  C_14
REMARK   11  A    between atoms: N_13  and  C_15
REMARK   12  A    between atoms: C_15  and  C_16
REMARK   13  A    between atoms: C_17  and  C_18
REMARK   14  A    between atoms: N_20  and  C_21
REMARK   15  A    between atoms: C_21  and  C_22
REMARK   16  A    between atoms: C_30  and  C_31
REMARK                            x       y       z     vdW  Elec       q    Type
REMARK                         _______ _______ _______ _____ _____    ______ ____
ROOT
ATOM      1  N   UNL     1       0.578   8.705  20.836  0.00  0.00    +0.000 NA
ATOM      2  C   UNL     1      -0.526   8.264  21.693  0.00  0.00    +0.000 C 
ENDROOT
BRANCH   1   3
ATOM      3  C   UNL     1       1.795   7.883  21.052  0.00  0.00    +0.000 C 
BRANCH   3   4
ATOM      4  C   UNL     1       1.760   6.456  20.438  0.00  0.00    +0.000 C 
BRANCH   4   5
ATOM      5  O   UNL     1       2.479   5.515  21.250  0.00  0.00    +0.000 OA
ATOM      6  H   UNL     1       1.872   4.798  21.492  0.00  0.00    +0.000 HD
ENDBRANCH   4   5
BRANCH   4   7
ATOM      7  C   UNL     1       2.379   6.478  19.024  0.00  0.00    +0.000 C 
BRANCH   7   8
ATOM      8  O   UNL     1       3.097   5.261  18.808  0.00  0.00    +0.000 OA
BRANCH   8  12
ATOM      9  C   UNL     1       5.671   5.363  15.533  0.00  0.00    +0.000 A 
ATOM     10  C   UNL     1       5.259   6.528  16.180  0.00  0.00    +0.000 A 
ATOM     11  C   UNL     1       4.386   6.457  17.268  0.00  0.00    +0.000 A 
ATOM     12  C   UNL     1       3.895   5.224  17.697  0.00  0.00    +0.000 A 
ATOM     13  C   UNL     1       4.278   4.062  17.028  0.00  0.00    +0.000 A 
ATOM     14  C   UNL     1       5.157   4.132  15.942  0.00  0.00    +0.000 A 
BRANCH   9  15
ATOM     15  O   UNL     1       6.567   5.545  14.517  0.00  0.00    +0.000 OA
BRANCH  15  17
ATOM     16  C   UNL     1       7.322   4.698  12.422  0.00  0.00    +0.000 C 
ATOM     17  C   UNL     1       7.026   4.357  13.871  0.00  0.00    +0.000 C 
ENDBRANCH  15  17
ENDBRANCH   9  15
ENDBRANCH   8  12
ENDBRANCH   7   8
ENDBRANCH   4   7
ENDBRANCH   3   4
ENDBRANCH   1   3
BRANCH   1  18
ATOM     18  C   UNL     1       0.824  10.147  21.044  0.00  0.00    +0.000 C 
BRANCH  18  19
ATOM     19  C   UNL     1      -0.383  10.934  20.638  0.00  0.00    +0.000 A 
ATOM     20  C   UNL     1      -1.011  10.978  19.363  0.00  0.00    +0.000 A 
ATOM     21  C   UNL     1      -0.743  10.145  18.164  0.00  0.00    +0.000 C 
ATOM     22  N   UNL     1      -1.953  11.926  19.310  0.00  0.00    +0.000 NA
ATOM     23  N   UNL     1      -1.967  12.450  20.551  0.00  0.00    +0.000 N 
ATOM     24  C   UNL     1      -1.163  11.763  21.430  0.00  0.00    +0.000 A 
ATOM     25  C   UNL     1      -1.172  11.954  22.901  0.00  0.00    +0.000 C 
BRANCH  23  26
ATOM     26  C   UNL     1      -2.727  13.674  20.789  0.00  0.00    +0.000 C 
BRANCH  26  27
ATOM     27  C   UNL     1      -3.979  13.402  21.584  0.00  0.00    +0.000 A 
ATOM     28  C   UNL     1      -4.145  13.962  22.859  0.00  0.00    +0.000 A 
ATOM     29  C   UNL     1      -5.349  13.822  23.537  0.00  0.00    +0.000 A 
ATOM     30  C   UNL     1      -6.409  13.111  22.960  0.00  0.00    +0.000 A 
ATOM     31 CL   UNL     1      -7.908  13.060  23.813  0.00  0.00    +0.000 Cl
ATOM     32  C   UNL     1      -6.232  12.495  21.715  0.00  0.00    +0.000 A 
ATOM     33 CL   UNL     1      -7.480  11.590  20.941  0.00  0.00    +0.000 Cl
ATOM     34  C   UNL     1      -5.015  12.630  21.038  0.00  0.00    +0.000 A 
ENDBRANCH  26  27
ENDBRANCH  23  26
ENDBRANCH  18  19
ENDBRANCH   1  18
TORSDOF 12
ENDMDL
MODEL 6
REMARK VINA RESULT:      -7.2      3.000      5.155
REMARK  Name = 
REMARK  16 active torsions:
REMARK  status: ('A' for Active; 'I' for Inactive)
REMARK    1  A    between atoms: C_1  and  C_2
REMARK    2  A    between atoms: C_2  and  O_3
REMARK    3  A    between atoms: O_3  and  C_4
REMARK    4  A    between atoms: C_7  and  O_8
REMARK    5  A    between atoms: O_8  and  C_9
REMARK    6  A    between atoms: C_9  and  C_10
REMARK    7  A    between atoms: C_10  and  O_11
REMARK    8  A    between atoms: C_10  and  C_12
REMARK    9  A    between atoms: C_12  and  N_13
REMARK   10  A    between atoms: N_13  and  C_14
REMARK   11  A    between atoms: N_13  and  C_15
REMARK   12  A    between atoms: C_15  and  C_16
REMARK   13  A    between atoms: C_17  and  C_18
REMARK   14  A    between atoms: N_20  and  C_21
REMARK   15  A    between atoms: C_21  and  C_22
REMARK   16  A    between atoms: C_30  and  C_31
REMARK                            x       y       z     vdW  Elec       q    Type
REMARK                         _______ _______ _______ _____ _____    ______ ____
ROOT
ATOM      1  N   UNL     1       0.576   9.638  20.284  0.00  0.00    +0.000 NA
ATOM      2  C   UNL     1       1.341   8.480  20.756  0.00  0.00    +0.000 C 
ENDROOT
BRANCH   1   3
ATOM      3  C   UNL     1       0.650   9.773  18.808  0.00  0.00    +0.000 C 
BRANCH   3   4
ATOM      4  C   UNL     1       2.083   9.868  18.213  0.00  0.00    +0.000 C 
BRANCH   4   5
ATOM      5  O   UNL     1       2.242  11.046  17.408  0.00  0.00    +0.000 OA
ATOM      6  H   UNL     1       1.589  11.013  16.691  0.00  0.00    +0.000 HD
ENDBRANCH   4   5
BRANCH   4   7
ATOM      7  C   UNL     1       2.376   8.623  17.348  0.00  0.00    +0.000 C 
BRANCH   7   8
ATOM      8  O   UNL     1       3.455   7.891  17.931  0.00  0.00    +0.000 OA
BRANCH   8  12
ATOM      9  C   UNL     1       3.525   3.735  17.640  0.00  0.00    +0.000 A 
ATOM     10  C   UNL     1       4.596   4.520  17.211  0.00  0.00    +0.000 A 
ATOM     11  C   UNL     1       4.532   5.911  17.313  0.00  0.00    +0.000 A 
ATOM     12  C   UNL     1       3.389   6.529  17.816  0.00  0.00    +0.000 A 
ATOM     13  C   UNL     1       2.303   5.747  18.212  0.00  0.00    +0.000 A 
ATOM     14  C   UNL     1       2.368   4.354  18.115  0.00  0.00    +0.000 A 
BRANCH   9  15
ATOM     15  O   UNL     1       3.715   2.386  17.545  0.00  0.00    +0.000 OA
BRANCH  15  17
ATOM     16  C   UNL     1       4.296   2.064  19.833  0.00  0.00    +0.000 C 
ATOM     17  C   UNL     1       3.380   1.625  18.706  0.00  0.00    +0.000 C 
ENDBRANCH  15  17
ENDBRANCH   9  15
ENDBRANCH   8  12
ENDBRANCH   7   8
ENDBRANCH   4   7
ENDBRANCH   3   4
ENDBRANCH   1   3
BRANCH   1  18
ATOM     18  C   UNL     1       1.030  10.855  20.988  0.00  0.00    +0.000 C 
BRANCH  18  19
ATOM     19  C   UNL     1      -0.100  11.442  21.774  0.00  0.00    +0.000 A 
ATOM     20  C   UNL     1      -0.840  10.839  22.829  0.00  0.00    +0.000 A 
ATOM     21  C   UNL     1      -0.586   9.554  23.527  0.00  0.00    +0.000 C 
ATOM     22  N   UNL     1      -1.896  11.581  23.179  0.00  0.00    +0.000 NA
ATOM     23  N   UNL     1      -1.805  12.674  22.396  0.00  0.00    +0.000 N 
ATOM     24  C   UNL     1      -0.644  12.713  21.663  0.00  0.00    +0.000 A 
ATOM     25  C   UNL     1      -0.162  13.900  20.915  0.00  0.00    +0.000 C 
BRANCH  23  26
ATOM     26  C   UNL     1      -2.933  13.602  22.352  0.00  0.00    +0.000 C 
BRANCH  26  27
ATOM     27  C   UNL     1      -4.062  13.061  21.513  0.00  0.00    +0.000 A 
ATOM     28  C   UNL     1      -5.369  13.024  22.020  0.00  0.00    +0.000 A 
ATOM     29  C   UNL     1      -6.430  12.650  21.206  0.00  0.00    +0.000 A 
ATOM     30  C   UNL     1      -6.207  12.296  19.870  0.00  0.00    +0.000 A 
ATOM     31 CL   UNL     1      -7.579  11.939  18.887  0.00  0.00    +0.000 Cl
ATOM     32  C   UNL     1      -4.899  12.270  19.371  0.00  0.00    +0.000 A 
ATOM     33 CL   UNL     1      -4.535  11.832  17.742  0.00  0.00    +0.000 Cl
ATOM     34  C   UNL     1      -3.831  12.638  20.196  0.00  0.00    +0.000 A 
ENDBRANCH  26  27
ENDBRANCH  23  26
ENDBRANCH  18  19
ENDBRANCH   1  18
TORSDOF 12
ENDMDL
MODEL 7
REMARK VINA RESULT:      -7.2      2.325      3.586
REMARK  Name = 
REMARK  16 active torsions:
REMARK  status: ('A' for Active; 'I' for Inactive)
REMARK    1  A    between atoms: C_1  and  C_2
REMARK    2  A    between atoms: C_2  and  O_3
REMARK    3  A    between atoms: O_3  and  C_4
REMARK    4  A    between atoms: C_7  and  O_8
REMARK    5  A    between atoms: O_8  and  C_9
REMARK    6  A    between atoms: C_9  and  C_10
REMARK    7  A    between atoms: C_10  and  O_11
REMARK    8  A    between atoms: C_10  and  C_12
REMARK    9  A    between atoms: C_12  and  N_13
REMARK   10  A    between atoms: N_13  and  C_14
REMARK   11  A    between atoms: N_13  and  C_15
REMARK   12  A    between atoms: C_15  and  C_16
REMARK   13  A    between atoms: C_17  and  C_18
REMARK   14  A    between atoms: N_20  and  C_21
REMARK   15  A    between atoms: C_21  and  C_22
REMARK   16  A    between atoms: C_30  and  C_31
REMARK                            x       y       z     vdW  Elec       q    Type
REMARK                         _______ _______ _______ _____ _____    ______ ____
ROOT
ATOM      1  N   UNL     1       2.617   7.353  18.358  0.00  0.00    +0.000 NA
ATOM      2  C   UNL     1       3.818   7.578  17.550  0.00  0.00    +0.000 C 
ENDROOT
BRANCH   1   3
ATOM      3  C   UNL     1       2.150   5.948  18.259  0.00  0.00    +0.000 C 
BRANCH   3   4
ATOM      4  C   UNL     1       2.432   5.056  19.500  0.00  0.00    +0.000 C 
BRANCH   4   5
ATOM      5  O   UNL     1       3.340   5.695  20.411  0.00  0.00    +0.000 OA
ATOM      6  H   UNL     1       2.834   6.000  21.179  0.00  0.00    +0.000 HD
ENDBRANCH   4   5
BRANCH   4   7
ATOM      7  C   UNL     1       3.033   3.707  19.051  0.00  0.00    +0.000 C 
BRANCH   7   8
ATOM      8  O   UNL     1       4.456   3.766  19.168  0.00  0.00    +0.000 OA
BRANCH   8  12
ATOM      9  C   UNL     1       6.766   4.848  15.873  0.00  0.00    +0.000 A 
ATOM     10  C   UNL     1       7.125   5.206  17.172  0.00  0.00    +0.000 A 
ATOM     11  C   UNL     1       6.321   4.836  18.252  0.00  0.00    +0.000 A 
ATOM     12  C   UNL     1       5.136   4.132  18.039  0.00  0.00    +0.000 A 
ATOM     13  C   UNL     1       4.757   3.805  16.737  0.00  0.00    +0.000 A 
ATOM     14  C   UNL     1       5.565   4.171  15.655  0.00  0.00    +0.000 A 
BRANCH   9  15
ATOM     15  O   UNL     1       7.651   5.214  14.899  0.00  0.00    +0.000 OA
BRANCH  15  17
ATOM     16  C   UNL     1       8.162   5.651  12.613  0.00  0.00    +0.000 C 
ATOM     17  C   UNL     1       7.302   4.841  13.566  0.00  0.00    +0.000 C 
ENDBRANCH  15  17
ENDBRANCH   9  15
ENDBRANCH   8  12
ENDBRANCH   7   8
ENDBRANCH   4   7
ENDBRANCH   3   4
ENDBRANCH   1   3
BRANCH   1  18
ATOM     18  C   UNL     1       1.572   8.326  17.977  0.00  0.00    +0.000 C 
BRANCH  18  19
ATOM     19  C   UNL     1       1.384   9.330  19.071  0.00  0.00    +0.000 A 
ATOM     20  C   UNL     1       0.990   9.094  20.417  0.00  0.00    +0.000 A 
ATOM     21  C   UNL     1       0.823   7.801  21.125  0.00  0.00    +0.000 C 
ATOM     22  N   UNL     1       0.746  10.237  21.067  0.00  0.00    +0.000 NA
ATOM     23  N   UNL     1       1.032  11.198  20.166  0.00  0.00    +0.000 N 
ATOM     24  C   UNL     1       1.588  10.700  19.012  0.00  0.00    +0.000 A 
ATOM     25  C   UNL     1       2.226  11.531  17.961  0.00  0.00    +0.000 C 
BRANCH  23  26
ATOM     26  C   UNL     1       0.658  12.577  20.468  0.00  0.00    +0.000 C 
BRANCH  26  27
ATOM     27  C   UNL     1      -0.839  12.744  20.526  0.00  0.00    +0.000 A 
ATOM     28  C   UNL     1      -1.648  12.250  19.494  0.00  0.00    +0.000 A 
ATOM     29  C   UNL     1      -3.032  12.284  19.607  0.00  0.00    +0.000 A 
ATOM     30  C   UNL     1      -3.637  12.823  20.749  0.00  0.00    +0.000 A 
ATOM     31 CL   UNL     1      -5.356  12.744  20.869  0.00  0.00    +0.000 Cl
ATOM     32  C   UNL     1      -2.839  13.376  21.758  0.00  0.00    +0.000 A 
ATOM     33 CL   UNL     1      -3.502  14.072  23.191  0.00  0.00    +0.000 Cl
ATOM     34  C   UNL     1      -1.445  13.348  21.638  0.00  0.00    +0.000 A 
ENDBRANCH  26  27
ENDBRANCH  23  26
ENDBRANCH  18  19
ENDBRANCH   1  18
TORSDOF 12
ENDMDL
MODEL 8
REMARK VINA RESULT:      -7.1      4.185      9.253
REMARK  Name = 
REMARK  16 active torsions:
REMARK  status: ('A' for Active; 'I' for Inactive)
REMARK    1  A    between atoms: C_1  and  C_2
REMARK    2  A    between atoms: C_2  and  O_3
REMARK    3  A    between atoms: O_3  and  C_4
REMARK    4  A    between atoms: C_7  and  O_8
REMARK    5  A    between atoms: O_8  and  C_9
REMARK    6  A    between atoms: C_9  and  C_10
REMARK    7  A    between atoms: C_10  and  O_11
REMARK    8  A    between atoms: C_10  and  C_12
REMARK    9  A    between atoms: C_12  and  N_13
REMARK   10  A    between atoms: N_13  and  C_14
REMARK   11  A    between atoms: N_13  and  C_15
REMARK   12  A    between atoms: C_15  and  C_16
REMARK   13  A    between atoms: C_17  and  C_18
REMARK   14  A    between atoms: N_20  and  C_21
REMARK   15  A    between atoms: C_21  and  C_22
REMARK   16  A    between atoms: C_30  and  C_31
REMARK                            x       y       z     vdW  Elec       q    Type
REMARK                         _______ _______ _______ _____ _____    ______ ____
ROOT
ATOM      1  N   UNL     1       2.074   5.861  20.244  0.00  0.00    +0.000 NA
ATOM      2  C   UNL     1       2.285   4.722  21.142  0.00  0.00    +0.000 C 
ENDROOT
BRANCH   1   3
ATOM      3  C   UNL     1       1.163   6.866  20.845  0.00  0.00    +0.000 C 
BRANCH   3   4
ATOM      4  C   UNL     1       1.685   8.330  20.849  0.00  0.00    +0.000 C 
BRANCH   4   5
ATOM      5  O   UNL     1       1.179   9.067  21.973  0.00  0.00    +0.000 OA
ATOM      6  H   UNL     1       0.851   8.432  22.628  0.00  0.00    +0.000 HD
ENDBRANCH   4   5
BRANCH   4   7
ATOM      7  C   UNL     1       1.261   9.042  19.547  0.00  0.00    +0.000 C 
BRANCH   7   8
ATOM      8  O   UNL     1       0.478  10.190  19.874  0.00  0.00    +0.000 OA
BRANCH   8  12
ATOM      9  C   UNL     1      -2.861  11.137  17.567  0.00  0.00    +0.000 A 
ATOM     10  C   UNL     1      -2.678  11.663  18.847  0.00  0.00    +0.000 A 
ATOM     11  C   UNL     1      -1.552  11.314  19.596  0.00  0.00    +0.000 A 
ATOM     12  C   UNL     1      -0.617  10.415  19.085  0.00  0.00    +0.000 A 
ATOM     13  C   UNL     1      -0.817   9.861  17.821  0.00  0.00    +0.000 A 
ATOM     14  C   UNL     1      -1.941  10.214  17.068  0.00  0.00    +0.000 A 
BRANCH   9  15
ATOM     15  O   UNL     1      -3.966  11.587  16.903  0.00  0.00    +0.000 OA
BRANCH  15  17
ATOM     16  C   UNL     1      -6.051  12.727  17.075  0.00  0.00    +0.000 C 
ATOM     17  C   UNL     1      -5.173  11.640  17.666  0.00  0.00    +0.000 C 
ENDBRANCH  15  17
ENDBRANCH   9  15
ENDBRANCH   8  12
ENDBRANCH   7   8
ENDBRANCH   4   7
ENDBRANCH   3   4
ENDBRANCH   1   3
BRANCH   1  18
ATOM     18  C   UNL     1       1.597   5.378  18.931  0.00  0.00    +0.000 C 
BRANCH  18  19
ATOM     19  C   UNL     1       2.700   4.658  18.220  0.00  0.00    +0.000 A 
ATOM     20  C   UNL     1       2.816   3.264  17.968  0.00  0.00    +0.000 A 
ATOM     21  C   UNL     1       1.816   2.191  18.194  0.00  0.00    +0.000 C 
ATOM     22  N   UNL     1       4.018   2.951  17.470  0.00  0.00    +0.000 NA
ATOM     23  N   UNL     1       4.647   4.137  17.353  0.00  0.00    +0.000 N 
ATOM     24  C   UNL     1       3.827   5.206  17.625  0.00  0.00    +0.000 A 
ATOM     25  C   UNL     1       4.169   6.621  17.339  0.00  0.00    +0.000 C 
BRANCH  23  26
ATOM     26  C   UNL     1       6.076   4.147  17.049  0.00  0.00    +0.000 C 
BRANCH  26  27
ATOM     27  C   UNL     1       6.327   4.383  15.582  0.00  0.00    +0.000 A 
ATOM     28  C   UNL     1       7.440   5.127  15.164  0.00  0.00    +0.000 A 
ATOM     29  C   UNL     1       7.748   5.235  13.814  0.00  0.00    +0.000 A 
ATOM     30  C   UNL     1       6.944   4.611  12.852  0.00  0.00    +0.000 A 
ATOM     31 CL   UNL     1       7.438   4.702  11.201  0.00  0.00    +0.000 Cl
ATOM     32  C   UNL     1       5.795   3.919  13.255  0.00  0.00    +0.000 A 
ATOM     33 CL   UNL     1       4.743   3.135  12.135  0.00  0.00    +0.000 Cl
ATOM     34  C   UNL     1       5.483   3.820  14.615  0.00  0.00    +0.000 A 
ENDBRANCH  26  27
ENDBRANCH  23  26
ENDBRANCH  18  19
ENDBRANCH   1  18
TORSDOF 12
ENDMDL
MODEL 9
REMARK VINA RESULT:      -7.1      2.270      3.685
REMARK  Name = 
REMARK  16 active torsions:
REMARK  status: ('A' for Active; 'I' for Inactive)
REMARK    1  A    between atoms: C_1  and  C_2
REMARK    2  A    between atoms: C_2  and  O_3
REMARK    3  A    between atoms: O_3  and  C_4
REMARK    4  A    between atoms: C_7  and  O_8
REMARK    5  A    between atoms: O_8  and  C_9
REMARK    6  A    between atoms: C_9  and  C_10
REMARK    7  A    between atoms: C_10  and  O_11
REMARK    8  A    between atoms: C_10  and  C_12
REMARK    9  A    between atoms: C_12  and  N_13
REMARK   10  A    between atoms: N_13  and  C_14
REMARK   11  A    between atoms: N_13  and  C_15
REMARK   12  A    between atoms: C_15  and  C_16
REMARK   13  A    between atoms: C_17  and  C_18
REMARK   14  A    between atoms: N_20  and  C_21
REMARK   15  A    between atoms: C_21  and  C_22
REMARK   16  A    between atoms: C_30  and  C_31
REMARK                            x       y       z     vdW  Elec       q    Type
REMARK                         _______ _______ _______ _____ _____    ______ ____
ROOT
ATOM      1  N   UNL     1       2.755   5.669  19.465  0.00  0.00    +0.000 NA
ATOM      2  C   UNL     1       1.983   4.433  19.308  0.00  0.00    +0.000 C 
ENDROOT
BRANCH   1   3
ATOM      3  C   UNL     1       4.175   5.386  19.790  0.00  0.00    +0.000 C 
BRANCH   3   4
ATOM      4  C   UNL     1       4.982   4.644  18.688  0.00  0.00    +0.000 C 
BRANCH   4   5
ATOM      5  O   UNL     1       5.653   3.489  19.215  0.00  0.00    +0.000 OA
ATOM      6  H   UNL     1       6.381   3.263  18.616  0.00  0.00    +0.000 HD
ENDBRANCH   4   5
BRANCH   4   7
ATOM      7  C   UNL     1       6.027   5.598  18.071  0.00  0.00    +0.000 C 
BRANCH   7   8
ATOM      8  O   UNL     1       6.996   4.831  17.355  0.00  0.00    +0.000 OA
BRANCH   8  12
ATOM      9  C   UNL     1       6.328   3.947  13.338  0.00  0.00    +0.000 A 
ATOM     10  C   UNL     1       7.327   4.835  13.739  0.00  0.00    +0.000 A 
ATOM     11  C   UNL     1       7.514   5.116  15.094  0.00  0.00    +0.000 A 
ATOM     12  C   UNL     1       6.687   4.536  16.055  0.00  0.00    +0.000 A 
ATOM     13  C   UNL     1       5.666   3.676  15.652  0.00  0.00    +0.000 A 
ATOM     14  C   UNL     1       5.480   3.389  14.296  0.00  0.00    +0.000 A 
BRANCH   9  15
ATOM     15  O   UNL     1       6.269   3.703  11.995  0.00  0.00    +0.000 OA
BRANCH  15  17
ATOM     16  C   UNL     1       6.326   1.444  11.241  0.00  0.00    +0.000 C 
ATOM     17  C   UNL     1       5.432   2.617  11.595  0.00  0.00    +0.000 C 
ENDBRANCH  15  17
ENDBRANCH   9  15
ENDBRANCH   8  12
ENDBRANCH   7   8
ENDBRANCH   4   7
ENDBRANCH   3   4
ENDBRANCH   1   3
BRANCH   1  18
ATOM     18  C   UNL     1       2.105   6.537  20.469  0.00  0.00    +0.000 C 
BRANCH  18  19
ATOM     19  C   UNL     1       1.709   7.836  19.842  0.00  0.00    +0.000 A 
ATOM     20  C   UNL     1       2.135   8.374  18.597  0.00  0.00    +0.000 A 
ATOM     21  C   UNL     1       2.944   7.729  17.533  0.00  0.00    +0.000 C 
ATOM     22  N   UNL     1       1.723   9.636  18.437  0.00  0.00    +0.000 NA
ATOM     23  N   UNL     1       0.994   9.889  19.542  0.00  0.00    +0.000 N 
ATOM     24  C   UNL     1       0.812   8.777  20.329  0.00  0.00    +0.000 A 
ATOM     25  C   UNL     1      -0.143   8.696  21.461  0.00  0.00    +0.000 C 
BRANCH  23  26
ATOM     26  C   UNL     1       0.575  11.263  19.808  0.00  0.00    +0.000 C 
BRANCH  26  27
ATOM     27  C   UNL     1      -0.843  11.505  19.359  0.00  0.00    +0.000 A 
ATOM     28  C   UNL     1      -1.339  10.876  18.208  0.00  0.00    +0.000 A 
ATOM     29  C   UNL     1      -2.680  10.993  17.865  0.00  0.00    +0.000 A 
ATOM     30  C   UNL     1      -3.551  11.748  18.659  0.00  0.00    +0.000 A 
ATOM     31 CL   UNL     1      -5.223  11.770  18.232  0.00  0.00    +0.000 Cl
ATOM     32  C   UNL     1      -3.053  12.431  19.775  0.00  0.00    +0.000 A 
ATOM     33 CL   UNL     1      -4.054  13.394  20.798  0.00  0.00    +0.000 Cl
ATOM     34  C   UNL     1      -1.700  12.320  20.113  0.00  0.00    +0.000 A 
ENDBRANCH  26  27
ENDBRANCH  23  26
ENDBRANCH  18  19
ENDBRANCH   1  18
TORSDOF 12
ENDMDL
