MODEL 1
REMARK VINA RESULT:      -8.8      0.000      0.000
REMARK  Name = 
REMARK  6 active torsions:
REMARK  status: ('A' for Active; 'I' for Inactive)
REMARK    1  A    between atoms: C_1  and  N_2
REMARK    2  A    between atoms: N_2  and  C_3
REMARK    3  A    between atoms: C_8  and  N_9
REMARK    4  A    between atoms: C_12  and  N_13
REMARK    5  A    between atoms: N_13  and  S_14
REMARK    6  A    between atoms: S_14  and  C_17
REMARK                            x       y       z     vdW  Elec       q    Type
REMARK                         _______ _______ _______ _____ _____    ______ ____
ROOT
ATOM      1  N   UNL     1       1.993   8.109  19.271  0.00  0.00    +0.000 N 
ATOM      2  C   UNL     1       1.907   8.746  17.986  0.00  0.00    +0.000 C 
ATOM      3  C   UNL     1       1.705  10.219  18.322  0.00  0.00    +0.000 C 
ATOM      4  C   UNL     1       0.906  10.184  19.626  0.00  0.00    +0.000 C 
ATOM      5  C   UNL     1       1.366   8.883  20.245  0.00  0.00    +0.000 C 
ATOM      6  O   UNL     1       1.135   8.558  21.397  0.00  0.00    +0.000 OA
ENDROOT
BRANCH   1  12
ATOM      7  C   UNL     1       3.665   2.753  20.319  0.00  0.00    +0.000 C 
ATOM      8  C   UNL     1       2.245   2.284  20.717  0.00  0.00    +0.000 C 
ATOM      9  C   UNL     1       1.549   3.521  21.298  0.00  0.00    +0.000 C 
ATOM     10  C   UNL     1       2.181   4.601  20.480  0.00  0.00    +0.000 A 
ATOM     11  C   UNL     1       1.736   5.897  20.307  0.00  0.00    +0.000 A 
ATOM     12  C   UNL     1       2.461   6.787  19.493  0.00  0.00    +0.000 A 
ATOM     13  C   UNL     1       3.653   6.334  18.900  0.00  0.00    +0.000 A 
ATOM     14  C   UNL     1       4.115   5.025  19.105  0.00  0.00    +0.000 A 
ATOM     15  C   UNL     1       3.369   4.167  19.893  0.00  0.00    +0.000 A 
BRANCH   7  17
ATOM     16  C   UNL     1       3.392   1.644  18.185  0.00  0.00    +0.000 C 
ATOM     17  N   UNL     1       4.306   1.971  19.267  0.00  0.00    +0.000 NA
ATOM     18  H   UNL     1       5.102   2.492  18.903  0.00  0.00    +0.000 HD
ENDBRANCH   7  17
ENDBRANCH   1  12
BRANCH   4  19
ATOM     19  N   UNL     1       1.151  11.391  20.443  0.00  0.00    +0.000 NA
ATOM     20  H   UNL     1       2.128  11.585  20.671  0.00  0.00    +0.000 HD
BRANCH  19  21
ATOM     21  S   UNL     1       0.446  12.850  19.907  0.00  0.00    +0.000 S 
ATOM     22  O   UNL     1       0.224  13.604  21.130  0.00  0.00    +0.000 OA
ATOM     23  O   UNL     1       1.286  13.387  18.858  0.00  0.00    +0.000 OA
BRANCH  21  24
ATOM     24  C   UNL     1      -1.165  12.428  19.272  0.00  0.00    +0.000 A 
ATOM     25  C   UNL     1      -2.263  12.377  20.137  0.00  0.00    +0.000 A 
ATOM     26  C   UNL     1      -3.540  12.061  19.658  0.00  0.00    +0.000 A 
ATOM     27  C   UNL     1      -3.702  11.711  18.304  0.00  0.00    +0.000 A 
ATOM     28  C   UNL     1      -4.810  11.310  17.506  0.00  0.00    +0.000 A 
ATOM     29 CL   UNL     1      -6.416  11.148  18.041  0.00  0.00    +0.000 Cl
ATOM     30  C   UNL     1      -4.345  11.058  16.237  0.00  0.00    +0.000 A 
ATOM     31  N   UNL     1      -2.999  11.308  16.225  0.00  0.00    +0.000 N 
ATOM     32  C   UNL     1      -2.578  11.719  17.472  0.00  0.00    +0.000 A 
ATOM     33  C   UNL     1      -1.297  12.084  17.920  0.00  0.00    +0.000 A 
ATOM     34  H   UNL     1      -2.393  11.196  15.424  0.00  0.00    +0.000 HD
ENDBRANCH  21  24
ENDBRANCH  19  21
ENDBRANCH   4  19
TORSDOF 5
ENDMDL
MODEL 2
REMARK VINA RESULT:      -8.6      2.369      2.870
REMARK  Name = 
REMARK  6 active torsions:
REMARK  status: ('A' for Active; 'I' for Inactive)
REMARK    1  A    between atoms: C_1  and  N_2
REMARK    2  A    between atoms: N_2  and  C_3
REMARK    3  A    between atoms: C_8  and  N_9
REMARK    4  A    between atoms: C_12  and  N_13
REMARK    5  A    between atoms: N_13  and  S_14
REMARK    6  A    between atoms: S_14  and  C_17
REMARK                            x       y       z     vdW  Elec       q    Type
REMARK                         _______ _______ _______ _____ _____    ______ ____
ROOT
ATOM      1  N   UNL     1       2.097   8.051  19.042  0.00  0.00    +0.000 N 
ATOM      2  C   UNL     1       2.138   8.658  17.741  0.00  0.00    +0.000 C 
ATOM      3  C   UNL     1       1.895  10.136  18.019  0.00  0.00    +0.000 C 
ATOM      4  C   UNL     1       0.969  10.125  19.236  0.00  0.00    +0.000 C 
ATOM      5  C   UNL     1       1.371   8.842  19.929  0.00  0.00    +0.000 C 
ATOM      6  O   UNL     1       1.025   8.542  21.060  0.00  0.00    +0.000 OA
ENDROOT
BRANCH   1  12
ATOM      7  C   UNL     1       3.689   2.738  20.392  0.00  0.00    +0.000 C 
ATOM      8  C   UNL     1       2.249   2.292  20.747  0.00  0.00    +0.000 C 
ATOM      9  C   UNL     1       1.535   3.556  21.242  0.00  0.00    +0.000 C 
ATOM     10  C   UNL     1       2.210   4.598  20.408  0.00  0.00    +0.000 A 
ATOM     11  C   UNL     1       1.780   5.887  20.159  0.00  0.00    +0.000 A 
ATOM     12  C   UNL     1       2.546   6.738  19.341  0.00  0.00    +0.000 A 
ATOM     13  C   UNL     1       3.761   6.255  18.822  0.00  0.00    +0.000 A 
ATOM     14  C   UNL     1       4.206   4.954  19.104  0.00  0.00    +0.000 A 
ATOM     15  C   UNL     1       3.420   4.134  19.893  0.00  0.00    +0.000 A 
BRANCH   7  17
ATOM     16  C   UNL     1       3.495   1.509  18.316  0.00  0.00    +0.000 C 
ATOM     17  N   UNL     1       4.372   1.910  19.405  0.00  0.00    +0.000 NA
ATOM     18  H   UNL     1       5.171   2.421  19.035  0.00  0.00    +0.000 HD
ENDBRANCH   7  17
ENDBRANCH   1  12
BRANCH   4  19
ATOM     19  N   UNL     1       1.124  11.353  20.045  0.00  0.00    +0.000 NA
ATOM     20  H   UNL     1       2.078  11.707  20.140  0.00  0.00    +0.000 HD
BRANCH  19  21
ATOM     21  S   UNL     1       0.118  12.675  19.655  0.00  0.00    +0.000 S 
ATOM     22  O   UNL     1       0.944  13.840  19.928  0.00  0.00    +0.000 OA
ATOM     23  O   UNL     1      -0.413  12.448  18.328  0.00  0.00    +0.000 OA
BRANCH  21  24
ATOM     24  C   UNL     1      -1.191  12.687  20.866  0.00  0.00    +0.000 A 
ATOM     25  C   UNL     1      -1.028  12.002  22.074  0.00  0.00    +0.000 A 
ATOM     26  C   UNL     1      -2.036  12.010  23.045  0.00  0.00    +0.000 A 
ATOM     27  C   UNL     1      -3.259  12.646  22.764  0.00  0.00    +0.000 A 
ATOM     28  C   UNL     1      -4.480  12.815  23.476  0.00  0.00    +0.000 A 
ATOM     29 CL   UNL     1      -4.807  12.237  25.042  0.00  0.00    +0.000 Cl
ATOM     30  C   UNL     1      -5.349  13.507  22.666  0.00  0.00    +0.000 A 
ATOM     31  N   UNL     1      -4.698  13.784  21.493  0.00  0.00    +0.000 N 
ATOM     32  C   UNL     1      -3.415  13.279  21.526  0.00  0.00    +0.000 A 
ATOM     33  C   UNL     1      -2.398  13.329  20.559  0.00  0.00    +0.000 A 
ATOM     34  H   UNL     1      -5.100  14.274  20.706  0.00  0.00    +0.000 HD
ENDBRANCH  21  24
ENDBRANCH  19  21
ENDBRANCH   4  19
TORSDOF 5
ENDMDL
MODEL 3
REMARK VINA RESULT:      -8.6      5.012      9.751
REMARK  Name = 
REMARK  6 active torsions:
REMARK  status: ('A' for Active; 'I' for Inactive)
REMARK    1  A    between atoms: C_1  and  N_2
REMARK    2  A    between atoms: N_2  and  C_3
REMARK    3  A    between atoms: C_8  and  N_9
REMARK    4  A    between atoms: C_12  and  N_13
REMARK    5  A    between atoms: N_13  and  S_14
REMARK    6  A    between atoms: S_14  and  C_17
REMARK                            x       y       z     vdW  Elec       q    Type
REMARK                         _______ _______ _______ _____ _____    ______ ____
ROOT
ATOM      1  N   UNL     1       1.986   8.200  18.999  0.00  0.00    +0.000 N 
ATOM      2  C   UNL     1       2.892   8.505  17.926  0.00  0.00    +0.000 C 
ATOM      3  C   UNL     1       3.384   7.138  17.464  0.00  0.00    +0.000 C 
ATOM      4  C   UNL     1       3.385   6.305  18.747  0.00  0.00    +0.000 C 
ATOM      5  C   UNL     1       2.279   6.954  19.548  0.00  0.00    +0.000 C 
ATOM      6  O   UNL     1       1.799   6.473  20.561  0.00  0.00    +0.000 OA
ENDROOT
BRANCH   1  12
ATOM      7  C   UNL     1      -1.693  11.771  21.509  0.00  0.00    +0.000 C 
ATOM      8  C   UNL     1      -1.047  11.610  22.906  0.00  0.00    +0.000 C 
ATOM      9  C   UNL     1      -0.453  10.196  22.927  0.00  0.00    +0.000 C 
ATOM     10  C   UNL     1      -0.065  10.040  21.491  0.00  0.00    +0.000 A 
ATOM     11  C   UNL     1       0.808   9.117  20.949  0.00  0.00    +0.000 A 
ATOM     12  C   UNL     1       1.060   9.115  19.565  0.00  0.00    +0.000 A 
ATOM     13  C   UNL     1       0.379  10.044  18.758  0.00  0.00    +0.000 A 
ATOM     14  C   UNL     1      -0.530  10.959  19.312  0.00  0.00    +0.000 A 
ATOM     15  C   UNL     1      -0.740  10.951  20.679  0.00  0.00    +0.000 A 
BRANCH   7  17
ATOM     16  C   UNL     1      -3.189  13.506  20.727  0.00  0.00    +0.000 C 
ATOM     17  N   UNL     1      -1.814  13.145  21.034  0.00  0.00    +0.000 NA
ATOM     18  H   UNL     1      -1.439  13.776  21.739  0.00  0.00    +0.000 HD
ENDBRANCH   7  17
ENDBRANCH   1  12
BRANCH   4  19
ATOM     19  N   UNL     1       3.193   4.868  18.458  0.00  0.00    +0.000 NA
ATOM     20  H   UNL     1       2.685   4.650  17.600  0.00  0.00    +0.000 HD
BRANCH  19  21
ATOM     21  S   UNL     1       4.579   3.873  18.507  0.00  0.00    +0.000 S 
ATOM     22  O   UNL     1       5.353   4.400  19.618  0.00  0.00    +0.000 OA
ATOM     23  O   UNL     1       4.134   2.497  18.512  0.00  0.00    +0.000 OA
BRANCH  21  24
ATOM     24  C   UNL     1       5.509   4.231  17.027  0.00  0.00    +0.000 A 
ATOM     25  C   UNL     1       6.453   5.262  17.032  0.00  0.00    +0.000 A 
ATOM     26  C   UNL     1       7.205   5.552  15.886  0.00  0.00    +0.000 A 
ATOM     27  C   UNL     1       6.944   4.850  14.695  0.00  0.00    +0.000 A 
ATOM     28  C   UNL     1       7.469   4.903  13.373  0.00  0.00    +0.000 A 
ATOM     29 CL   UNL     1       8.704   5.940  12.833  0.00  0.00    +0.000 Cl
ATOM     30  C   UNL     1       6.786   3.985  12.610  0.00  0.00    +0.000 A 
ATOM     31  N   UNL     1       5.877   3.359  13.421  0.00  0.00    +0.000 N 
ATOM     32  C   UNL     1       5.956   3.859  14.705  0.00  0.00    +0.000 A 
ATOM     33  C   UNL     1       5.228   3.516  15.856  0.00  0.00    +0.000 A 
ATOM     34  H   UNL     1       5.228   2.644  13.125  0.00  0.00    +0.000 HD
ENDBRANCH  21  24
ENDBRANCH  19  21
ENDBRANCH   4  19
TORSDOF 5
ENDMDL
MODEL 4
REMARK VINA RESULT:      -8.6      3.161      3.729
REMARK  Name = 
REMARK  6 active torsions:
REMARK  status: ('A' for Active; 'I' for Inactive)
REMARK    1  A    between atoms: C_1  and  N_2
REMARK    2  A    between atoms: N_2  and  C_3
REMARK    3  A    between atoms: C_8  and  N_9
REMARK    4  A    between atoms: C_12  and  N_13
REMARK    5  A    between atoms: N_13  and  S_14
REMARK    6  A    between atoms: S_14  and  C_17
REMARK                            x       y       z     vdW  Elec       q    Type
REMARK                         _______ _______ _______ _____ _____    ______ ____
ROOT
ATOM      1  N   UNL     1       1.828   8.243  19.409  0.00  0.00    +0.000 N 
ATOM      2  C   UNL     1       1.589   8.914  18.161  0.00  0.00    +0.000 C 
ATOM      3  C   UNL     1       1.375  10.368  18.563  0.00  0.00    +0.000 C 
ATOM      4  C   UNL     1       0.716  10.267  19.939  0.00  0.00    +0.000 C 
ATOM      5  C   UNL     1       1.279   8.966  20.466  0.00  0.00    +0.000 C 
ATOM      6  O   UNL     1       1.178   8.599  21.625  0.00  0.00    +0.000 OA
ENDROOT
BRANCH   1  12
ATOM      7  C   UNL     1       3.773   2.923  20.109  0.00  0.00    +0.000 C 
ATOM      8  C   UNL     1       2.423   2.396  20.653  0.00  0.00    +0.000 C 
ATOM      9  C   UNL     1       1.760   3.595  21.343  0.00  0.00    +0.000 C 
ATOM     10  C   UNL     1       2.261   4.715  20.490  0.00  0.00    +0.000 A 
ATOM     11  C   UNL     1       1.759   5.999  20.404  0.00  0.00    +0.000 A 
ATOM     12  C   UNL     1       2.358   6.933  19.539  0.00  0.00    +0.000 A 
ATOM     13  C   UNL     1       3.488   6.535  18.802  0.00  0.00    +0.000 A 
ATOM     14  C   UNL     1       4.011   5.238  18.917  0.00  0.00    +0.000 A 
ATOM     15  C   UNL     1       3.386   4.336  19.759  0.00  0.00    +0.000 A 
BRANCH   7  17
ATOM     16  C   UNL     1       3.273   1.715  18.072  0.00  0.00    +0.000 C 
ATOM     17  N   UNL     1       4.314   2.189  18.970  0.00  0.00    +0.000 NA
ATOM     18  H   UNL     1       4.961   2.790  18.463  0.00  0.00    +0.000 HD
ENDBRANCH   7  17
ENDBRANCH   1  12
BRANCH   4  19
ATOM     19  N   UNL     1       1.005  11.458  20.766  0.00  0.00    +0.000 NA
ATOM     20  H   UNL     1       1.770  12.051  20.442  0.00  0.00    +0.000 HD
BRANCH  19  21
ATOM     21  S   UNL     1      -0.310  12.476  21.151  0.00  0.00    +0.000 S 
ATOM     22  O   UNL     1      -1.468  11.767  20.631  0.00  0.00    +0.000 OA
ATOM     23  O   UNL     1      -0.220  12.799  22.558  0.00  0.00    +0.000 OA
BRANCH  21  24
ATOM     24  C   UNL     1      -0.123  13.941  20.152  0.00  0.00    +0.000 A 
ATOM     25  C   UNL     1       1.092  14.192  19.507  0.00  0.00    +0.000 A 
ATOM     26  C   UNL     1       1.257  15.328  18.705  0.00  0.00    +0.000 A 
ATOM     27  C   UNL     1       0.214  16.268  18.618  0.00  0.00    +0.000 A 
ATOM     28  C   UNL     1       0.050  17.515  17.951  0.00  0.00    +0.000 A 
ATOM     29 CL   UNL     1       1.204  18.271  16.956  0.00  0.00    +0.000 Cl
ATOM     30  C   UNL     1      -1.194  18.005  18.271  0.00  0.00    +0.000 A 
ATOM     31  N   UNL     1      -1.804  17.095  19.093  0.00  0.00    +0.000 N 
ATOM     32  C   UNL     1      -0.973  16.018  19.316  0.00  0.00    +0.000 A 
ATOM     33  C   UNL     1      -1.179  14.858  20.082  0.00  0.00    +0.000 A 
ATOM     34  H   UNL     1      -2.726  17.199  19.495  0.00  0.00    +0.000 HD
ENDBRANCH  21  24
ENDBRANCH  19  21
ENDBRANCH   4  19
TORSDOF 5
ENDMDL
MODEL 5
REMARK VINA RESULT:      -8.5      1.138      1.585
REMARK  Name = 
REMARK  6 active torsions:
REMARK  status: ('A' for Active; 'I' for Inactive)
REMARK    1  A    between atoms: C_1  and  N_2
REMARK    2  A    between atoms: N_2  and  C_3
REMARK    3  A    between atoms: C_8  and  N_9
REMARK    4  A    between atoms: C_12  and  N_13
REMARK    5  A    between atoms: N_13  and  S_14
REMARK    6  A    between atoms: S_14  and  C_17
REMARK                            x       y       z     vdW  Elec       q    Type
REMARK                         _______ _______ _______ _____ _____    ______ ____
ROOT
ATOM      1  N   UNL     1       1.981   8.042  19.185  0.00  0.00    +0.000 N 
ATOM      2  C   UNL     1       1.868   8.608  17.869  0.00  0.00    +0.000 C 
ATOM      3  C   UNL     1       1.674  10.097  18.127  0.00  0.00    +0.000 C 
ATOM      4  C   UNL     1       0.903  10.135  19.447  0.00  0.00    +0.000 C 
ATOM      5  C   UNL     1       1.375   8.870  20.128  0.00  0.00    +0.000 C 
ATOM      6  O   UNL     1       1.168   8.608  21.301  0.00  0.00    +0.000 OA
ENDROOT
BRANCH   1  12
ATOM      7  C   UNL     1       3.655   2.737  20.464  0.00  0.00    +0.000 C 
ATOM      8  C   UNL     1       2.213   2.241  20.730  0.00  0.00    +0.000 C 
ATOM      9  C   UNL     1       1.438   3.470  21.223  0.00  0.00    +0.000 C 
ATOM     10  C   UNL     1       2.124   4.554  20.455  0.00  0.00    +0.000 A 
ATOM     11  C   UNL     1       1.671   5.838  20.221  0.00  0.00    +0.000 A 
ATOM     12  C   UNL     1       2.452   6.733  19.469  0.00  0.00    +0.000 A 
ATOM     13  C   UNL     1       3.705   6.300  19.000  0.00  0.00    +0.000 A 
ATOM     14  C   UNL     1       4.173   5.004  19.268  0.00  0.00    +0.000 A 
ATOM     15  C   UNL     1       3.372   4.139  19.991  0.00  0.00    +0.000 A 
BRANCH   7  17
ATOM     16  C   UNL     1       3.567   1.420  18.435  0.00  0.00    +0.000 C 
ATOM     17  N   UNL     1       4.411   1.958  19.490  0.00  0.00    +0.000 NA
ATOM     18  H   UNL     1       5.140   2.544  19.087  0.00  0.00    +0.000 HD
ENDBRANCH   7  17
ENDBRANCH   1  12
BRANCH   4  19
ATOM     19  N   UNL     1       1.166  11.385  20.191  0.00  0.00    +0.000 NA
ATOM     20  H   UNL     1       2.147  11.589  20.387  0.00  0.00    +0.000 HD
BRANCH  19  21
ATOM     21  S   UNL     1       0.450  12.814  19.591  0.00  0.00    +0.000 S 
ATOM     22  O   UNL     1       0.550  13.750  20.698  0.00  0.00    +0.000 OA
ATOM     23  O   UNL     1       1.067  13.115  18.318  0.00  0.00    +0.000 OA
BRANCH  21  24
ATOM     24  C   UNL     1      -1.285  12.459  19.384  0.00  0.00    +0.000 A 
ATOM     25  C   UNL     1      -1.749  11.935  18.173  0.00  0.00    +0.000 A 
ATOM     26  C   UNL     1      -3.104  11.635  17.992  0.00  0.00    +0.000 A 
ATOM     27  C   UNL     1      -4.021  11.943  19.015  0.00  0.00    +0.000 A 
ATOM     28  C   UNL     1      -5.431  11.817  19.159  0.00  0.00    +0.000 A 
ATOM     29 CL   UNL     1      -6.496  11.169  18.002  0.00  0.00    +0.000 Cl
ATOM     30  C   UNL     1      -5.778  12.330  20.387  0.00  0.00    +0.000 A 
ATOM     31  N   UNL     1      -4.630  12.747  21.006  0.00  0.00    +0.000 N 
ATOM     32  C   UNL     1      -3.537  12.515  20.196  0.00  0.00    +0.000 A 
ATOM     33  C   UNL     1      -2.174  12.775  20.419  0.00  0.00    +0.000 A 
ATOM     34  H   UNL     1      -4.584  13.179  21.919  0.00  0.00    +0.000 HD
ENDBRANCH  21  24
ENDBRANCH  19  21
ENDBRANCH   4  19
TORSDOF 5
ENDMDL
MODEL 6
REMARK VINA RESULT:      -8.5      4.651      9.674
REMARK  Name = 
REMARK  6 active torsions:
REMARK  status: ('A' for Active; 'I' for Inactive)
REMARK    1  A    between atoms: C_1  and  N_2
REMARK    2  A    between atoms: N_2  and  C_3
REMARK    3  A    between atoms: C_8  and  N_9
REMARK    4  A    between atoms: C_12  and  N_13
REMARK    5  A    between atoms: N_13  and  S_14
REMARK    6  A    between atoms: S_14  and  C_17
REMARK                            x       y       z     vdW  Elec       q    Type
REMARK                         _______ _______ _______ _____ _____    ______ ____
ROOT
ATOM      1  N   UNL     1       1.664   8.631  19.062  0.00  0.00    +0.000 N 
ATOM      2  C   UNL     1       2.510   8.747  17.908  0.00  0.00    +0.000 C 
ATOM      3  C   UNL     1       3.102   7.351  17.746  0.00  0.00    +0.000 C 
ATOM      4  C   UNL     1       3.209   6.839  19.183  0.00  0.00    +0.000 C 
ATOM      5  C   UNL     1       2.076   7.570  19.867  0.00  0.00    +0.000 C 
ATOM      6  O   UNL     1       1.666   7.300  20.983  0.00  0.00    +0.000 OA
ENDROOT
BRANCH   1  12
ATOM      7  C   UNL     1      -2.227  12.398  20.864  0.00  0.00    +0.000 C 
ATOM      8  C   UNL     1      -1.527  12.618  22.227  0.00  0.00    +0.000 C 
ATOM      9  C   UNL     1      -0.814  11.296  22.542  0.00  0.00    +0.000 C 
ATOM     10  C   UNL     1      -0.459  10.840  21.164  0.00  0.00    +0.000 A 
ATOM     11  C   UNL     1       0.473   9.885  20.805  0.00  0.00    +0.000 A 
ATOM     12  C   UNL     1       0.681   9.579  19.448  0.00  0.00    +0.000 A 
ATOM     13  C   UNL     1      -0.102  10.240  18.484  0.00  0.00    +0.000 A 
ATOM     14  C   UNL     1      -1.068  11.187  18.857  0.00  0.00    +0.000 A 
ATOM     15  C   UNL     1      -1.234  11.482  20.199  0.00  0.00    +0.000 A 
BRANCH   7  17
ATOM     16  C   UNL     1      -1.507  14.655  20.368  0.00  0.00    +0.000 C 
ATOM     17  N   UNL     1      -2.480  13.610  20.092  0.00  0.00    +0.000 NA
ATOM     18  H   UNL     1      -2.470  13.381  19.100  0.00  0.00    +0.000 HD
ENDBRANCH   7  17
ENDBRANCH   1  12
BRANCH   4  19
ATOM     19  N   UNL     1       3.130   5.364  19.238  0.00  0.00    +0.000 NA
ATOM     20  H   UNL     1       2.509   4.925  18.557  0.00  0.00    +0.000 HD
BRANCH  19  21
ATOM     21  S   UNL     1       4.605   4.504  19.223  0.00  0.00    +0.000 S 
ATOM     22  O   UNL     1       5.549   5.414  19.850  0.00  0.00    +0.000 OA
ATOM     23  O   UNL     1       4.359   3.197  19.791  0.00  0.00    +0.000 OA
BRANCH  21  24
ATOM     24  C   UNL     1       5.092   4.369  17.513  0.00  0.00    +0.000 A 
ATOM     25  C   UNL     1       4.409   3.494  16.662  0.00  0.00    +0.000 A 
ATOM     26  C   UNL     1       4.764   3.383  15.312  0.00  0.00    +0.000 A 
ATOM     27  C   UNL     1       5.875   4.100  14.830  0.00  0.00    +0.000 A 
ATOM     28  C   UNL     1       6.526   4.196  13.568  0.00  0.00    +0.000 A 
ATOM     29 CL   UNL     1       6.064   3.387  12.145  0.00  0.00    +0.000 Cl
ATOM     30  C   UNL     1       7.602   5.040  13.711  0.00  0.00    +0.000 A 
ATOM     31  N   UNL     1       7.622   5.477  15.009  0.00  0.00    +0.000 N 
ATOM     32  C   UNL     1       6.573   4.928  15.716  0.00  0.00    +0.000 A 
ATOM     33  C   UNL     1       6.201   5.095  17.060  0.00  0.00    +0.000 A 
ATOM     34  H   UNL     1       8.312   6.101  15.403  0.00  0.00    +0.000 HD
ENDBRANCH  21  24
ENDBRANCH  19  21
ENDBRANCH   4  19
TORSDOF 5
ENDMDL
MODEL 7
REMARK VINA RESULT:      -8.5      3.703      5.122
REMARK  Name = 
REMARK  6 active torsions:
REMARK  status: ('A' for Active; 'I' for Inactive)
REMARK    1  A    between atoms: C_1  and  N_2
REMARK    2  A    between atoms: N_2  and  C_3
REMARK    3  A    between atoms: C_8  and  N_9
REMARK    4  A    between atoms: C_12  and  N_13
REMARK    5  A    between atoms: N_13  and  S_14
REMARK    6  A    between atoms: S_14  and  C_17
REMARK                            x       y       z     vdW  Elec       q    Type
REMARK                         _______ _______ _______ _____ _____    ______ ____
ROOT
ATOM      1  N   UNL     1       1.703   8.154  19.704  0.00  0.00    +0.000 N 
ATOM      2  C   UNL     1       1.349   8.186  21.096  0.00  0.00    +0.000 C 
ATOM      3  C   UNL     1       0.092   9.047  21.134  0.00  0.00    +0.000 C 
ATOM      4  C   UNL     1       0.307  10.046  19.996  0.00  0.00    +0.000 C 
ATOM      5  C   UNL     1       1.169   9.255  19.038  0.00  0.00    +0.000 C 
ATOM      6  O   UNL     1       1.407   9.599  17.892  0.00  0.00    +0.000 OA
ENDROOT
BRANCH   1  12
ATOM      7  C   UNL     1       5.462   4.694  17.159  0.00  0.00    +0.000 C 
ATOM      8  C   UNL     1       6.030   5.815  16.255  0.00  0.00    +0.000 C 
ATOM      9  C   UNL     1       4.871   6.795  16.033  0.00  0.00    +0.000 C 
ATOM     10  C   UNL     1       4.150   6.667  17.337  0.00  0.00    +0.000 A 
ATOM     11  C   UNL     1       3.215   7.532  17.872  0.00  0.00    +0.000 A 
ATOM     12  C   UNL     1       2.634   7.254  19.123  0.00  0.00    +0.000 A 
ATOM     13  C   UNL     1       3.003   6.070  19.786  0.00  0.00    +0.000 A 
ATOM     14  C   UNL     1       3.931   5.181  19.222  0.00  0.00    +0.000 A 
ATOM     15  C   UNL     1       4.501   5.492  18.001  0.00  0.00    +0.000 A 
BRANCH   7  17
ATOM     16  C   UNL     1       7.738   4.654  17.982  0.00  0.00    +0.000 C 
ATOM     17  N   UNL     1       6.450   3.978  17.958  0.00  0.00    +0.000 NA
ATOM     18  H   UNL     1       6.097   3.871  18.907  0.00  0.00    +0.000 HD
ENDBRANCH   7  17
ENDBRANCH   1  12
BRANCH   4  19
ATOM     19  N   UNL     1      -0.980  10.518  19.441  0.00  0.00    +0.000 NA
ATOM     20  H   UNL     1      -1.820  10.136  19.878  0.00  0.00    +0.000 HD
BRANCH  19  21
ATOM     21  S   UNL     1      -1.192  12.206  19.297  0.00  0.00    +0.000 S 
ATOM     22  O   UNL     1      -1.566  12.396  17.905  0.00  0.00    +0.000 OA
ATOM     23  O   UNL     1      -2.079  12.630  20.358  0.00  0.00    +0.000 OA
BRANCH  21  24
ATOM     24  C   UNL     1       0.423  12.936  19.493  0.00  0.00    +0.000 A 
ATOM     25  C   UNL     1       0.849  13.354  20.758  0.00  0.00    +0.000 A 
ATOM     26  C   UNL     1       2.118  13.916  20.938  0.00  0.00    +0.000 A 
ATOM     27  C   UNL     1       2.940  14.137  19.817  0.00  0.00    +0.000 A 
ATOM     28  C   UNL     1       4.232  14.703  19.625  0.00  0.00    +0.000 A 
ATOM     29 CL   UNL     1       5.241  15.316  20.849  0.00  0.00    +0.000 Cl
ATOM     30  C   UNL     1       4.505  14.685  18.278  0.00  0.00    +0.000 A 
ATOM     31  N   UNL     1       3.437  14.112  17.641  0.00  0.00    +0.000 N 
ATOM     32  C   UNL     1       2.467  13.757  18.556  0.00  0.00    +0.000 A 
ATOM     33  C   UNL     1       1.219  13.143  18.359  0.00  0.00    +0.000 A 
ATOM     34  H   UNL     1       3.357  13.979  16.643  0.00  0.00    +0.000 HD
ENDBRANCH  21  24
ENDBRANCH  19  21
ENDBRANCH   4  19
TORSDOF 5
ENDMDL
MODEL 8
REMARK VINA RESULT:      -8.5      3.264      4.182
REMARK  Name = 
REMARK  6 active torsions:
REMARK  status: ('A' for Active; 'I' for Inactive)
REMARK    1  A    between atoms: C_1  and  N_2
REMARK    2  A    between atoms: N_2  and  C_3
REMARK    3  A    between atoms: C_8  and  N_9
REMARK    4  A    between atoms: C_12  and  N_13
REMARK    5  A    between atoms: N_13  and  S_14
REMARK    6  A    between atoms: S_14  and  C_17
REMARK                            x       y       z     vdW  Elec       q    Type
REMARK                         _______ _______ _______ _____ _____    ______ ____
ROOT
ATOM      1  N   UNL     1       1.639   8.766  19.256  0.00  0.00    +0.000 N 
ATOM      2  C   UNL     1       1.039   9.547  18.209  0.00  0.00    +0.000 C 
ATOM      3  C   UNL     1       0.761  10.891  18.870  0.00  0.00    +0.000 C 
ATOM      4  C   UNL     1       0.459  10.521  20.323  0.00  0.00    +0.000 C 
ATOM      5  C   UNL     1       1.274   9.260  20.506  0.00  0.00    +0.000 C 
ATOM      6  O   UNL     1       1.489   8.739  21.587  0.00  0.00    +0.000 OA
ENDROOT
BRANCH   1  12
ATOM      7  C   UNL     1       4.510   3.936  18.248  0.00  0.00    +0.000 C 
ATOM      8  C   UNL     1       5.514   4.619  17.288  0.00  0.00    +0.000 C 
ATOM      9  C   UNL     1       4.748   5.784  16.649  0.00  0.00    +0.000 C 
ATOM     10  C   UNL     1       3.841   6.166  17.774  0.00  0.00    +0.000 A 
ATOM     11  C   UNL     1       3.142   7.348  17.929  0.00  0.00    +0.000 A 
ATOM     12  C   UNL     1       2.330   7.541  19.061  0.00  0.00    +0.000 A 
ATOM     13  C   UNL     1       2.225   6.497  19.998  0.00  0.00    +0.000 A 
ATOM     14  C   UNL     1       2.914   5.288  19.818  0.00  0.00    +0.000 A 
ATOM     15  C   UNL     1       3.723   5.136  18.706  0.00  0.00    +0.000 A 
BRANCH   7  17
ATOM     16  C   UNL     1       4.299   2.069  19.774  0.00  0.00    +0.000 C 
ATOM     17  N   UNL     1       5.110   3.202  19.356  0.00  0.00    +0.000 NA
ATOM     18  H   UNL     1       6.037   2.881  19.081  0.00  0.00    +0.000 HD
ENDBRANCH   7  17
ENDBRANCH   1  12
BRANCH   4  19
ATOM     19  N   UNL     1       0.795  11.627  21.245  0.00  0.00    +0.000 NA
ATOM     20  H   UNL     1       1.623  12.174  21.001  0.00  0.00    +0.000 HD
BRANCH  19  21
ATOM     21  S   UNL     1      -0.453  12.724  21.633  0.00  0.00    +0.000 S 
ATOM     22  O   UNL     1      -1.668  12.030  21.237  0.00  0.00    +0.000 OA
ATOM     23  O   UNL     1      -0.262  13.142  23.004  0.00  0.00    +0.000 OA
BRANCH  21  24
ATOM     24  C   UNL     1      -0.274  14.106  20.520  0.00  0.00    +0.000 A 
ATOM     25  C   UNL     1       0.943  14.319  19.865  0.00  0.00    +0.000 A 
ATOM     26  C   UNL     1       1.103  15.388  18.976  0.00  0.00    +0.000 A 
ATOM     27  C   UNL     1       0.049  16.306  18.805  0.00  0.00    +0.000 A 
ATOM     28  C   UNL     1      -0.123  17.492  18.038  0.00  0.00    +0.000 A 
ATOM     29 CL   UNL     1       1.031  18.179  16.994  0.00  0.00    +0.000 Cl
ATOM     30  C   UNL     1      -1.375  17.991  18.308  0.00  0.00    +0.000 A 
ATOM     31  N   UNL     1      -1.982  17.144  19.197  0.00  0.00    +0.000 N 
ATOM     32  C   UNL     1      -1.140  16.098  19.513  0.00  0.00    +0.000 A 
ATOM     33  C   UNL     1      -1.340  15.002  20.369  0.00  0.00    +0.000 A 
ATOM     34  H   UNL     1      -2.908  17.270  19.582  0.00  0.00    +0.000 HD
ENDBRANCH  21  24
ENDBRANCH  19  21
ENDBRANCH   4  19
TORSDOF 5
ENDMDL
MODEL 9
REMARK VINA RESULT:      -8.4      3.668      4.890
REMARK  Name = 
REMARK  6 active torsions:
REMARK  status: ('A' for Active; 'I' for Inactive)
REMARK    1  A    between atoms: C_1  and  N_2
REMARK    2  A    between atoms: N_2  and  C_3
REMARK    3  A    between atoms: C_8  and  N_9
REMARK    4  A    between atoms: C_12  and  N_13
REMARK    5  A    between atoms: N_13  and  S_14
REMARK    6  A    between atoms: S_14  and  C_17
REMARK                            x       y       z     vdW  Elec       q    Type
REMARK                         _______ _______ _______ _____ _____    ______ ____
ROOT
ATOM      1  N   UNL     1       1.570   8.095  20.218  0.00  0.00    +0.000 N 
ATOM      2  C   UNL     1       1.355   8.785  21.459  0.00  0.00    +0.000 C 
ATOM      3  C   UNL     1       0.491   9.978  21.069  0.00  0.00    +0.000 C 
ATOM      4  C   UNL     1       0.959  10.313  19.652  0.00  0.00    +0.000 C 
ATOM      5  C   UNL     1       1.413   8.964  19.141  0.00  0.00    +0.000 C 
ATOM      6  O   UNL     1       1.671   8.730  17.972  0.00  0.00    +0.000 OA
ENDROOT
BRANCH   1  12
ATOM      7  C   UNL     1       3.411   2.701  19.897  0.00  0.00    +0.000 C 
ATOM      8  C   UNL     1       2.026   2.105  20.248  0.00  0.00    +0.000 C 
ATOM      9  C   UNL     1       1.340   3.149  21.137  0.00  0.00    +0.000 C 
ATOM     10  C   UNL     1       1.900   4.410  20.563  0.00  0.00    +0.000 A 
ATOM     11  C   UNL     1       1.419   5.696  20.720  0.00  0.00    +0.000 A 
ATOM     12  C   UNL     1       2.077   6.774  20.100  0.00  0.00    +0.000 A 
ATOM     13  C   UNL     1       3.241   6.512  19.356  0.00  0.00    +0.000 A 
ATOM     14  C   UNL     1       3.741   5.207  19.226  0.00  0.00    +0.000 A 
ATOM     15  C   UNL     1       3.060   4.165  19.829  0.00  0.00    +0.000 A 
BRANCH   7  17
ATOM     16  C   UNL     1       3.024   2.054  17.596  0.00  0.00    +0.000 C 
ATOM     17  N   UNL     1       4.005   2.207  18.660  0.00  0.00    +0.000 NA
ATOM     18  H   UNL     1       4.740   2.847  18.364  0.00  0.00    +0.000 HD
ENDBRANCH   7  17
ENDBRANCH   1  12
BRANCH   4  19
ATOM     19  N   UNL     1      -0.114  10.956  18.865  0.00  0.00    +0.000 NA
ATOM     20  H   UNL     1      -1.027  10.502  18.902  0.00  0.00    +0.000 HD
BRANCH  19  21
ATOM     21  S   UNL     1      -0.358  12.629  19.104  0.00  0.00    +0.000 S 
ATOM     22  O   UNL     1      -0.819  13.106  17.811  0.00  0.00    +0.000 OA
ATOM     23  O   UNL     1      -1.184  12.790  20.281  0.00  0.00    +0.000 OA
BRANCH  21  24
ATOM     24  C   UNL     1       1.256  13.342  19.362  0.00  0.00    +0.000 A 
ATOM     25  C   UNL     1       1.647  13.732  20.646  0.00  0.00    +0.000 A 
ATOM     26  C   UNL     1       2.915  14.281  20.874  0.00  0.00    +0.000 A 
ATOM     27  C   UNL     1       3.771  14.518  19.782  0.00  0.00    +0.000 A 
ATOM     28  C   UNL     1       5.071  15.078  19.639  0.00  0.00    +0.000 A 
ATOM     29 CL   UNL     1       6.049  15.658  20.904  0.00  0.00    +0.000 Cl
ATOM     30  C   UNL     1       5.383  15.085  18.301  0.00  0.00    +0.000 A 
ATOM     31  N   UNL     1       4.330  14.533  17.622  0.00  0.00    +0.000 N 
ATOM     32  C   UNL     1       3.332  14.167  18.501  0.00  0.00    +0.000 A 
ATOM     33  C   UNL     1       2.086  13.566  18.256  0.00  0.00    +0.000 A 
ATOM     34  H   UNL     1       4.278  14.421  16.619  0.00  0.00    +0.000 HD
ENDBRANCH  21  24
ENDBRANCH  19  21
ENDBRANCH   4  19
TORSDOF 5
ENDMDL
