MODEL 1
REMARK VINA RESULT:      -9.4      0.000      0.000
REMARK  Name = 
REMARK  7 active torsions:
REMARK  status: ('A' for Active; 'I' for Inactive)
REMARK    1  A    between atoms: C_1  and  O_2
REMARK    2  A    between atoms: O_2  and  C_3
REMARK    3  A    between atoms: C_8  and  O_9
REMARK    4  A    between atoms: O_9  and  C_10
REMARK    5  A    between atoms: C_10  and  C_11
REMARK    6  A    between atoms: C_11  and  C_12
REMARK    7  A    between atoms: C_12  and  N_13
REMARK                            x       y       z     vdW  Elec       q    Type
REMARK                         _______ _______ _______ _____ _____    ______ ____
ROOT
ATOM      1  O   UNL     1       7.273   7.599  16.809  0.00  0.00    +0.000 OA
ENDROOT
BRANCH   1   7
ATOM      2  C   UNL     1       6.497   5.318  16.158  0.00  0.00    +0.000 A 
ATOM      3  C   UNL     1       5.698   4.232  16.547  0.00  0.00    +0.000 A 
ATOM      4  C   UNL     1       4.936   4.251  17.732  0.00  0.00    +0.000 A 
ATOM      5  C   UNL     1       4.997   5.364  18.578  0.00  0.00    +0.000 A 
ATOM      6  C   UNL     1       5.826   6.433  18.194  0.00  0.00    +0.000 A 
ATOM      7  C   UNL     1       6.553   6.443  16.991  0.00  0.00    +0.000 A 
ATOM      8  N   UNL     1       4.376   5.497  19.834  0.00  0.00    +0.000 NA
ATOM      9  C   UNL     1       3.168   5.073  20.036  0.00  0.00    +0.000 C 
ATOM     10  C   UNL     1       2.282   4.406  19.011  0.00  0.00    +0.000 C 
ATOM     11  C   UNL     1       0.930   3.995  19.597  0.00  0.00    +0.000 C 
ATOM     12  C   UNL     1       0.656   2.628  18.980  0.00  0.00    +0.000 C 
ATOM     13  C   UNL     1       2.038   2.015  18.840  0.00  0.00    +0.000 C 
ATOM     14  N   UNL     1       2.923   3.151  18.658  0.00  0.00    +0.000 N 
ATOM     15  C   UNL     1       4.130   3.027  18.003  0.00  0.00    +0.000 C 
ATOM     16  O   UNL     1       4.538   1.941  17.591  0.00  0.00    +0.000 OA
BRANCH   2  18
ATOM     17  C   UNL     1       6.744   4.544  13.925  0.00  0.00    +0.000 C 
ATOM     18  O   UNL     1       7.264   5.292  15.022  0.00  0.00    +0.000 OA
ENDBRANCH   2  18
ENDBRANCH   1   7
BRANCH   1  19
ATOM     19  C   UNL     1       8.080   8.076  17.889  0.00  0.00    +0.000 C 
BRANCH  19  20
ATOM     20  C   UNL     1       7.948   9.610  17.987  0.00  0.00    +0.000 C 
BRANCH  20  21
ATOM     21  C   UNL     1       9.148  10.225  18.692  0.00  0.00    +0.000 C 
BRANCH  21  22
ATOM     22  N   UNL     1       9.667  11.501  18.014  0.00  0.00    +0.000 N 
ATOM     23  C   UNL     1       8.726  12.658  18.144  0.00  0.00    +0.000 A 
ATOM     24  C   UNL     1       7.772  13.039  17.203  0.00  0.00    +0.000 A 
ATOM     25  C   UNL     1       6.935  14.121  17.545  0.00  0.00    +0.000 A 
ATOM     26  C   UNL     1       6.985  14.732  18.813  0.00  0.00    +0.000 A 
ATOM     27  C   UNL     1       7.953  14.334  19.749  0.00  0.00    +0.000 A 
ATOM     28  C   UNL     1       8.092  14.794  21.074  0.00  0.00    +0.000 A 
ATOM     29  C   UNL     1       9.153  14.335  21.881  0.00  0.00    +0.000 A 
ATOM     30  C   UNL     1      10.157  13.503  21.366  0.00  0.00    +0.000 A 
ATOM     31  C   UNL     1       9.993  13.084  20.057  0.00  0.00    +0.000 A 
ATOM     32  C   UNL     1       8.863  13.393  19.327  0.00  0.00    +0.000 A 
ATOM     33  S   UNL     1      11.021  12.088  19.026  0.00  0.00    +0.000 S 
ATOM     34  O   UNL     1      11.767  13.144  18.384  0.00  0.00    +0.000 OA
ATOM     35  O   UNL     1      11.525  11.164  20.015  0.00  0.00    +0.000 OA
ENDBRANCH  21  22
ENDBRANCH  20  21
ENDBRANCH  19  20
ENDBRANCH   1  19
TORSDOF 6
ENDMDL
MODEL 2
REMARK VINA RESULT:      -9.3      1.464      1.936
REMARK  Name = 
REMARK  7 active torsions:
REMARK  status: ('A' for Active; 'I' for Inactive)
REMARK    1  A    between atoms: C_1  and  O_2
REMARK    2  A    between atoms: O_2  and  C_3
REMARK    3  A    between atoms: C_8  and  O_9
REMARK    4  A    between atoms: O_9  and  C_10
REMARK    5  A    between atoms: C_10  and  C_11
REMARK    6  A    between atoms: C_11  and  C_12
REMARK    7  A    between atoms: C_12  and  N_13
REMARK                            x       y       z     vdW  Elec       q    Type
REMARK                         _______ _______ _______ _____ _____    ______ ____
ROOT
ATOM      1  O   UNL     1       7.767   7.179  16.840  0.00  0.00    +0.000 OA
ENDROOT
BRANCH   1   7
ATOM      2  C   UNL     1       6.608   5.137  15.995  0.00  0.00    +0.000 A 
ATOM      3  C   UNL     1       5.679   4.137  16.321  0.00  0.00    +0.000 A 
ATOM      4  C   UNL     1       5.009   4.114  17.561  0.00  0.00    +0.000 A 
ATOM      5  C   UNL     1       5.297   5.089  18.523  0.00  0.00    +0.000 A 
ATOM      6  C   UNL     1       6.253   6.067  18.197  0.00  0.00    +0.000 A 
ATOM      7  C   UNL     1       6.892   6.126  16.946  0.00  0.00    +0.000 A 
ATOM      8  N   UNL     1       4.789   5.148  19.834  0.00  0.00    +0.000 NA
ATOM      9  C   UNL     1       3.546   4.881  20.087  0.00  0.00    +0.000 C 
ATOM     10  C   UNL     1       2.502   4.485  19.069  0.00  0.00    +0.000 C 
ATOM     11  C   UNL     1       1.145   4.202  19.716  0.00  0.00    +0.000 C 
ATOM     12  C   UNL     1       0.623   2.980  18.970  0.00  0.00    +0.000 C 
ATOM     13  C   UNL     1       1.883   2.196  18.643  0.00  0.00    +0.000 C 
ATOM     14  N   UNL     1       2.918   3.207  18.520  0.00  0.00    +0.000 N 
ATOM     15  C   UNL     1       4.045   2.994  17.755  0.00  0.00    +0.000 C 
ATOM     16  O   UNL     1       4.252   1.923  17.186  0.00  0.00    +0.000 OA
BRANCH   2  18
ATOM     17  C   UNL     1       6.728   4.356  13.755  0.00  0.00    +0.000 C 
ATOM     18  O   UNL     1       7.285   5.146  14.803  0.00  0.00    +0.000 OA
ENDBRANCH   2  18
ENDBRANCH   1   7
BRANCH   1  19
ATOM     19  C   UNL     1       7.475   8.382  17.555  0.00  0.00    +0.000 C 
BRANCH  19  20
ATOM     20  C   UNL     1       8.748   8.869  18.279  0.00  0.00    +0.000 C 
BRANCH  20  21
ATOM     21  C   UNL     1       8.662  10.351  18.612  0.00  0.00    +0.000 C 
BRANCH  21  22
ATOM     22  N   UNL     1       9.977  10.933  19.149  0.00  0.00    +0.000 N 
ATOM     23  C   UNL     1      10.487  12.080  18.335  0.00  0.00    +0.000 A 
ATOM     24  C   UNL     1      11.424  11.996  17.307  0.00  0.00    +0.000 A 
ATOM     25  C   UNL     1      11.723  13.187  16.616  0.00  0.00    +0.000 A 
ATOM     26  C   UNL     1      11.043  14.392  16.876  0.00  0.00    +0.000 A 
ATOM     27  C   UNL     1      10.101  14.459  17.916  0.00  0.00    +0.000 A 
ATOM     28  C   UNL     1       9.292  15.561  18.258  0.00  0.00    +0.000 A 
ATOM     29  C   UNL     1       8.426  15.493  19.369  0.00  0.00    +0.000 A 
ATOM     30  C   UNL     1       8.421  14.383  20.225  0.00  0.00    +0.000 A 
ATOM     31  C   UNL     1       9.239  13.327  19.863  0.00  0.00    +0.000 A 
ATOM     32  C   UNL     1       9.953  13.327  18.682  0.00  0.00    +0.000 A 
ATOM     33  S   UNL     1       9.562  11.789  20.665  0.00  0.00    +0.000 S 
ATOM     34  O   UNL     1      10.733  12.179  21.413  0.00  0.00    +0.000 OA
ATOM     35  O   UNL     1       8.251  11.524  21.207  0.00  0.00    +0.000 OA
ENDBRANCH  21  22
ENDBRANCH  20  21
ENDBRANCH  19  20
ENDBRANCH   1  19
TORSDOF 6
ENDMDL
MODEL 3
REMARK VINA RESULT:      -9.3      7.019     10.840
REMARK  Name = 
REMARK  7 active torsions:
REMARK  status: ('A' for Active; 'I' for Inactive)
REMARK    1  A    between atoms: C_1  and  O_2
REMARK    2  A    between atoms: O_2  and  C_3
REMARK    3  A    between atoms: C_8  and  O_9
REMARK    4  A    between atoms: O_9  and  C_10
REMARK    5  A    between atoms: C_10  and  C_11
REMARK    6  A    between atoms: C_11  and  C_12
REMARK    7  A    between atoms: C_12  and  N_13
REMARK                            x       y       z     vdW  Elec       q    Type
REMARK                         _______ _______ _______ _____ _____    ______ ____
ROOT
ATOM      1  O   UNL     1       0.861   9.363  19.266  0.00  0.00    +0.000 OA
ENDROOT
BRANCH   1   7
ATOM      2  C   UNL     1      -0.469  10.874  20.742  0.00  0.00    +0.000 A 
ATOM      3  C   UNL     1      -1.602  11.698  20.802  0.00  0.00    +0.000 A 
ATOM      4  C   UNL     1      -2.477  11.849  19.708  0.00  0.00    +0.000 A 
ATOM      5  C   UNL     1      -2.199  11.193  18.503  0.00  0.00    +0.000 A 
ATOM      6  C   UNL     1      -1.043  10.396  18.444  0.00  0.00    +0.000 A 
ATOM      7  C   UNL     1      -0.190  10.202  19.544  0.00  0.00    +0.000 A 
ATOM      8  N   UNL     1      -2.916  11.316  17.298  0.00  0.00    +0.000 NA
ATOM      9  C   UNL     1      -4.212  11.360  17.287  0.00  0.00    +0.000 C 
ATOM     10  C   UNL     1      -5.109  11.290  18.500  0.00  0.00    +0.000 C 
ATOM     11  C   UNL     1      -6.589  11.411  18.130  0.00  0.00    +0.000 C 
ATOM     12  C   UNL     1      -7.175  12.299  19.221  0.00  0.00    +0.000 C 
ATOM     13  C   UNL     1      -6.035  13.243  19.565  0.00  0.00    +0.000 C 
ATOM     14  N   UNL     1      -4.833  12.475  19.292  0.00  0.00    +0.000 N 
ATOM     15  C   UNL     1      -3.643  12.751  19.931  0.00  0.00    +0.000 C 
ATOM     16  O   UNL     1      -3.529  13.690  20.717  0.00  0.00    +0.000 OA
BRANCH   2  18
ATOM     17  C   UNL     1       0.092   9.741  22.753  0.00  0.00    +0.000 C 
ATOM     18  O   UNL     1       0.402  10.748  21.793  0.00  0.00    +0.000 OA
ENDBRANCH   2  18
ENDBRANCH   1   7
BRANCH   1  19
ATOM     19  C   UNL     1       1.423   9.387  17.951  0.00  0.00    +0.000 C 
BRANCH  19  20
ATOM     20  C   UNL     1       2.736   8.577  17.941  0.00  0.00    +0.000 C 
BRANCH  20  21
ATOM     21  C   UNL     1       2.467   7.086  18.086  0.00  0.00    +0.000 C 
BRANCH  21  22
ATOM     22  N   UNL     1       3.220   6.441  19.258  0.00  0.00    +0.000 N 
ATOM     23  C   UNL     1       2.593   5.166  19.727  0.00  0.00    +0.000 A 
ATOM     24  C   UNL     1       1.688   5.043  20.779  0.00  0.00    +0.000 A 
ATOM     25  C   UNL     1       1.160   3.758  21.021  0.00  0.00    +0.000 A 
ATOM     26  C   UNL     1       1.450   2.663  20.186  0.00  0.00    +0.000 A 
ATOM     27  C   UNL     1       2.364   2.805  19.130  0.00  0.00    +0.000 A 
ATOM     28  C   UNL     1       2.710   1.833  18.169  0.00  0.00    +0.000 A 
ATOM     29  C   UNL     1       3.690   2.109  17.194  0.00  0.00    +0.000 A 
ATOM     30  C   UNL     1       4.426   3.302  17.215  0.00  0.00    +0.000 A 
ATOM     31  C   UNL     1       4.067   4.225  18.181  0.00  0.00    +0.000 A 
ATOM     32  C   UNL     1       2.991   4.024  19.021  0.00  0.00    +0.000 A 
ATOM     33  S   UNL     1       4.748   5.804  18.579  0.00  0.00    +0.000 S 
ATOM     34  O   UNL     1       5.672   5.386  19.606  0.00  0.00    +0.000 OA
ATOM     35  O   UNL     1       5.093   6.255  17.252  0.00  0.00    +0.000 OA
ENDBRANCH  21  22
ENDBRANCH  20  21
ENDBRANCH  19  20
ENDBRANCH   1  19
TORSDOF 6
ENDMDL
MODEL 4
REMARK VINA RESULT:      -9.1      6.242      8.620
REMARK  Name = 
REMARK  7 active torsions:
REMARK  status: ('A' for Active; 'I' for Inactive)
REMARK    1  A    between atoms: C_1  and  O_2
REMARK    2  A    between atoms: O_2  and  C_3
REMARK    3  A    between atoms: C_8  and  O_9
REMARK    4  A    between atoms: O_9  and  C_10
REMARK    5  A    between atoms: C_10  and  C_11
REMARK    6  A    between atoms: C_11  and  C_12
REMARK    7  A    between atoms: C_12  and  N_13
REMARK                            x       y       z     vdW  Elec       q    Type
REMARK                         _______ _______ _______ _____ _____    ______ ____
ROOT
ATOM      1  O   UNL     1       1.221   6.887  21.366  0.00  0.00    +0.000 OA
ENDROOT
BRANCH   1   7
ATOM      2  C   UNL     1       1.833   4.721  20.288  0.00  0.00    +0.000 A 
ATOM      3  C   UNL     1       2.516   4.138  19.210  0.00  0.00    +0.000 A 
ATOM      4  C   UNL     1       3.218   4.910  18.263  0.00  0.00    +0.000 A 
ATOM      5  C   UNL     1       3.209   6.306  18.364  0.00  0.00    +0.000 A 
ATOM      6  C   UNL     1       2.493   6.881  19.429  0.00  0.00    +0.000 A 
ATOM      7  C   UNL     1       1.830   6.117  20.405  0.00  0.00    +0.000 A 
ATOM      8  N   UNL     1       3.776   7.216  17.451  0.00  0.00    +0.000 NA
ATOM      9  C   UNL     1       4.933   6.993  16.910  0.00  0.00    +0.000 C 
ATOM     10  C   UNL     1       5.808   5.788  17.159  0.00  0.00    +0.000 C 
ATOM     11  C   UNL     1       7.090   5.825  16.324  0.00  0.00    +0.000 C 
ATOM     12  C   UNL     1       7.278   4.383  15.866  0.00  0.00    +0.000 C 
ATOM     13  C   UNL     1       5.857   3.873  15.698  0.00  0.00    +0.000 C 
ATOM     14  N   UNL     1       5.082   4.633  16.661  0.00  0.00    +0.000 N 
ATOM     15  C   UNL     1       3.903   4.145  17.183  0.00  0.00    +0.000 C 
ATOM     16  O   UNL     1       3.426   3.071  16.818  0.00  0.00    +0.000 OA
BRANCH   2  18
ATOM     17  C   UNL     1       1.700   2.729  21.575  0.00  0.00    +0.000 C 
ATOM     18  O   UNL     1       1.123   3.976  21.194  0.00  0.00    +0.000 OA
ENDBRANCH   2  18
ENDBRANCH   1   7
BRANCH   1  19
ATOM     19  C   UNL     1       1.157   8.302  21.166  0.00  0.00    +0.000 C 
BRANCH  19  20
ATOM     20  C   UNL     1      -0.252   8.807  21.537  0.00  0.00    +0.000 C 
BRANCH  20  21
ATOM     21  C   UNL     1      -0.236  10.292  21.874  0.00  0.00    +0.000 C 
BRANCH  21  22
ATOM     22  N   UNL     1       0.110  11.186  20.675  0.00  0.00    +0.000 N 
ATOM     23  C   UNL     1      -0.793  10.967  19.501  0.00  0.00    +0.000 A 
ATOM     24  C   UNL     1      -0.535  10.125  18.422  0.00  0.00    +0.000 A 
ATOM     25  C   UNL     1      -1.546  10.007  17.447  0.00  0.00    +0.000 A 
ATOM     26  C   UNL     1      -2.801  10.629  17.594  0.00  0.00    +0.000 A 
ATOM     27  C   UNL     1      -3.044  11.474  18.689  0.00  0.00    +0.000 A 
ATOM     28  C   UNL     1      -4.257  12.113  19.015  0.00  0.00    +0.000 A 
ATOM     29  C   UNL     1      -4.332  12.979  20.125  0.00  0.00    +0.000 A 
ATOM     30  C   UNL     1      -3.192  13.318  20.866  0.00  0.00    +0.000 A 
ATOM     31  C   UNL     1      -2.017  12.681  20.507  0.00  0.00    +0.000 A 
ATOM     32  C   UNL     1      -1.983  11.703  19.534  0.00  0.00    +0.000 A 
ATOM     33  S   UNL     1      -0.376  12.846  21.135  0.00  0.00    +0.000 S 
ATOM     34  O   UNL     1       0.110  13.837  20.205  0.00  0.00    +0.000 OA
ATOM     35  O   UNL     1      -0.676  13.059  22.530  0.00  0.00    +0.000 OA
ENDBRANCH  21  22
ENDBRANCH  20  21
ENDBRANCH  19  20
ENDBRANCH   1  19
TORSDOF 6
ENDMDL
MODEL 5
REMARK VINA RESULT:      -8.6      7.012     10.945
REMARK  Name = 
REMARK  7 active torsions:
REMARK  status: ('A' for Active; 'I' for Inactive)
REMARK    1  A    between atoms: C_1  and  O_2
REMARK    2  A    between atoms: O_2  and  C_3
REMARK    3  A    between atoms: C_8  and  O_9
REMARK    4  A    between atoms: O_9  and  C_10
REMARK    5  A    between atoms: C_10  and  C_11
REMARK    6  A    between atoms: C_11  and  C_12
REMARK    7  A    between atoms: C_12  and  N_13
REMARK                            x       y       z     vdW  Elec       q    Type
REMARK                         _______ _______ _______ _____ _____    ______ ____
ROOT
ATOM      1  O   UNL     1       0.324   9.486  17.874  0.00  0.00    +0.000 OA
ENDROOT
BRANCH   1   7
ATOM      2  C   UNL     1      -1.847  10.708  17.714  0.00  0.00    +0.000 A 
ATOM      3  C   UNL     1      -2.725  11.564  18.395  0.00  0.00    +0.000 A 
ATOM      4  C   UNL     1      -2.439  12.059  19.683  0.00  0.00    +0.000 A 
ATOM      5  C   UNL     1      -1.264  11.662  20.333  0.00  0.00    +0.000 A 
ATOM      6  C   UNL     1      -0.407  10.778  19.653  0.00  0.00    +0.000 A 
ATOM      7  C   UNL     1      -0.661  10.318  18.349  0.00  0.00    +0.000 A 
ATOM      8  N   UNL     1      -0.882  11.989  21.648  0.00  0.00    +0.000 NA
ATOM      9  C   UNL     1      -1.063  13.181  22.125  0.00  0.00    +0.000 C 
ATOM     10  C   UNL     1      -1.679  14.345  21.385  0.00  0.00    +0.000 C 
ATOM     11  C   UNL     1      -1.778  15.595  22.261  0.00  0.00    +0.000 C 
ATOM     12  C   UNL     1      -3.138  16.189  21.910  0.00  0.00    +0.000 C 
ATOM     13  C   UNL     1      -3.994  14.970  21.613  0.00  0.00    +0.000 C 
ATOM     14  N   UNL     1      -3.058  13.982  21.109  0.00  0.00    +0.000 N 
ATOM     15  C   UNL     1      -3.465  12.965  20.271  0.00  0.00    +0.000 C 
ATOM     16  O   UNL     1      -4.645  12.816  19.955  0.00  0.00    +0.000 OA
BRANCH   2  18
ATOM     17  C   UNL     1      -3.097  10.919  15.704  0.00  0.00    +0.000 C 
ATOM     18  O   UNL     1      -2.135  10.200  16.474  0.00  0.00    +0.000 OA
ENDBRANCH   2  18
ENDBRANCH   1   7
BRANCH   1  19
ATOM     19  C   UNL     1       1.476   9.259  18.688  0.00  0.00    +0.000 C 
BRANCH  19  20
ATOM     20  C   UNL     1       2.583   8.602  17.837  0.00  0.00    +0.000 C 
BRANCH  20  21
ATOM     21  C   UNL     1       2.503   7.084  17.902  0.00  0.00    +0.000 C 
BRANCH  21  22
ATOM     22  N   UNL     1       3.212   6.487  19.126  0.00  0.00    +0.000 N 
ATOM     23  C   UNL     1       2.555   5.242  19.635  0.00  0.00    +0.000 A 
ATOM     24  C   UNL     1       1.617   5.179  20.662  0.00  0.00    +0.000 A 
ATOM     25  C   UNL     1       1.066   3.913  20.948  0.00  0.00    +0.000 A 
ATOM     26  C   UNL     1       1.368   2.776  20.175  0.00  0.00    +0.000 A 
ATOM     27  C   UNL     1       2.316   2.858  19.142  0.00  0.00    +0.000 A 
ATOM     28  C   UNL     1       2.679   1.838  18.239  0.00  0.00    +0.000 A 
ATOM     29  C   UNL     1       3.692   2.057  17.284  0.00  0.00    +0.000 A 
ATOM     30  C   UNL     1       4.441   3.242  17.271  0.00  0.00    +0.000 A 
ATOM     31  C   UNL     1       4.065   4.214  18.181  0.00  0.00    +0.000 A 
ATOM     32  C   UNL     1       2.960   4.064  18.996  0.00  0.00    +0.000 A 
ATOM     33  S   UNL     1       4.752   5.802  18.525  0.00  0.00    +0.000 S 
ATOM     34  O   UNL     1       5.639   5.423  19.599  0.00  0.00    +0.000 OA
ATOM     35  O   UNL     1       5.143   6.186  17.189  0.00  0.00    +0.000 OA
ENDBRANCH  21  22
ENDBRANCH  20  21
ENDBRANCH  19  20
ENDBRANCH   1  19
TORSDOF 6
ENDMDL
MODEL 6
REMARK VINA RESULT:      -8.6      5.398     10.815
REMARK  Name = 
REMARK  7 active torsions:
REMARK  status: ('A' for Active; 'I' for Inactive)
REMARK    1  A    between atoms: C_1  and  O_2
REMARK    2  A    between atoms: O_2  and  C_3
REMARK    3  A    between atoms: C_8  and  O_9
REMARK    4  A    between atoms: O_9  and  C_10
REMARK    5  A    between atoms: C_10  and  C_11
REMARK    6  A    between atoms: C_11  and  C_12
REMARK    7  A    between atoms: C_12  and  N_13
REMARK                            x       y       z     vdW  Elec       q    Type
REMARK                         _______ _______ _______ _____ _____    ______ ____
ROOT
ATOM      1  O   UNL     1       0.301   9.172  20.492  0.00  0.00    +0.000 OA
ENDROOT
BRANCH   1   7
ATOM      2  C   UNL     1      -0.527  11.046  19.068  0.00  0.00    +0.000 A 
ATOM      3  C   UNL     1      -0.358  12.405  18.761  0.00  0.00    +0.000 A 
ATOM      4  C   UNL     1       0.635  13.193  19.378  0.00  0.00    +0.000 A 
ATOM      5  C   UNL     1       1.459  12.627  20.357  0.00  0.00    +0.000 A 
ATOM      6  C   UNL     1       1.258  11.273  20.680  0.00  0.00    +0.000 A 
ATOM      7  C   UNL     1       0.303  10.468  20.036  0.00  0.00    +0.000 A 
ATOM      8  N   UNL     1       2.425  13.300  21.129  0.00  0.00    +0.000 NA
ATOM      9  C   UNL     1       3.206  14.191  20.603  0.00  0.00    +0.000 C 
ATOM     10  C   UNL     1       3.203  14.625  19.156  0.00  0.00    +0.000 C 
ATOM     11  C   UNL     1       4.229  15.727  18.883  0.00  0.00    +0.000 C 
ATOM     12  C   UNL     1       3.510  16.679  17.935  0.00  0.00    +0.000 C 
ATOM     13  C   UNL     1       2.060  16.597  18.378  0.00  0.00    +0.000 C 
ATOM     14  N   UNL     1       1.918  15.255  18.912  0.00  0.00    +0.000 N 
ATOM     15  C   UNL     1       0.697  14.616  18.939  0.00  0.00    +0.000 C 
ATOM     16  O   UNL     1      -0.336  15.170  18.564  0.00  0.00    +0.000 OA
BRANCH   2  18
ATOM     17  C   UNL     1      -2.387  10.957  17.592  0.00  0.00    +0.000 C 
ATOM     18  O   UNL     1      -1.511  10.283  18.493  0.00  0.00    +0.000 OA
ENDBRANCH   2  18
ENDBRANCH   1   7
BRANCH   1  19
ATOM     19  C   UNL     1       1.459   8.366  20.261  0.00  0.00    +0.000 C 
BRANCH  19  20
ATOM     20  C   UNL     1       1.795   8.372  18.756  0.00  0.00    +0.000 C 
BRANCH  20  21
ATOM     21  C   UNL     1       2.425   7.055  18.324  0.00  0.00    +0.000 C 
BRANCH  21  22
ATOM     22  N   UNL     1       3.239   6.376  19.434  0.00  0.00    +0.000 N 
ATOM     23  C   UNL     1       2.664   5.062  19.863  0.00  0.00    +0.000 A 
ATOM     24  C   UNL     1       1.803   4.863  20.940  0.00  0.00    +0.000 A 
ATOM     25  C   UNL     1       1.319   3.554  21.138  0.00  0.00    +0.000 A 
ATOM     26  C   UNL     1       1.605   2.508  20.239  0.00  0.00    +0.000 A 
ATOM     27  C   UNL     1       2.475   2.727  19.158  0.00  0.00    +0.000 A 
ATOM     28  C   UNL     1       2.808   1.813  18.139  0.00  0.00    +0.000 A 
ATOM     29  C   UNL     1       3.743   2.164  17.143  0.00  0.00    +0.000 A 
ATOM     30  C   UNL     1       4.447   3.374  17.195  0.00  0.00    +0.000 A 
ATOM     31  C   UNL     1       4.102   4.240  18.219  0.00  0.00    +0.000 A 
ATOM     32  C   UNL     1       3.064   3.968  19.087  0.00  0.00    +0.000 A 
ATOM     33  S   UNL     1       4.756   5.815  18.668  0.00  0.00    +0.000 S 
ATOM     34  O   UNL     1       5.729   5.374  19.639  0.00  0.00    +0.000 OA
ATOM     35  O   UNL     1       5.037   6.340  17.353  0.00  0.00    +0.000 OA
ENDBRANCH  21  22
ENDBRANCH  20  21
ENDBRANCH  19  20
ENDBRANCH   1  19
TORSDOF 6
ENDMDL
MODEL 7
REMARK VINA RESULT:      -8.6      7.439      9.566
REMARK  Name = 
REMARK  7 active torsions:
REMARK  status: ('A' for Active; 'I' for Inactive)
REMARK    1  A    between atoms: C_1  and  O_2
REMARK    2  A    between atoms: O_2  and  C_3
REMARK    3  A    between atoms: C_8  and  O_9
REMARK    4  A    between atoms: O_9  and  C_10
REMARK    5  A    between atoms: C_10  and  C_11
REMARK    6  A    between atoms: C_11  and  C_12
REMARK    7  A    between atoms: C_12  and  N_13
REMARK                            x       y       z     vdW  Elec       q    Type
REMARK                         _______ _______ _______ _____ _____    ______ ____
ROOT
ATOM      1  O   UNL     1       0.638  10.122  20.298  0.00  0.00    +0.000 OA
ENDROOT
BRANCH   1   7
ATOM      2  C   UNL     1       1.818   9.129  18.336  0.00  0.00    +0.000 A 
ATOM      3  C   UNL     1       2.473   7.983  17.861  0.00  0.00    +0.000 A 
ATOM      4  C   UNL     1       2.600   6.816  18.642  0.00  0.00    +0.000 A 
ATOM      5  C   UNL     1       2.097   6.798  19.948  0.00  0.00    +0.000 A 
ATOM      6  C   UNL     1       1.472   7.964  20.424  0.00  0.00    +0.000 A 
ATOM      7  C   UNL     1       1.298   9.116  19.636  0.00  0.00    +0.000 A 
ATOM      8  N   UNL     1       2.228   5.753  20.881  0.00  0.00    +0.000 NA
ATOM      9  C   UNL     1       2.097   4.513  20.526  0.00  0.00    +0.000 C 
ATOM     10  C   UNL     1       1.799   4.020  19.130  0.00  0.00    +0.000 C 
ATOM     11  C   UNL     1       1.751   2.493  19.057  0.00  0.00    +0.000 C 
ATOM     12  C   UNL     1       2.451   2.160  17.744  0.00  0.00    +0.000 C 
ATOM     13  C   UNL     1       3.506   3.245  17.617  0.00  0.00    +0.000 C 
ATOM     14  N   UNL     1       2.936   4.389  18.305  0.00  0.00    +0.000 N 
ATOM     15  C   UNL     1       3.312   5.679  17.994  0.00  0.00    +0.000 C 
ATOM     16  O   UNL     1       4.185   5.918  17.160  0.00  0.00    +0.000 OA
BRANCH   2  18
ATOM     17  C   UNL     1       2.404  11.419  18.099  0.00  0.00    +0.000 C 
ATOM     18  O   UNL     1       1.719  10.276  17.592  0.00  0.00    +0.000 OA
ENDBRANCH   2  18
ENDBRANCH   1   7
BRANCH   1  19
ATOM     19  C   UNL     1       0.688  10.148  21.726  0.00  0.00    +0.000 C 
BRANCH  19  20
ATOM     20  C   UNL     1      -0.187  11.306  22.249  0.00  0.00    +0.000 C 
BRANCH  20  21
ATOM     21  C   UNL     1      -1.550  11.319  21.570  0.00  0.00    +0.000 C 
BRANCH  21  22
ATOM     22  N   UNL     1      -1.744  12.505  20.615  0.00  0.00    +0.000 N 
ATOM     23  C   UNL     1      -2.334  12.108  19.298  0.00  0.00    +0.000 A 
ATOM     24  C   UNL     1      -1.617  11.824  18.138  0.00  0.00    +0.000 A 
ATOM     25  C   UNL     1      -2.358  11.403  17.016  0.00  0.00    +0.000 A 
ATOM     26  C   UNL     1      -3.747  11.180  17.079  0.00  0.00    +0.000 A 
ATOM     27  C   UNL     1      -4.454  11.471  18.257  0.00  0.00    +0.000 A 
ATOM     28  C   UNL     1      -5.823  11.243  18.504  0.00  0.00    +0.000 A 
ATOM     29  C   UNL     1      -6.403  11.640  19.726  0.00  0.00    +0.000 A 
ATOM     30  C   UNL     1      -5.676  12.365  20.680  0.00  0.00    +0.000 A 
ATOM     31  C   UNL     1      -4.339  12.581  20.395  0.00  0.00    +0.000 A 
ATOM     32  C   UNL     1      -3.732  12.040  19.280  0.00  0.00    +0.000 A 
ATOM     33  S   UNL     1      -3.098  13.466  21.284  0.00  0.00    +0.000 S 
ATOM     34  O   UNL     1      -3.238  14.745  20.630  0.00  0.00    +0.000 OA
ATOM     35  O   UNL     1      -3.499  13.148  22.634  0.00  0.00    +0.000 OA
ENDBRANCH  21  22
ENDBRANCH  20  21
ENDBRANCH  19  20
ENDBRANCH   1  19
TORSDOF 6
ENDMDL
MODEL 8
REMARK VINA RESULT:      -8.5      5.320     11.003
REMARK  Name = 
REMARK  7 active torsions:
REMARK  status: ('A' for Active; 'I' for Inactive)
REMARK    1  A    between atoms: C_1  and  O_2
REMARK    2  A    between atoms: O_2  and  C_3
REMARK    3  A    between atoms: C_8  and  O_9
REMARK    4  A    between atoms: O_9  and  C_10
REMARK    5  A    between atoms: C_10  and  C_11
REMARK    6  A    between atoms: C_11  and  C_12
REMARK    7  A    between atoms: C_12  and  N_13
REMARK                            x       y       z     vdW  Elec       q    Type
REMARK                         _______ _______ _______ _____ _____    ______ ____
ROOT
ATOM      1  O   UNL     1       0.466   9.737  18.399  0.00  0.00    +0.000 OA
ENDROOT
BRANCH   1   7
ATOM      2  C   UNL     1       0.304  11.185  20.425  0.00  0.00    +0.000 A 
ATOM      3  C   UNL     1       0.725  12.396  20.997  0.00  0.00    +0.000 A 
ATOM      4  C   UNL     1       1.552  13.303  20.304  0.00  0.00    +0.000 A 
ATOM      5  C   UNL     1       2.008  12.983  19.020  0.00  0.00    +0.000 A 
ATOM      6  C   UNL     1       1.607  11.753  18.471  0.00  0.00    +0.000 A 
ATOM      7  C   UNL     1       0.744  10.863  19.135  0.00  0.00    +0.000 A 
ATOM      8  N   UNL     1       2.910  13.732  18.241  0.00  0.00    +0.000 NA
ATOM      9  C   UNL     1       2.838  15.026  18.187  0.00  0.00    +0.000 C 
ATOM     10  C   UNL     1       1.831  15.887  18.911  0.00  0.00    +0.000 C 
ATOM     11  C   UNL     1       2.059  17.378  18.655  0.00  0.00    +0.000 C 
ATOM     12  C   UNL     1       1.817  18.031  20.011  0.00  0.00    +0.000 C 
ATOM     13  C   UNL     1       2.303  16.987  21.002  0.00  0.00    +0.000 C 
ATOM     14  N   UNL     1       2.081  15.718  20.331  0.00  0.00    +0.000 N 
ATOM     15  C   UNL     1       1.903  14.550  21.041  0.00  0.00    +0.000 C 
ATOM     16  O   UNL     1       1.978  14.517  22.269  0.00  0.00    +0.000 OA
BRANCH   2  18
ATOM     17  C   UNL     1      -0.512  10.430  22.525  0.00  0.00    +0.000 C 
ATOM     18  O   UNL     1      -0.474  10.286  21.106  0.00  0.00    +0.000 OA
ENDBRANCH   2  18
ENDBRANCH   1   7
BRANCH   1  19
ATOM     19  C   UNL     1       1.559   8.965  17.895  0.00  0.00    +0.000 C 
BRANCH  19  20
ATOM     20  C   UNL     1       2.124   8.080  19.026  0.00  0.00    +0.000 C 
BRANCH  20  21
ATOM     21  C   UNL     1       3.021   6.982  18.473  0.00  0.00    +0.000 C 
BRANCH  21  22
ATOM     22  N   UNL     1       3.731   6.167  19.563  0.00  0.00    +0.000 N 
ATOM     23  C   UNL     1       2.968   4.946  19.974  0.00  0.00    +0.000 A 
ATOM     24  C   UNL     1       2.094   4.859  21.056  0.00  0.00    +0.000 A 
ATOM     25  C   UNL     1       1.420   3.634  21.235  0.00  0.00    +0.000 A 
ATOM     26  C   UNL     1       1.540   2.574  20.316  0.00  0.00    +0.000 A 
ATOM     27  C   UNL     1       2.425   2.681  19.231  0.00  0.00    +0.000 A 
ATOM     28  C   UNL     1       2.611   1.746  18.192  0.00  0.00    +0.000 A 
ATOM     29  C   UNL     1       3.581   1.971  17.194  0.00  0.00    +0.000 A 
ATOM     30  C   UNL     1       4.459   3.061  17.261  0.00  0.00    +0.000 A 
ATOM     31  C   UNL     1       4.255   3.949  18.303  0.00  0.00    +0.000 A 
ATOM     32  C   UNL     1       3.194   3.819  19.175  0.00  0.00    +0.000 A 
ATOM     33  S   UNL     1       5.141   5.399  18.773  0.00  0.00    +0.000 S 
ATOM     34  O   UNL     1       6.044   4.799  19.727  0.00  0.00    +0.000 OA
ATOM     35  O   UNL     1       5.490   5.901  17.465  0.00  0.00    +0.000 OA
ENDBRANCH  21  22
ENDBRANCH  20  21
ENDBRANCH  19  20
ENDBRANCH   1  19
TORSDOF 6
ENDMDL
MODEL 9
REMARK VINA RESULT:      -8.4      7.275     11.087
REMARK  Name = 
REMARK  7 active torsions:
REMARK  status: ('A' for Active; 'I' for Inactive)
REMARK    1  A    between atoms: C_1  and  O_2
REMARK    2  A    between atoms: O_2  and  C_3
REMARK    3  A    between atoms: C_8  and  O_9
REMARK    4  A    between atoms: O_9  and  C_10
REMARK    5  A    between atoms: C_10  and  C_11
REMARK    6  A    between atoms: C_11  and  C_12
REMARK    7  A    between atoms: C_12  and  N_13
REMARK                            x       y       z     vdW  Elec       q    Type
REMARK                         _______ _______ _______ _____ _____    ______ ____
ROOT
ATOM      1  O   UNL     1       1.216  10.726  19.164  0.00  0.00    +0.000 OA
ENDROOT
BRANCH   1   7
ATOM      2  C   UNL     1      -1.183  11.375  18.938  0.00  0.00    +0.000 A 
ATOM      3  C   UNL     1      -2.279  11.937  19.610  0.00  0.00    +0.000 A 
ATOM      4  C   UNL     1      -2.184  12.403  20.936  0.00  0.00    +0.000 A 
ATOM      5  C   UNL     1      -0.977  12.272  21.633  0.00  0.00    +0.000 A 
ATOM      6  C   UNL     1       0.105  11.676  20.961  0.00  0.00    +0.000 A 
ATOM      7  C   UNL     1       0.033  11.252  19.622  0.00  0.00    +0.000 A 
ATOM      8  N   UNL     1      -0.750  12.597  22.983  0.00  0.00    +0.000 NA
ATOM      9  C   UNL     1      -1.248  13.672  23.510  0.00  0.00    +0.000 C 
ATOM     10  C   UNL     1      -2.104  14.691  22.796  0.00  0.00    +0.000 C 
ATOM     11  C   UNL     1      -2.556  15.817  23.728  0.00  0.00    +0.000 C 
ATOM     12  C   UNL     1      -4.004  16.074  23.328  0.00  0.00    +0.000 C 
ATOM     13  C   UNL     1      -4.510  14.702  22.918  0.00  0.00    +0.000 C 
ATOM     14  N   UNL     1      -3.333  14.014  22.421  0.00  0.00    +0.000 N 
ATOM     15  C   UNL     1      -3.432  12.985  21.509  0.00  0.00    +0.000 C 
ATOM     16  O   UNL     1      -4.520  12.566  21.116  0.00  0.00    +0.000 OA
BRANCH   2  18
ATOM     17  C   UNL     1      -2.253   9.876  17.438  0.00  0.00    +0.000 C 
ATOM     18  O   UNL     1      -1.278  10.892  17.659  0.00  0.00    +0.000 OA
ENDBRANCH   2  18
ENDBRANCH   1   7
BRANCH   1  19
ATOM     19  C   UNL     1       1.377   9.305  19.166  0.00  0.00    +0.000 C 
BRANCH  19  20
ATOM     20  C   UNL     1       2.117   8.872  17.883  0.00  0.00    +0.000 C 
BRANCH  20  21
ATOM     21  C   UNL     1       2.226   7.356  17.793  0.00  0.00    +0.000 C 
BRANCH  21  22
ATOM     22  N   UNL     1       3.042   6.735  18.936  0.00  0.00    +0.000 N 
ATOM     23  C   UNL     1       2.442   5.469  19.463  0.00  0.00    +0.000 A 
ATOM     24  C   UNL     1       1.595   5.367  20.564  0.00  0.00    +0.000 A 
ATOM     25  C   UNL     1       1.082   4.088  20.860  0.00  0.00    +0.000 A 
ATOM     26  C   UNL     1       1.327   2.976  20.032  0.00  0.00    +0.000 A 
ATOM     27  C   UNL     1       2.184   3.097  18.925  0.00  0.00    +0.000 A 
ATOM     28  C   UNL     1       2.477   2.106  17.967  0.00  0.00    +0.000 A 
ATOM     29  C   UNL     1       3.404   2.363  16.935  0.00  0.00    +0.000 A 
ATOM     30  C   UNL     1       4.138   3.556  16.892  0.00  0.00    +0.000 A 
ATOM     31  C   UNL     1       3.832   4.498  17.859  0.00  0.00    +0.000 A 
ATOM     32  C   UNL     1       2.802   4.314  18.759  0.00  0.00    +0.000 A 
ATOM     33  S   UNL     1       4.532   6.084  18.187  0.00  0.00    +0.000 S 
ATOM     34  O   UNL     1       5.510   5.686  19.171  0.00  0.00    +0.000 OA
ATOM     35  O   UNL     1       4.804   6.509  16.835  0.00  0.00    +0.000 OA
ENDBRANCH  21  22
ENDBRANCH  20  21
ENDBRANCH  19  20
ENDBRANCH   1  19
TORSDOF 6
ENDMDL
