MODEL 1
REMARK VINA RESULT:      -8.2      0.000      0.000
REMARK  Name = 
REMARK  10 active torsions:
REMARK  status: ('A' for Active; 'I' for Inactive)
REMARK    1  A    between atoms: C_1  and  N_2
REMARK    2  A    between atoms: N_2  and  C_3
REMARK    3  A    between atoms: N_2  and  C_4
REMARK    4  A    between atoms: N_7  and  C_8
REMARK    5  A    between atoms: C_8  and  C_9
REMARK    6  A    between atoms: C_12  and  C_13
REMARK    7  A    between atoms: C_13  and  C_14
REMARK    8  A    between atoms: C_14  and  C_15
REMARK    9  A    between atoms: C_18  and  C_19
REMARK   10  A    between atoms: C_19  and  N_20
REMARK                            x       y       z     vdW  Elec       q    Type
REMARK                         _______ _______ _______ _____ _____    ______ ____
ROOT
ATOM      1  C   UNL     1       1.319   8.287  20.578  0.00  0.00    +0.000 A 
ATOM      2  C   UNL     1       1.454   6.927  20.865  0.00  0.00    +0.000 A 
ATOM      3  C   UNL     1       2.031   6.057  19.938  0.00  0.00    +0.000 A 
ATOM      4  C   UNL     1       2.449   6.511  18.680  0.00  0.00    +0.000 A 
ATOM      5  C   UNL     1       2.296   7.867  18.383  0.00  0.00    +0.000 A 
ATOM      6  C   UNL     1       1.744   8.744  19.314  0.00  0.00    +0.000 A 
ENDROOT
BRANCH   1   7
ATOM      7  C   UNL     1       0.669   9.261  21.532  0.00  0.00    +0.000 C 
BRANCH   7   8
ATOM      8  C   UNL     1      -0.502  10.097  20.987  0.00  0.00    +0.000 C 
BRANCH   8  12
ATOM      9  C   UNL     1       0.523  13.981  19.331  0.00  0.00    +0.000 A 
ATOM     10  C   UNL     1       0.575  13.773  20.715  0.00  0.00    +0.000 A 
ATOM     11  C   UNL     1       0.216  12.539  21.268  0.00  0.00    +0.000 A 
ATOM     12  C   UNL     1      -0.210  11.485  20.453  0.00  0.00    +0.000 A 
ATOM     13  C   UNL     1      -0.285  11.706  19.070  0.00  0.00    +0.000 A 
ATOM     14  C   UNL     1       0.072  12.938  18.513  0.00  0.00    +0.000 A 
BRANCH   9  15
ATOM     15  C   UNL     1       0.954  15.295  18.744  0.00  0.00    +0.000 C 
BRANCH  15  19
ATOM     16  C   UNL     1       5.223  15.858  18.551  0.00  0.00    +0.000 A 
ATOM     17  C   UNL     1       4.605  14.670  18.138  0.00  0.00    +0.000 A 
ATOM     18  C   UNL     1       3.228  14.479  18.254  0.00  0.00    +0.000 A 
ATOM     19  N   UNL     1       2.440  15.444  18.778  0.00  0.00    +0.000 N 
ATOM     20  C   UNL     1       3.003  16.570  19.266  0.00  0.00    +0.000 A 
ATOM     21  C   UNL     1       4.382  16.785  19.172  0.00  0.00    +0.000 A 
BRANCH  16  23
ATOM     22  C   UNL     1       7.216  17.187  19.099  0.00  0.00    +0.000 C 
ATOM     23  N   UNL     1       6.592  16.075  18.369  0.00  0.00    +0.000 N 
ATOM     24  C   UNL     1       7.490  14.970  18.025  0.00  0.00    +0.000 C 
ENDBRANCH  16  23
ENDBRANCH  15  19
ENDBRANCH   9  15
ENDBRANCH   8  12
ENDBRANCH   7   8
ENDBRANCH   1   7
BRANCH   4  25
ATOM     25  C   UNL     1       3.063   5.571  17.676  0.00  0.00    +0.000 C 
BRANCH  25  26
ATOM     26  N   UNL     1       4.404   5.152  18.038  0.00  0.00    +0.000 N 
ATOM     27  C   UNL     1       4.706   3.982  18.688  0.00  0.00    +0.000 A 
ATOM     28  N   UNL     1       5.871   4.039  19.288  0.00  0.00    +0.000 NA
ATOM     29  C   UNL     1       6.415   5.224  18.853  0.00  0.00    +0.000 A 
ATOM     30  C   UNL     1       7.670   5.799  19.086  0.00  0.00    +0.000 A 
ATOM     31  N   UNL     1       8.569   5.233  19.987  0.00  0.00    +0.000 N 
ATOM     32  N   UNL     1       8.021   6.887  18.369  0.00  0.00    +0.000 NA
ATOM     33  C   UNL     1       7.100   7.415  17.529  0.00  0.00    +0.000 A 
ATOM     34  N   UNL     1       5.815   7.029  17.321  0.00  0.00    +0.000 NA
ATOM     35  C   UNL     1       5.551   5.901  18.005  0.00  0.00    +0.000 A 
ATOM     36  H   UNL     1       8.287   4.305  20.278  0.00  0.00    +0.000 HD
ATOM     37  H   UNL     1       9.525   5.345  19.678  0.00  0.00    +0.000 HD
ENDBRANCH  25  26
ENDBRANCH   4  25
TORSDOF 8
ENDMDL
MODEL 2
REMARK VINA RESULT:      -8.0      1.652      3.099
REMARK  Name = 
REMARK  10 active torsions:
REMARK  status: ('A' for Active; 'I' for Inactive)
REMARK    1  A    between atoms: C_1  and  N_2
REMARK    2  A    between atoms: N_2  and  C_3
REMARK    3  A    between atoms: N_2  and  C_4
REMARK    4  A    between atoms: N_7  and  C_8
REMARK    5  A    between atoms: C_8  and  C_9
REMARK    6  A    between atoms: C_12  and  C_13
REMARK    7  A    between atoms: C_13  and  C_14
REMARK    8  A    between atoms: C_14  and  C_15
REMARK    9  A    between atoms: C_18  and  C_19
REMARK   10  A    between atoms: C_19  and  N_20
REMARK                            x       y       z     vdW  Elec       q    Type
REMARK                         _______ _______ _______ _____ _____    ______ ____
ROOT
ATOM      1  C   UNL     1       0.809   9.228  20.255  0.00  0.00    +0.000 A 
ATOM      2  C   UNL     1       1.094   9.566  18.930  0.00  0.00    +0.000 A 
ATOM      3  C   UNL     1       1.926   8.757  18.153  0.00  0.00    +0.000 A 
ATOM      4  C   UNL     1       2.533   7.614  18.688  0.00  0.00    +0.000 A 
ATOM      5  C   UNL     1       2.266   7.286  20.019  0.00  0.00    +0.000 A 
ATOM      6  C   UNL     1       1.415   8.074  20.792  0.00  0.00    +0.000 A 
ENDROOT
BRANCH   1   7
ATOM      7  C   UNL     1      -0.056  10.087  21.147  0.00  0.00    +0.000 C 
BRANCH   7   8
ATOM      8  C   UNL     1      -0.809  11.250  20.480  0.00  0.00    +0.000 C 
BRANCH   8  12
ATOM      9  C   UNL     1       1.415  14.809  19.354  0.00  0.00    +0.000 A 
ATOM     10  C   UNL     1       0.328  14.387  18.579  0.00  0.00    +0.000 A 
ATOM     11  C   UNL     1      -0.379  13.225  18.908  0.00  0.00    +0.000 A 
ATOM     12  C   UNL     1      -0.012  12.453  20.014  0.00  0.00    +0.000 A 
ATOM     13  C   UNL     1       1.093  12.864  20.773  0.00  0.00    +0.000 A 
ATOM     14  C   UNL     1       1.803  14.025  20.448  0.00  0.00    +0.000 A 
BRANCH   9  15
ATOM     15  C   UNL     1       2.138  16.082  19.020  0.00  0.00    +0.000 C 
BRANCH  15  19
ATOM     16  C   UNL     1       6.355  15.189  18.963  0.00  0.00    +0.000 A 
ATOM     17  C   UNL     1       5.782  16.034  19.921  0.00  0.00    +0.000 A 
ATOM     18  C   UNL     1       4.424  16.359  19.899  0.00  0.00    +0.000 A 
ATOM     19  N   UNL     1       3.614  15.863  18.938  0.00  0.00    +0.000 N 
ATOM     20  C   UNL     1       4.140  15.113  17.945  0.00  0.00    +0.000 A 
ATOM     21  C   UNL     1       5.498  14.780  17.937  0.00  0.00    +0.000 A 
BRANCH  16  23
ATOM     22  C   UNL     1       8.324  14.712  20.353  0.00  0.00    +0.000 C 
ATOM     23  N   UNL     1       7.698  14.809  19.027  0.00  0.00    +0.000 N 
ATOM     24  C   UNL     1       8.290  13.957  17.992  0.00  0.00    +0.000 C 
ENDBRANCH  16  23
ENDBRANCH  15  19
ENDBRANCH   9  15
ENDBRANCH   8  12
ENDBRANCH   7   8
ENDBRANCH   1   7
BRANCH   4  25
ATOM     25  C   UNL     1       3.438   6.748  17.852  0.00  0.00    +0.000 C 
BRANCH  25  26
ATOM     26  N   UNL     1       3.770   5.489  18.494  0.00  0.00    +0.000 N 
ATOM     27  C   UNL     1       4.989   5.198  19.053  0.00  0.00    +0.000 A 
ATOM     28  N   UNL     1       5.189   3.905  19.151  0.00  0.00    +0.000 NA
ATOM     29  C   UNL     1       3.976   3.352  18.810  0.00  0.00    +0.000 A 
ATOM     30  C   UNL     1       3.545   2.020  18.802  0.00  0.00    +0.000 A 
ATOM     31  N   UNL     1       4.429   0.971  19.044  0.00  0.00    +0.000 N 
ATOM     32  N   UNL     1       2.232   1.772  18.613  0.00  0.00    +0.000 NA
ATOM     33  C   UNL     1       1.421   2.823  18.351  0.00  0.00    +0.000 A 
ATOM     34  N   UNL     1       1.745   4.133  18.202  0.00  0.00    +0.000 NA
ATOM     35  C   UNL     1       3.047   4.325  18.475  0.00  0.00    +0.000 A 
ATOM     36  H   UNL     1       5.320   1.296  19.399  0.00  0.00    +0.000 HD
ATOM     37  H   UNL     1       3.982   0.217  19.548  0.00  0.00    +0.000 HD
ENDBRANCH  25  26
ENDBRANCH   4  25
TORSDOF 8
ENDMDL
MODEL 3
REMARK VINA RESULT:      -8.0      1.948      3.190
REMARK  Name = 
REMARK  10 active torsions:
REMARK  status: ('A' for Active; 'I' for Inactive)
REMARK    1  A    between atoms: C_1  and  N_2
REMARK    2  A    between atoms: N_2  and  C_3
REMARK    3  A    between atoms: N_2  and  C_4
REMARK    4  A    between atoms: N_7  and  C_8
REMARK    5  A    between atoms: C_8  and  C_9
REMARK    6  A    between atoms: C_12  and  C_13
REMARK    7  A    between atoms: C_13  and  C_14
REMARK    8  A    between atoms: C_14  and  C_15
REMARK    9  A    between atoms: C_18  and  C_19
REMARK   10  A    between atoms: C_19  and  N_20
REMARK                            x       y       z     vdW  Elec       q    Type
REMARK                         _______ _______ _______ _____ _____    ______ ____
ROOT
ATOM      1  C   UNL     1       1.102   9.642  19.142  0.00  0.00    +0.000 A 
ATOM      2  C   UNL     1       1.060   8.933  20.344  0.00  0.00    +0.000 A 
ATOM      3  C   UNL     1       1.750   7.727  20.483  0.00  0.00    +0.000 A 
ATOM      4  C   UNL     1       2.465   7.172  19.414  0.00  0.00    +0.000 A 
ATOM      5  C   UNL     1       2.491   7.870  18.204  0.00  0.00    +0.000 A 
ATOM      6  C   UNL     1       1.826   9.087  18.067  0.00  0.00    +0.000 A 
ENDROOT
BRANCH   1   7
ATOM      7  C   UNL     1       0.345  10.932  18.929  0.00  0.00    +0.000 C 
BRANCH   7   8
ATOM      8  C   UNL     1       0.581  12.057  19.951  0.00  0.00    +0.000 C 
BRANCH   8  12
ATOM      9  C   UNL     1       3.685  14.947  19.002  0.00  0.00    +0.000 A 
ATOM     10  C   UNL     1       2.983  15.044  20.210  0.00  0.00    +0.000 A 
ATOM     11  C   UNL     1       1.957  14.141  20.517  0.00  0.00    +0.000 A 
ATOM     12  C   UNL     1       1.604  13.127  19.621  0.00  0.00    +0.000 A 
ATOM     13  C   UNL     1       2.292  13.050  18.402  0.00  0.00    +0.000 A 
ATOM     14  C   UNL     1       3.317  13.949  18.091  0.00  0.00    +0.000 A 
BRANCH   9  15
ATOM     15  C   UNL     1       4.814  15.891  18.702  0.00  0.00    +0.000 C 
BRANCH  15  19
ATOM     16  C   UNL     1       8.481  13.682  19.205  0.00  0.00    +0.000 A 
ATOM     17  C   UNL     1       7.854  14.343  20.268  0.00  0.00    +0.000 A 
ATOM     18  C   UNL     1       6.695  15.100  20.084  0.00  0.00    +0.000 A 
ATOM     19  N   UNL     1       6.139  15.220  18.858  0.00  0.00    +0.000 N 
ATOM     20  C   UNL     1       6.758  14.670  17.790  0.00  0.00    +0.000 A 
ATOM     21  C   UNL     1       7.924  13.915  17.944  0.00  0.00    +0.000 A 
BRANCH  16  23
ATOM     22  C   UNL     1       9.647  11.579  18.701  0.00  0.00    +0.000 C 
ATOM     23  N   UNL     1       9.600  12.869  19.403  0.00  0.00    +0.000 N 
ATOM     24  C   UNL     1      10.904  13.450  19.734  0.00  0.00    +0.000 C 
ENDBRANCH  16  23
ENDBRANCH  15  19
ENDBRANCH   9  15
ENDBRANCH   8  12
ENDBRANCH   7   8
ENDBRANCH   1   7
BRANCH   4  25
ATOM     25  C   UNL     1       3.201   5.866  19.561  0.00  0.00    +0.000 C 
BRANCH  25  26
ATOM     26  N   UNL     1       3.674   5.336  18.296  0.00  0.00    +0.000 N 
ATOM     27  C   UNL     1       3.009   4.398  17.548  0.00  0.00    +0.000 A 
ATOM     28  N   UNL     1       3.812   3.766  16.725  0.00  0.00    +0.000 NA
ATOM     29  C   UNL     1       4.999   4.454  16.821  0.00  0.00    +0.000 A 
ATOM     30  C   UNL     1       6.206   4.302  16.129  0.00  0.00    +0.000 A 
ATOM     31  N   UNL     1       6.410   3.238  15.252  0.00  0.00    +0.000 N 
ATOM     32  N   UNL     1       7.157   5.248  16.281  0.00  0.00    +0.000 NA
ATOM     33  C   UNL     1       6.922   6.244  17.166  0.00  0.00    +0.000 A 
ATOM     34  N   UNL     1       5.854   6.420  17.987  0.00  0.00    +0.000 NA
ATOM     35  C   UNL     1       4.915   5.492  17.736  0.00  0.00    +0.000 A 
ATOM     36  H   UNL     1       5.552   2.740  15.049  0.00  0.00    +0.000 HD
ATOM     37  H   UNL     1       6.979   3.511  14.463  0.00  0.00    +0.000 HD
ENDBRANCH  25  26
ENDBRANCH   4  25
TORSDOF 8
ENDMDL
MODEL 4
REMARK VINA RESULT:      -8.0      4.718      6.973
REMARK  Name = 
REMARK  10 active torsions:
REMARK  status: ('A' for Active; 'I' for Inactive)
REMARK    1  A    between atoms: C_1  and  N_2
REMARK    2  A    between atoms: N_2  and  C_3
REMARK    3  A    between atoms: N_2  and  C_4
REMARK    4  A    between atoms: N_7  and  C_8
REMARK    5  A    between atoms: C_8  and  C_9
REMARK    6  A    between atoms: C_12  and  C_13
REMARK    7  A    between atoms: C_13  and  C_14
REMARK    8  A    between atoms: C_14  and  C_15
REMARK    9  A    between atoms: C_18  and  C_19
REMARK   10  A    between atoms: C_19  and  N_20
REMARK                            x       y       z     vdW  Elec       q    Type
REMARK                         _______ _______ _______ _____ _____    ______ ____
ROOT
ATOM      1  C   UNL     1       7.681   7.114  18.058  0.00  0.00    +0.000 A 
ATOM      2  C   UNL     1       7.733   5.824  18.590  0.00  0.00    +0.000 A 
ATOM      3  C   UNL     1       6.853   4.835  18.146  0.00  0.00    +0.000 A 
ATOM      4  C   UNL     1       5.867   5.116  17.192  0.00  0.00    +0.000 A 
ATOM      5  C   UNL     1       5.799   6.412  16.674  0.00  0.00    +0.000 A 
ATOM      6  C   UNL     1       6.692   7.396  17.094  0.00  0.00    +0.000 A 
ENDROOT
BRANCH   1   7
ATOM      7  C   UNL     1       8.586   8.228  18.530  0.00  0.00    +0.000 C 
BRANCH   7   8
ATOM      8  C   UNL     1       8.320   9.632  17.962  0.00  0.00    +0.000 C 
BRANCH   8  12
ATOM      9  C   UNL     1      10.661  12.974  19.456  0.00  0.00    +0.000 A 
ATOM     10  C   UNL     1      10.542  11.805  20.218  0.00  0.00    +0.000 A 
ATOM     11  C   UNL     1       9.765  10.732  19.767  0.00  0.00    +0.000 A 
ATOM     12  C   UNL     1       9.082  10.804  18.549  0.00  0.00    +0.000 A 
ATOM     13  C   UNL     1       9.183  11.986  17.801  0.00  0.00    +0.000 A 
ATOM     14  C   UNL     1       9.958  13.061  18.248  0.00  0.00    +0.000 A 
BRANCH   9  15
ATOM     15  C   UNL     1      11.534  14.102  19.927  0.00  0.00    +0.000 C 
BRANCH  15  19
ATOM     16  C   UNL     1       9.215  17.110  21.967  0.00  0.00    +0.000 A 
ATOM     17  C   UNL     1      10.596  17.236  21.769  0.00  0.00    +0.000 A 
ATOM     18  C   UNL     1      11.346  16.232  21.153  0.00  0.00    +0.000 A 
ATOM     19  N   UNL     1      10.755  15.093  20.729  0.00  0.00    +0.000 N 
ATOM     20  C   UNL     1       9.442  14.893  20.976  0.00  0.00    +0.000 A 
ATOM     21  C   UNL     1       8.668  15.877  21.598  0.00  0.00    +0.000 A 
BRANCH  16  23
ATOM     22  C   UNL     1       7.094  18.349  22.004  0.00  0.00    +0.000 C 
ATOM     23  N   UNL     1       8.455  18.144  22.519  0.00  0.00    +0.000 N 
ATOM     24  C   UNL     1       8.676  18.588  23.898  0.00  0.00    +0.000 C 
ENDBRANCH  16  23
ENDBRANCH  15  19
ENDBRANCH   9  15
ENDBRANCH   8  12
ENDBRANCH   7   8
ENDBRANCH   1   7
BRANCH   4  25
ATOM     25  C   UNL     1       4.911   4.052  16.721  0.00  0.00    +0.000 C 
BRANCH  25  26
ATOM     26  N   UNL     1       4.088   3.516  17.789  0.00  0.00    +0.000 N 
ATOM     27  C   UNL     1       3.784   2.187  17.945  0.00  0.00    +0.000 A 
ATOM     28  N   UNL     1       2.703   2.012  18.668  0.00  0.00    +0.000 NA
ATOM     29  C   UNL     1       2.411   3.269  19.145  0.00  0.00    +0.000 A 
ATOM     30  C   UNL     1       1.420   3.707  20.030  0.00  0.00    +0.000 A 
ATOM     31  N   UNL     1       0.425   2.845  20.487  0.00  0.00    +0.000 N 
ATOM     32  N   UNL     1       1.482   4.976  20.486  0.00  0.00    +0.000 NA
ATOM     33  C   UNL     1       2.449   5.780  19.988  0.00  0.00    +0.000 A 
ATOM     34  N   UNL     1       3.375   5.509  19.033  0.00  0.00    +0.000 NA
ATOM     35  C   UNL     1       3.310   4.214  18.675  0.00  0.00    +0.000 A 
ATOM     36  H   UNL     1       0.623   1.878  20.262  0.00  0.00    +0.000 HD
ATOM     37  H   UNL     1       0.166   3.049  21.443  0.00  0.00    +0.000 HD
ENDBRANCH  25  26
ENDBRANCH   4  25
TORSDOF 8
ENDMDL
MODEL 5
REMARK VINA RESULT:      -7.9      4.374      6.916
REMARK  Name = 
REMARK  10 active torsions:
REMARK  status: ('A' for Active; 'I' for Inactive)
REMARK    1  A    between atoms: C_1  and  N_2
REMARK    2  A    between atoms: N_2  and  C_3
REMARK    3  A    between atoms: N_2  and  C_4
REMARK    4  A    between atoms: N_7  and  C_8
REMARK    5  A    between atoms: C_8  and  C_9
REMARK    6  A    between atoms: C_12  and  C_13
REMARK    7  A    between atoms: C_13  and  C_14
REMARK    8  A    between atoms: C_14  and  C_15
REMARK    9  A    between atoms: C_18  and  C_19
REMARK   10  A    between atoms: C_19  and  N_20
REMARK                            x       y       z     vdW  Elec       q    Type
REMARK                         _______ _______ _______ _____ _____    ______ ____
ROOT
ATOM      1  C   UNL     1       2.620   6.435  19.695  0.00  0.00    +0.000 A 
ATOM      2  C   UNL     1       2.756   6.829  18.363  0.00  0.00    +0.000 A 
ATOM      3  C   UNL     1       3.197   5.925  17.394  0.00  0.00    +0.000 A 
ATOM      4  C   UNL     1       3.559   4.615  17.736  0.00  0.00    +0.000 A 
ATOM      5  C   UNL     1       3.444   4.225  19.072  0.00  0.00    +0.000 A 
ATOM      6  C   UNL     1       2.979   5.116  20.038  0.00  0.00    +0.000 A 
ENDROOT
BRANCH   1   7
ATOM      7  C   UNL     1       2.181   7.384  20.785  0.00  0.00    +0.000 C 
BRANCH   7   8
ATOM      8  C   UNL     1       0.690   7.763  20.823  0.00  0.00    +0.000 C 
BRANCH   8  12
ATOM      9  C   UNL     1      -0.647  11.595  22.375  0.00  0.00    +0.000 A 
ATOM     10  C   UNL     1       0.061  11.536  21.168  0.00  0.00    +0.000 A 
ATOM     11  C   UNL     1       0.528  10.314  20.671  0.00  0.00    +0.000 A 
ATOM     12  C   UNL     1       0.306   9.124  21.370  0.00  0.00    +0.000 A 
ATOM     13  C   UNL     1      -0.381   9.190  22.591  0.00  0.00    +0.000 A 
ATOM     14  C   UNL     1      -0.849  10.409  23.093  0.00  0.00    +0.000 A 
BRANCH   9  15
ATOM     15  C   UNL     1      -1.184  12.904  22.878  0.00  0.00    +0.000 C 
BRANCH  15  19
ATOM     16  C   UNL     1      -5.483  12.700  22.646  0.00  0.00    +0.000 A 
ATOM     17  C   UNL     1      -4.680  12.873  21.512  0.00  0.00    +0.000 A 
ATOM     18  C   UNL     1      -3.292  12.990  21.604  0.00  0.00    +0.000 A 
ATOM     19  N   UNL     1      -2.675  12.944  22.806  0.00  0.00    +0.000 N 
ATOM     20  C   UNL     1      -3.417  12.865  23.932  0.00  0.00    +0.000 A 
ATOM     21  C   UNL     1      -4.810  12.755  23.869  0.00  0.00    +0.000 A 
BRANCH  16  23
ATOM     22  C   UNL     1      -7.734  13.315  23.417  0.00  0.00    +0.000 C 
ATOM     23  N   UNL     1      -6.864  12.512  22.546  0.00  0.00    +0.000 N 
ATOM     24  C   UNL     1      -7.474  12.068  21.290  0.00  0.00    +0.000 C 
ENDBRANCH  16  23
ENDBRANCH  15  19
ENDBRANCH   9  15
ENDBRANCH   8  12
ENDBRANCH   7   8
ENDBRANCH   1   7
BRANCH   4  25
ATOM     25  C   UNL     1       4.045   3.643  16.694  0.00  0.00    +0.000 C 
BRANCH  25  26
ATOM     26  N   UNL     1       5.364   3.970  16.185  0.00  0.00    +0.000 N 
ATOM     27  C   UNL     1       6.366   4.539  16.929  0.00  0.00    +0.000 A 
ATOM     28  N   UNL     1       7.259   5.138  16.175  0.00  0.00    +0.000 NA
ATOM     29  C   UNL     1       6.910   4.779  14.894  0.00  0.00    +0.000 A 
ATOM     30  C   UNL     1       7.529   5.044  13.667  0.00  0.00    +0.000 A 
ATOM     31  N   UNL     1       8.623   5.902  13.578  0.00  0.00    +0.000 N 
ATOM     32  N   UNL     1       7.080   4.400  12.569  0.00  0.00    +0.000 NA
ATOM     33  C   UNL     1       5.996   3.601  12.704  0.00  0.00    +0.000 A 
ATOM     34  N   UNL     1       5.236   3.374  13.807  0.00  0.00    +0.000 NA
ATOM     35  C   UNL     1       5.776   3.982  14.878  0.00  0.00    +0.000 A 
ATOM     36  H   UNL     1       9.004   6.133  14.487  0.00  0.00    +0.000 HD
ATOM     37  H   UNL     1       9.277   5.598  12.870  0.00  0.00    +0.000 HD
ENDBRANCH  25  26
ENDBRANCH   4  25
TORSDOF 8
ENDMDL
MODEL 6
REMARK VINA RESULT:      -7.9      1.669      3.136
REMARK  Name = 
REMARK  10 active torsions:
REMARK  status: ('A' for Active; 'I' for Inactive)
REMARK    1  A    between atoms: C_1  and  N_2
REMARK    2  A    between atoms: N_2  and  C_3
REMARK    3  A    between atoms: N_2  and  C_4
REMARK    4  A    between atoms: N_7  and  C_8
REMARK    5  A    between atoms: C_8  and  C_9
REMARK    6  A    between atoms: C_12  and  C_13
REMARK    7  A    between atoms: C_13  and  C_14
REMARK    8  A    between atoms: C_14  and  C_15
REMARK    9  A    between atoms: C_18  and  C_19
REMARK   10  A    between atoms: C_19  and  N_20
REMARK                            x       y       z     vdW  Elec       q    Type
REMARK                         _______ _______ _______ _____ _____    ______ ____
ROOT
ATOM      1  C   UNL     1       0.538   9.525  19.961  0.00  0.00    +0.000 A 
ATOM      2  C   UNL     1       0.801   9.770  18.612  0.00  0.00    +0.000 A 
ATOM      3  C   UNL     1       1.681   8.953  17.898  0.00  0.00    +0.000 A 
ATOM      4  C   UNL     1       2.358   7.897  18.521  0.00  0.00    +0.000 A 
ATOM      5  C   UNL     1       2.112   7.663  19.876  0.00  0.00    +0.000 A 
ATOM      6  C   UNL     1       1.215   8.459  20.587  0.00  0.00    +0.000 A 
ENDROOT
BRANCH   1   7
ATOM      7  C   UNL     1      -0.377  10.399  20.786  0.00  0.00    +0.000 C 
BRANCH   7   8
ATOM      8  C   UNL     1       0.238  11.667  21.403  0.00  0.00    +0.000 C 
BRANCH   8  12
ATOM      9  C   UNL     1       2.186  14.679  18.951  0.00  0.00    +0.000 A 
ATOM     10  C   UNL     1       0.892  14.247  18.635  0.00  0.00    +0.000 A 
ATOM     11  C   UNL     1       0.262  13.254  19.394  0.00  0.00    +0.000 A 
ATOM     12  C   UNL     1       0.913  12.664  20.482  0.00  0.00    +0.000 A 
ATOM     13  C   UNL     1       2.219  13.080  20.779  0.00  0.00    +0.000 A 
ATOM     14  C   UNL     1       2.852  14.071  20.023  0.00  0.00    +0.000 A 
BRANCH   9  15
ATOM     15  C   UNL     1       2.835  15.777  18.159  0.00  0.00    +0.000 C 
BRANCH  15  19
ATOM     16  C   UNL     1       7.132  15.969  18.454  0.00  0.00    +0.000 A 
ATOM     17  C   UNL     1       6.470  14.895  17.845  0.00  0.00    +0.000 A 
ATOM     18  C   UNL     1       5.077  14.818  17.801  0.00  0.00    +0.000 A 
ATOM     19  N   UNL     1       4.316  15.787  18.356  0.00  0.00    +0.000 N 
ATOM     20  C   UNL     1       4.911  16.797  19.028  0.00  0.00    +0.000 A 
ATOM     21  C   UNL     1       6.304  16.894  19.095  0.00  0.00    +0.000 A 
BRANCH  16  23
ATOM     22  C   UNL     1       9.304  14.909  18.010  0.00  0.00    +0.000 C 
ATOM     23  N   UNL     1       8.524  16.080  18.435  0.00  0.00    +0.000 N 
ATOM     24  C   UNL     1       9.173  17.376  18.218  0.00  0.00    +0.000 C 
ENDBRANCH  16  23
ENDBRANCH  15  19
ENDBRANCH   9  15
ENDBRANCH   8  12
ENDBRANCH   7   8
ENDBRANCH   1   7
BRANCH   4  25
ATOM     25  C   UNL     1       3.314   7.023  17.754  0.00  0.00    +0.000 C 
BRANCH  25  26
ATOM     26  N   UNL     1       3.665   5.807  18.464  0.00  0.00    +0.000 N 
ATOM     27  C   UNL     1       4.856   5.602  19.113  0.00  0.00    +0.000 A 
ATOM     28  N   UNL     1       5.115   4.325  19.273  0.00  0.00    +0.000 NA
ATOM     29  C   UNL     1       3.959   3.696  18.874  0.00  0.00    +0.000 A 
ATOM     30  C   UNL     1       3.599   2.344  18.886  0.00  0.00    +0.000 A 
ATOM     31  N   UNL     1       4.517   1.353  19.227  0.00  0.00    +0.000 N 
ATOM     32  N   UNL     1       2.316   2.018  18.619  0.00  0.00    +0.000 NA
ATOM     33  C   UNL     1       1.472   3.014  18.264  0.00  0.00    +0.000 A 
ATOM     34  N   UNL     1       1.737   4.334  18.088  0.00  0.00    +0.000 NA
ATOM     35  C   UNL     1       3.006   4.606  18.440  0.00  0.00    +0.000 A 
ATOM     36  H   UNL     1       5.363   1.737  19.629  0.00  0.00    +0.000 HD
ATOM     37  H   UNL     1       4.076   0.594  19.728  0.00  0.00    +0.000 HD
ENDBRANCH  25  26
ENDBRANCH   4  25
TORSDOF 8
ENDMDL
MODEL 7
REMARK VINA RESULT:      -7.9      4.180      6.748
REMARK  Name = 
REMARK  10 active torsions:
REMARK  status: ('A' for Active; 'I' for Inactive)
REMARK    1  A    between atoms: C_1  and  N_2
REMARK    2  A    between atoms: N_2  and  C_3
REMARK    3  A    between atoms: N_2  and  C_4
REMARK    4  A    between atoms: N_7  and  C_8
REMARK    5  A    between atoms: C_8  and  C_9
REMARK    6  A    between atoms: C_12  and  C_13
REMARK    7  A    between atoms: C_13  and  C_14
REMARK    8  A    between atoms: C_14  and  C_15
REMARK    9  A    between atoms: C_18  and  C_19
REMARK   10  A    between atoms: C_19  and  N_20
REMARK                            x       y       z     vdW  Elec       q    Type
REMARK                         _______ _______ _______ _____ _____    ______ ____
ROOT
ATOM      1  C   UNL     1       7.305   7.649  17.755  0.00  0.00    +0.000 A 
ATOM      2  C   UNL     1       6.158   7.476  16.978  0.00  0.00    +0.000 A 
ATOM      3  C   UNL     1       5.473   6.259  16.982  0.00  0.00    +0.000 A 
ATOM      4  C   UNL     1       5.938   5.167  17.725  0.00  0.00    +0.000 A 
ATOM      5  C   UNL     1       7.098   5.331  18.486  0.00  0.00    +0.000 A 
ATOM      6  C   UNL     1       7.770   6.552  18.507  0.00  0.00    +0.000 A 
ENDROOT
BRANCH   1   7
ATOM      7  C   UNL     1       8.101   8.933  17.759  0.00  0.00    +0.000 C 
BRANCH   7   8
ATOM      8  C   UNL     1       8.981   9.206  18.991  0.00  0.00    +0.000 C 
BRANCH   8  12
ATOM      9  C   UNL     1      10.357  13.279  19.624  0.00  0.00    +0.000 A 
ATOM     10  C   UNL     1      10.364  12.729  18.336  0.00  0.00    +0.000 A 
ATOM     11  C   UNL     1       9.956  11.408  18.119  0.00  0.00    +0.000 A 
ATOM     12  C   UNL     1       9.538  10.603  19.184  0.00  0.00    +0.000 A 
ATOM     13  C   UNL     1       9.557  11.149  20.475  0.00  0.00    +0.000 A 
ATOM     14  C   UNL     1       9.965  12.468  20.697  0.00  0.00    +0.000 A 
BRANCH   9  15
ATOM     15  C   UNL     1      10.753  14.711  19.841  0.00  0.00    +0.000 C 
BRANCH  15  19
ATOM     16  C   UNL     1       7.621  17.280  21.317  0.00  0.00    +0.000 A 
ATOM     17  C   UNL     1       8.734  16.934  22.093  0.00  0.00    +0.000 A 
ATOM     18  C   UNL     1       9.716  16.060  21.625  0.00  0.00    +0.000 A 
ATOM     19  N   UNL     1       9.619  15.511  20.394  0.00  0.00    +0.000 N 
ATOM     20  C   UNL     1       8.520  15.749  19.644  0.00  0.00    +0.000 A 
ATOM     21  C   UNL     1       7.517  16.614  20.092  0.00  0.00    +0.000 A 
BRANCH  16  23
ATOM     22  C   UNL     1       5.630  18.630  20.818  0.00  0.00    +0.000 C 
ATOM     23  N   UNL     1       6.677  18.209  21.759  0.00  0.00    +0.000 N 
ATOM     24  C   UNL     1       6.316  18.300  23.177  0.00  0.00    +0.000 C 
ENDBRANCH  16  23
ENDBRANCH  15  19
ENDBRANCH   9  15
ENDBRANCH   8  12
ENDBRANCH   7   8
ENDBRANCH   1   7
BRANCH   4  25
ATOM     25  C   UNL     1       5.205   3.851  17.720  0.00  0.00    +0.000 C 
BRANCH  25  26
ATOM     26  N   UNL     1       4.579   3.547  18.993  0.00  0.00    +0.000 N 
ATOM     27  C   UNL     1       4.892   2.464  19.775  0.00  0.00    +0.000 A 
ATOM     28  N   UNL     1       3.921   2.160  20.605  0.00  0.00    +0.000 NA
ATOM     29  C   UNL     1       3.031   3.199  20.475  0.00  0.00    +0.000 A 
ATOM     30  C   UNL     1       1.840   3.478  21.155  0.00  0.00    +0.000 A 
ATOM     31  N   UNL     1       1.292   2.569  22.057  0.00  0.00    +0.000 N 
ATOM     32  N   UNL     1       1.258   4.681  20.964  0.00  0.00    +0.000 NA
ATOM     33  C   UNL     1       1.813   5.515  20.055  0.00  0.00    +0.000 A 
ATOM     34  N   UNL     1       2.881   5.302  19.243  0.00  0.00    +0.000 NA
ATOM     35  C   UNL     1       3.458   4.122  19.532  0.00  0.00    +0.000 A 
ATOM     36  H   UNL     1       1.934   1.821  22.285  0.00  0.00    +0.000 HD
ATOM     37  H   UNL     1       0.843   3.039  22.831  0.00  0.00    +0.000 HD
ENDBRANCH  25  26
ENDBRANCH   4  25
TORSDOF 8
ENDMDL
MODEL 8
REMARK VINA RESULT:      -7.8      4.903      6.628
REMARK  Name = 
REMARK  10 active torsions:
REMARK  status: ('A' for Active; 'I' for Inactive)
REMARK    1  A    between atoms: C_1  and  N_2
REMARK    2  A    between atoms: N_2  and  C_3
REMARK    3  A    between atoms: N_2  and  C_4
REMARK    4  A    between atoms: N_7  and  C_8
REMARK    5  A    between atoms: C_8  and  C_9
REMARK    6  A    between atoms: C_12  and  C_13
REMARK    7  A    between atoms: C_13  and  C_14
REMARK    8  A    between atoms: C_14  and  C_15
REMARK    9  A    between atoms: C_18  and  C_19
REMARK   10  A    between atoms: C_19  and  N_20
REMARK                            x       y       z     vdW  Elec       q    Type
REMARK                         _______ _______ _______ _____ _____    ______ ____
ROOT
ATOM      1  C   UNL     1       6.847   7.235  17.497  0.00  0.00    +0.000 A 
ATOM      2  C   UNL     1       7.314   6.130  18.211  0.00  0.00    +0.000 A 
ATOM      3  C   UNL     1       6.787   4.858  17.980  0.00  0.00    +0.000 A 
ATOM      4  C   UNL     1       5.747   4.659  17.062  0.00  0.00    +0.000 A 
ATOM      5  C   UNL     1       5.264   5.767  16.362  0.00  0.00    +0.000 A 
ATOM      6  C   UNL     1       5.805   7.034  16.569  0.00  0.00    +0.000 A 
ENDROOT
BRANCH   1   7
ATOM      7  C   UNL     1       7.359   8.636  17.735  0.00  0.00    +0.000 C 
BRANCH   7   8
ATOM      8  C   UNL     1       8.677   8.774  18.516  0.00  0.00    +0.000 C 
BRANCH   8  12
ATOM      9  C   UNL     1      10.157  12.749  19.460  0.00  0.00    +0.000 A 
ATOM     10  C   UNL     1      10.306  11.708  20.385  0.00  0.00    +0.000 A 
ATOM     11  C   UNL     1       9.806  10.430  20.111  0.00  0.00    +0.000 A 
ATOM     12  C   UNL     1       9.138  10.164  18.911  0.00  0.00    +0.000 A 
ATOM     13  C   UNL     1       8.968  11.216  17.999  0.00  0.00    +0.000 A 
ATOM     14  C   UNL     1       9.466  12.495  18.269  0.00  0.00    +0.000 A 
BRANCH   9  15
ATOM     15  C   UNL     1      10.737  14.105  19.743  0.00  0.00    +0.000 C 
BRANCH  15  19
ATOM     16  C   UNL     1       7.548  16.623  21.183  0.00  0.00    +0.000 A 
ATOM     17  C   UNL     1       8.336  16.971  20.078  0.00  0.00    +0.000 A 
ATOM     18  C   UNL     1       9.400  16.174  19.653  0.00  0.00    +0.000 A 
ATOM     19  N   UNL     1       9.707  15.030  20.304  0.00  0.00    +0.000 N 
ATOM     20  C   UNL     1       9.028  14.700  21.425  0.00  0.00    +0.000 A 
ATOM     21  C   UNL     1       7.964  15.485  21.879  0.00  0.00    +0.000 A 
BRANCH  16  23
ATOM     22  C   UNL     1       6.270  17.687  22.992  0.00  0.00    +0.000 C 
ATOM     23  N   UNL     1       6.440  17.385  21.564  0.00  0.00    +0.000 N 
ATOM     24  C   UNL     1       5.841  18.355  20.643  0.00  0.00    +0.000 C 
ENDBRANCH  16  23
ENDBRANCH  15  19
ENDBRANCH   9  15
ENDBRANCH   8  12
ENDBRANCH   7   8
ENDBRANCH   1   7
BRANCH   4  25
ATOM     25  C   UNL     1       5.171   3.289  16.820  0.00  0.00    +0.000 C 
BRANCH  25  26
ATOM     26  N   UNL     1       3.976   3.030  17.600  0.00  0.00    +0.000 N 
ATOM     27  C   UNL     1       2.695   3.228  17.150  0.00  0.00    +0.000 A 
ATOM     28  N   UNL     1       1.842   3.363  18.139  0.00  0.00    +0.000 NA
ATOM     29  C   UNL     1       2.577   3.056  19.260  0.00  0.00    +0.000 A 
ATOM     30  C   UNL     1       2.200   2.949  20.604  0.00  0.00    +0.000 A 
ATOM     31  N   UNL     1       0.921   3.302  21.027  0.00  0.00    +0.000 N 
ATOM     32  N   UNL     1       3.088   2.435  21.481  0.00  0.00    +0.000 NA
ATOM     33  C   UNL     1       4.327   2.137  21.025  0.00  0.00    +0.000 A 
ATOM     34  N   UNL     1       4.846   2.322  19.784  0.00  0.00    +0.000 NA
ATOM     35  C   UNL     1       3.895   2.764  18.942  0.00  0.00    +0.000 A 
ATOM     36  H   UNL     1       0.287   3.446  20.251  0.00  0.00    +0.000 HD
ATOM     37  H   UNL     1       0.599   2.705  21.777  0.00  0.00    +0.000 HD
ENDBRANCH  25  26
ENDBRANCH   4  25
TORSDOF 8
ENDMDL
MODEL 9
REMARK VINA RESULT:      -7.8      4.479     11.039
REMARK  Name = 
REMARK  10 active torsions:
REMARK  status: ('A' for Active; 'I' for Inactive)
REMARK    1  A    between atoms: C_1  and  N_2
REMARK    2  A    between atoms: N_2  and  C_3
REMARK    3  A    between atoms: N_2  and  C_4
REMARK    4  A    between atoms: N_7  and  C_8
REMARK    5  A    between atoms: C_8  and  C_9
REMARK    6  A    between atoms: C_12  and  C_13
REMARK    7  A    between atoms: C_13  and  C_14
REMARK    8  A    between atoms: C_14  and  C_15
REMARK    9  A    between atoms: C_18  and  C_19
REMARK   10  A    between atoms: C_19  and  N_20
REMARK                            x       y       z     vdW  Elec       q    Type
REMARK                         _______ _______ _______ _____ _____    ______ ____
ROOT
ATOM      1  C   UNL     1       0.346  10.588  21.244  0.00  0.00    +0.000 A 
ATOM      2  C   UNL     1       0.354  11.940  20.894  0.00  0.00    +0.000 A 
ATOM      3  C   UNL     1      -0.347  12.876  21.657  0.00  0.00    +0.000 A 
ATOM      4  C   UNL     1      -1.112  12.485  22.763  0.00  0.00    +0.000 A 
ATOM      5  C   UNL     1      -1.138  11.130  23.102  0.00  0.00    +0.000 A 
ATOM      6  C   UNL     1      -0.419  10.194  22.360  0.00  0.00    +0.000 A 
ENDROOT
BRANCH   1   7
ATOM      7  C   UNL     1       1.059   9.532  20.432  0.00  0.00    +0.000 C 
BRANCH   7   8
ATOM      8  C   UNL     1       0.769   8.063  20.788  0.00  0.00    +0.000 C 
BRANCH   8  12
ATOM      9  C   UNL     1       3.620   5.016  19.577  0.00  0.00    +0.000 A 
ATOM     10  C   UNL     1       3.586   6.248  18.912  0.00  0.00    +0.000 A 
ATOM     11  C   UNL     1       2.652   7.228  19.267  0.00  0.00    +0.000 A 
ATOM     12  C   UNL     1       1.726   6.998  20.289  0.00  0.00    +0.000 A 
ATOM     13  C   UNL     1       1.746   5.754  20.935  0.00  0.00    +0.000 A 
ATOM     14  C   UNL     1       2.677   4.771  20.583  0.00  0.00    +0.000 A 
BRANCH   9  15
ATOM     15  C   UNL     1       4.655   3.988  19.219  0.00  0.00    +0.000 C 
BRANCH  15  19
ATOM     16  C   UNL     1       6.205   4.241  15.205  0.00  0.00    +0.000 A 
ATOM     17  C   UNL     1       6.927   4.694  16.316  0.00  0.00    +0.000 A 
ATOM     18  C   UNL     1       6.394   4.656  17.606  0.00  0.00    +0.000 A 
ATOM     19  N   UNL     1       5.149   4.178  17.823  0.00  0.00    +0.000 N 
ATOM     20  C   UNL     1       4.385   3.810  16.770  0.00  0.00    +0.000 A 
ATOM     21  C   UNL     1       4.890   3.846  15.467  0.00  0.00    +0.000 A 
BRANCH  16  23
ATOM     22  C   UNL     1       5.982   3.604  12.842  0.00  0.00    +0.000 C 
ATOM     23  N   UNL     1       6.765   4.215  13.925  0.00  0.00    +0.000 N 
ATOM     24  C   UNL     1       7.726   5.238  13.503  0.00  0.00    +0.000 C 
ENDBRANCH  16  23
ENDBRANCH  15  19
ENDBRANCH   9  15
ENDBRANCH   8  12
ENDBRANCH   7   8
ENDBRANCH   1   7
BRANCH   4  25
ATOM     25  C   UNL     1      -1.876  13.493  23.580  0.00  0.00    +0.000 C 
BRANCH  25  26
ATOM     26  N   UNL     1      -3.314  13.306  23.510  0.00  0.00    +0.000 N 
ATOM     27  C   UNL     1      -4.077  12.762  24.512  0.00  0.00    +0.000 A 
ATOM     28  N   UNL     1      -5.216  12.291  24.062  0.00  0.00    +0.000 NA
ATOM     29  C   UNL     1      -5.260  12.715  22.754  0.00  0.00    +0.000 A 
ATOM     30  C   UNL     1      -6.260  12.589  21.782  0.00  0.00    +0.000 A 
ATOM     31  N   UNL     1      -7.402  11.826  22.013  0.00  0.00    +0.000 N 
ATOM     32  N   UNL     1      -6.123  13.276  20.628  0.00  0.00    +0.000 NA
ATOM     33  C   UNL     1      -4.981  13.977  20.441  0.00  0.00    +0.000 A 
ATOM     34  N   UNL     1      -3.892  14.064  21.248  0.00  0.00    +0.000 NA
ATOM     35  C   UNL     1      -4.119  13.422  22.408  0.00  0.00    +0.000 A 
ATOM     36  H   UNL     1      -7.495  11.560  22.985  0.00  0.00    +0.000 HD
ATOM     37  H   UNL     1      -8.216  12.231  21.570  0.00  0.00    +0.000 HD
ENDBRANCH  25  26
ENDBRANCH   4  25
TORSDOF 8
ENDMDL
