MODEL 1
REMARK VINA RESULT:      -6.6      0.000      0.000
REMARK  Name = 
REMARK  11 active torsions:
REMARK  status: ('A' for Active; 'I' for Inactive)
REMARK    1  A    between atoms: C_1  and  C_2
REMARK    2  A    between atoms: C_2  and  O_4
REMARK    3  A    between atoms: O_4  and  C_5
REMARK    4  A    between atoms: C_5  and  C_6
REMARK    5  A    between atoms: C_7  and  C_8
REMARK    6  A    between atoms: C_8  and  O_10
REMARK    7  A    between atoms: O_10  and  C_11
REMARK    8  A    between atoms: C_11  and  C_12
REMARK    9  A    between atoms: C_11  and  C_18
REMARK   10  A    between atoms: C_28  and  C_29
REMARK   11  A    between atoms: C_29  and  O_30
REMARK                            x       y       z     vdW  Elec       q    Type
REMARK                         _______ _______ _______ _____ _____    ______ ____
ROOT
ATOM      1  C   UNL     1      -1.820  14.534  20.942  0.00  0.00    +0.000 C 
ATOM      2  C   UNL     1      -2.031  13.231  21.282  0.00  0.00    +0.000 C 
ATOM      3  N   UNL     1      -3.277  12.755  21.776  0.00  0.00    +0.000 N 
ATOM      4  C   UNL     1      -3.317  12.368  23.105  0.00  0.00    +0.000 C 
ATOM      5  O   UNL     1      -2.921  11.434  23.767  0.00  0.00    +0.000 OA
ATOM      6  C   UNL     1      -3.738  13.732  23.455  0.00  0.00    +0.000 C 
ATOM      7  C   UNL     1      -3.379  14.493  24.488  0.00  0.00    +0.000 C 
ATOM      8  C   UNL     1      -4.372  13.706  22.093  0.00  0.00    +0.000 C 
ATOM      9  S   UNL     1      -4.563  15.068  20.976  0.00  0.00    +0.000 S 
ATOM     10  C   UNL     1      -2.881  15.609  20.907  0.00  0.00    +0.000 C 
ENDROOT
BRANCH   2  11
ATOM     11  C   UNL     1      -0.882  12.214  21.302  0.00  0.00    +0.000 C 
ATOM     12  O   UNL     1       0.158  12.333  21.930  0.00  0.00    +0.000 OA
BRANCH  11  13
ATOM     13  O   UNL     1      -1.177  11.158  20.512  0.00  0.00    +0.000 OA
BRANCH  13  14
ATOM     14  C   UNL     1      -0.573  11.063  19.199  0.00  0.00    +0.000 C 
BRANCH  14  15
ATOM     15  C   UNL     1       0.471   9.945  19.174  0.00  0.00    +0.000 A 
ATOM     16  C   UNL     1       1.206   9.604  18.028  0.00  0.00    +0.000 A 
ATOM     17  C   UNL     1       2.115   8.536  18.044  0.00  0.00    +0.000 A 
ATOM     18  C   UNL     1       2.289   7.778  19.199  0.00  0.00    +0.000 A 
ATOM     19  C   UNL     1       1.563   8.089  20.342  0.00  0.00    +0.000 A 
ATOM     20  C   UNL     1       0.670   9.167  20.330  0.00  0.00    +0.000 A 
ENDBRANCH  14  15
BRANCH  14  21
ATOM     21  C   UNL     1      -1.717  10.941  18.187  0.00  0.00    +0.000 A 
ATOM     22  C   UNL     1      -2.861  11.748  18.295  0.00  0.00    +0.000 A 
ATOM     23  C   UNL     1      -3.969  11.531  17.467  0.00  0.00    +0.000 A 
ATOM     24  C   UNL     1      -3.944  10.518  16.510  0.00  0.00    +0.000 A 
ATOM     25  C   UNL     1      -2.795   9.753  16.345  0.00  0.00    +0.000 A 
ATOM     26  C   UNL     1      -1.687   9.972  17.166  0.00  0.00    +0.000 A 
ENDBRANCH  14  21
ENDBRANCH  13  14
ENDBRANCH  11  13
ENDBRANCH   2  11
BRANCH   1  27
ATOM     27  C   UNL     1      -0.470  15.207  20.696  0.00  0.00    +0.000 C 
BRANCH  27  28
ATOM     28  O   UNL     1       0.011  14.876  19.378  0.00  0.00    +0.000 OA
BRANCH  28  30
ATOM     29  C   UNL     1       2.013  15.986  18.848  0.00  0.00    +0.000 C 
ATOM     30  C   UNL     1       1.355  14.700  19.248  0.00  0.00    +0.000 C 
ATOM     31  O   UNL     1       1.962  13.654  19.431  0.00  0.00    +0.000 OA
ENDBRANCH  28  30
ENDBRANCH  27  28
ENDBRANCH   1  27
BRANCH   7  32
ATOM     32  C   UNL     1      -3.542  15.960  24.637  0.00  0.00    +0.000 C 
BRANCH  32  33
ATOM     33  O   UNL     1      -4.931  16.224  24.787  0.00  0.00    +0.000 OA
ATOM     34  H   UNL     1      -5.051  16.763  25.589  0.00  0.00    +0.000 HD
ENDBRANCH  32  33
ENDBRANCH   7  32
TORSDOF 10
ENDMDL
MODEL 2
REMARK VINA RESULT:      -6.5      6.954     10.905
REMARK  Name = 
REMARK  11 active torsions:
REMARK  status: ('A' for Active; 'I' for Inactive)
REMARK    1  A    between atoms: C_1  and  C_2
REMARK    2  A    between atoms: C_2  and  O_4
REMARK    3  A    between atoms: O_4  and  C_5
REMARK    4  A    between atoms: C_5  and  C_6
REMARK    5  A    between atoms: C_7  and  C_8
REMARK    6  A    between atoms: C_8  and  O_10
REMARK    7  A    between atoms: O_10  and  C_11
REMARK    8  A    between atoms: C_11  and  C_12
REMARK    9  A    between atoms: C_11  and  C_18
REMARK   10  A    between atoms: C_28  and  C_29
REMARK   11  A    between atoms: C_29  and  O_30
REMARK                            x       y       z     vdW  Elec       q    Type
REMARK                         _______ _______ _______ _____ _____    ______ ____
ROOT
ATOM      1  C   UNL     1       3.144   4.836  18.584  0.00  0.00    +0.000 C 
ATOM      2  C   UNL     1       4.175   3.947  18.653  0.00  0.00    +0.000 C 
ATOM      3  N   UNL     1       3.978   2.542  18.757  0.00  0.00    +0.000 N 
ATOM      4  C   UNL     1       4.321   1.949  19.961  0.00  0.00    +0.000 C 
ATOM      5  O   UNL     1       5.342   1.651  20.540  0.00  0.00    +0.000 OA
ATOM      6  C   UNL     1       2.936   2.144  20.414  0.00  0.00    +0.000 C 
ATOM      7  C   UNL     1       2.478   2.510  21.610  0.00  0.00    +0.000 C 
ATOM      8  C   UNL     1       2.614   1.989  18.954  0.00  0.00    +0.000 C 
ATOM      9  S   UNL     1       1.315   2.791  18.055  0.00  0.00    +0.000 S 
ATOM     10  C   UNL     1       1.683   4.469  18.471  0.00  0.00    +0.000 C 
ENDROOT
BRANCH   2  11
ATOM     11  C   UNL     1       5.630   4.419  18.781  0.00  0.00    +0.000 C 
ATOM     12  O   UNL     1       6.188   4.718  19.824  0.00  0.00    +0.000 OA
BRANCH  11  13
ATOM     13  O   UNL     1       6.216   4.469  17.564  0.00  0.00    +0.000 OA
BRANCH  13  14
ATOM     14  C   UNL     1       6.044   5.648  16.741  0.00  0.00    +0.000 C 
BRANCH  14  15
ATOM     15  C   UNL     1       6.898   6.799  17.277  0.00  0.00    +0.000 A 
ATOM     16  C   UNL     1       7.934   6.621  18.207  0.00  0.00    +0.000 A 
ATOM     17  C   UNL     1       8.653   7.718  18.705  0.00  0.00    +0.000 A 
ATOM     18  C   UNL     1       8.336   9.011  18.298  0.00  0.00    +0.000 A 
ATOM     19  C   UNL     1       7.307   9.211  17.386  0.00  0.00    +0.000 A 
ATOM     20  C   UNL     1       6.602   8.116  16.876  0.00  0.00    +0.000 A 
ENDBRANCH  14  15
BRANCH  14  21
ATOM     21  C   UNL     1       6.313   5.226  15.292  0.00  0.00    +0.000 A 
ATOM     22  C   UNL     1       5.453   4.334  14.633  0.00  0.00    +0.000 A 
ATOM     23  C   UNL     1       5.780   3.829  13.368  0.00  0.00    +0.000 A 
ATOM     24  C   UNL     1       6.960   4.222  12.739  0.00  0.00    +0.000 A 
ATOM     25  C   UNL     1       7.790   5.156  13.349  0.00  0.00    +0.000 A 
ATOM     26  C   UNL     1       7.462   5.663  14.607  0.00  0.00    +0.000 A 
ENDBRANCH  14  21
ENDBRANCH  13  14
ENDBRANCH  11  13
ENDBRANCH   2  11
BRANCH   1  27
ATOM     27  C   UNL     1       3.229   6.350  18.773  0.00  0.00    +0.000 C 
BRANCH  27  28
ATOM     28  O   UNL     1       2.264   6.779  19.754  0.00  0.00    +0.000 OA
BRANCH  28  30
ATOM     29  C   UNL     1       2.040   8.599  18.286  0.00  0.00    +0.000 C 
ATOM     30  C   UNL     1       1.851   8.074  19.677  0.00  0.00    +0.000 C 
ATOM     31  O   UNL     1       1.386   8.733  20.595  0.00  0.00    +0.000 OA
ENDBRANCH  28  30
ENDBRANCH  27  28
ENDBRANCH   1  27
BRANCH   7  32
ATOM     32  C   UNL     1       1.129   3.027  21.948  0.00  0.00    +0.000 C 
BRANCH  32  33
ATOM     33  O   UNL     1       0.559   2.141  22.903  0.00  0.00    +0.000 OA
ATOM     34  H   UNL     1       1.132   2.135  23.690  0.00  0.00    +0.000 HD
ENDBRANCH  32  33
ENDBRANCH   7  32
TORSDOF 10
ENDMDL
MODEL 3
REMARK VINA RESULT:      -6.5      1.720      2.131
REMARK  Name = 
REMARK  11 active torsions:
REMARK  status: ('A' for Active; 'I' for Inactive)
REMARK    1  A    between atoms: C_1  and  C_2
REMARK    2  A    between atoms: C_2  and  O_4
REMARK    3  A    between atoms: O_4  and  C_5
REMARK    4  A    between atoms: C_5  and  C_6
REMARK    5  A    between atoms: C_7  and  C_8
REMARK    6  A    between atoms: C_8  and  O_10
REMARK    7  A    between atoms: O_10  and  C_11
REMARK    8  A    between atoms: C_11  and  C_12
REMARK    9  A    between atoms: C_11  and  C_18
REMARK   10  A    between atoms: C_28  and  C_29
REMARK   11  A    between atoms: C_29  and  O_30
REMARK                            x       y       z     vdW  Elec       q    Type
REMARK                         _______ _______ _______ _____ _____    ______ ____
ROOT
ATOM      1  C   UNL     1       0.046  14.942  20.563  0.00  0.00    +0.000 C 
ATOM      2  C   UNL     1      -0.385  13.715  20.973  0.00  0.00    +0.000 C 
ATOM      3  N   UNL     1      -1.620  13.518  21.651  0.00  0.00    +0.000 N 
ATOM      4  C   UNL     1      -1.550  13.155  22.986  0.00  0.00    +0.000 C 
ATOM      5  O   UNL     1      -1.270  12.160  23.618  0.00  0.00    +0.000 OA
ATOM      6  C   UNL     1      -1.620  14.579  23.343  0.00  0.00    +0.000 C 
ATOM      7  C   UNL     1      -0.965  15.249  24.289  0.00  0.00    +0.000 C 
ATOM      8  C   UNL     1      -2.433  14.683  22.083  0.00  0.00    +0.000 C 
ATOM      9  S   UNL     1      -2.489  16.049  20.957  0.00  0.00    +0.000 S 
ATOM     10  C   UNL     1      -0.759  16.218  20.638  0.00  0.00    +0.000 C 
ENDROOT
BRANCH   2  11
ATOM     11  C   UNL     1       0.515  12.476  20.869  0.00  0.00    +0.000 C 
ATOM     12  O   UNL     1       1.694  12.429  21.181  0.00  0.00    +0.000 OA
BRANCH  11  13
ATOM     13  O   UNL     1      -0.182  11.431  20.370  0.00  0.00    +0.000 OA
BRANCH  13  14
ATOM     14  C   UNL     1       0.066  10.997  19.011  0.00  0.00    +0.000 C 
BRANCH  14  15
ATOM     15  C   UNL     1       0.905   9.718  19.006  0.00  0.00    +0.000 A 
ATOM     16  C   UNL     1       1.032   8.876  20.122  0.00  0.00    +0.000 A 
ATOM     17  C   UNL     1       1.855   7.741  20.080  0.00  0.00    +0.000 A 
ATOM     18  C   UNL     1       2.581   7.440  18.931  0.00  0.00    +0.000 A 
ATOM     19  C   UNL     1       2.480   8.267  17.818  0.00  0.00    +0.000 A 
ATOM     20  C   UNL     1       1.644   9.388  17.854  0.00  0.00    +0.000 A 
ENDBRANCH  14  15
BRANCH  14  21
ATOM     21  C   UNL     1      -1.296  10.914  18.312  0.00  0.00    +0.000 A 
ATOM     22  C   UNL     1      -2.364  11.727  18.721  0.00  0.00    +0.000 A 
ATOM     23  C   UNL     1      -3.646  11.543  18.189  0.00  0.00    +0.000 A 
ATOM     24  C   UNL     1      -3.875  10.558  17.230  0.00  0.00    +0.000 A 
ATOM     25  C   UNL     1      -2.814   9.789  16.764  0.00  0.00    +0.000 A 
ATOM     26  C   UNL     1      -1.534   9.975  17.290  0.00  0.00    +0.000 A 
ENDBRANCH  14  21
ENDBRANCH  13  14
ENDBRANCH  11  13
ENDBRANCH   2  11
BRANCH   1  27
ATOM     27  C   UNL     1       1.458  15.309  20.109  0.00  0.00    +0.000 C 
BRANCH  27  28
ATOM     28  O   UNL     1       1.476  15.527  18.684  0.00  0.00    +0.000 OA
BRANCH  28  30
ATOM     29  C   UNL     1       3.440  15.859  17.438  0.00  0.00    +0.000 C 
ATOM     30  C   UNL     1       2.329  16.484  18.225  0.00  0.00    +0.000 C 
ATOM     31  O   UNL     1       2.222  17.688  18.412  0.00  0.00    +0.000 OA
ENDBRANCH  28  30
ENDBRANCH  27  28
ENDBRANCH   1  27
BRANCH   7  32
ATOM     32  C   UNL     1      -0.791  16.718  24.408  0.00  0.00    +0.000 C 
BRANCH  32  33
ATOM     33  O   UNL     1       0.487  17.042  23.875  0.00  0.00    +0.000 OA
ATOM     34  H   UNL     1       1.147  16.923  24.580  0.00  0.00    +0.000 HD
ENDBRANCH  32  33
ENDBRANCH   7  32
TORSDOF 10
ENDMDL
MODEL 4
REMARK VINA RESULT:      -6.4      2.128      4.819
REMARK  Name = 
REMARK  11 active torsions:
REMARK  status: ('A' for Active; 'I' for Inactive)
REMARK    1  A    between atoms: C_1  and  C_2
REMARK    2  A    between atoms: C_2  and  O_4
REMARK    3  A    between atoms: O_4  and  C_5
REMARK    4  A    between atoms: C_5  and  C_6
REMARK    5  A    between atoms: C_7  and  C_8
REMARK    6  A    between atoms: C_8  and  O_10
REMARK    7  A    between atoms: O_10  and  C_11
REMARK    8  A    between atoms: C_11  and  C_12
REMARK    9  A    between atoms: C_11  and  C_18
REMARK   10  A    between atoms: C_28  and  C_29
REMARK   11  A    between atoms: C_29  and  O_30
REMARK                            x       y       z     vdW  Elec       q    Type
REMARK                         _______ _______ _______ _____ _____    ______ ____
ROOT
ATOM      1  C   UNL     1      -1.895  12.466  22.941  0.00  0.00    +0.000 C 
ATOM      2  C   UNL     1      -1.542  13.780  22.862  0.00  0.00    +0.000 C 
ATOM      3  N   UNL     1      -2.391  14.835  23.297  0.00  0.00    +0.000 N 
ATOM      4  C   UNL     1      -2.928  15.653  22.317  0.00  0.00    +0.000 C 
ATOM      5  O   UNL     1      -2.532  16.536  21.589  0.00  0.00    +0.000 OA
ATOM      6  C   UNL     1      -4.102  14.771  22.269  0.00  0.00    +0.000 C 
ATOM      7  C   UNL     1      -4.808  14.352  21.220  0.00  0.00    +0.000 C 
ATOM      8  C   UNL     1      -3.786  14.549  23.722  0.00  0.00    +0.000 C 
ATOM      9  S   UNL     1      -4.022  13.060  24.652  0.00  0.00    +0.000 S 
ATOM     10  C   UNL     1      -3.142  11.937  23.609  0.00  0.00    +0.000 C 
ENDROOT
BRANCH   2  11
ATOM     11  C   UNL     1      -0.258  14.222  22.146  0.00  0.00    +0.000 C 
ATOM     12  O   UNL     1       0.780  14.555  22.695  0.00  0.00    +0.000 OA
BRANCH  11  13
ATOM     13  O   UNL     1      -0.436  14.199  20.807  0.00  0.00    +0.000 OA
BRANCH  13  14
ATOM     14  C   UNL     1       0.662  13.801  19.951  0.00  0.00    +0.000 C 
BRANCH  14  15
ATOM     15  C   UNL     1       0.324  12.497  19.224  0.00  0.00    +0.000 A 
ATOM     16  C   UNL     1      -0.945  12.217  18.695  0.00  0.00    +0.000 A 
ATOM     17  C   UNL     1      -1.216  10.985  18.083  0.00  0.00    +0.000 A 
ATOM     18  C   UNL     1      -0.230  10.004  18.008  0.00  0.00    +0.000 A 
ATOM     19  C   UNL     1       1.030  10.255  18.536  0.00  0.00    +0.000 A 
ATOM     20  C   UNL     1       1.305  11.492  19.130  0.00  0.00    +0.000 A 
ENDBRANCH  14  15
BRANCH  14  21
ATOM     21  C   UNL     1       0.994  15.003  19.060  0.00  0.00    +0.000 A 
ATOM     22  C   UNL     1       2.305  15.224  18.610  0.00  0.00    +0.000 A 
ATOM     23  C   UNL     1       2.638  16.400  17.927  0.00  0.00    +0.000 A 
ATOM     24  C   UNL     1       1.663  17.363  17.670  0.00  0.00    +0.000 A 
ATOM     25  C   UNL     1       0.346  17.131  18.050  0.00  0.00    +0.000 A 
ATOM     26  C   UNL     1       0.012  15.956  18.725  0.00  0.00    +0.000 A 
ENDBRANCH  14  21
ENDBRANCH  13  14
ENDBRANCH  11  13
ENDBRANCH   2  11
BRANCH   1  27
ATOM     27  C   UNL     1      -1.209  11.292  22.241  0.00  0.00    +0.000 C 
BRANCH  27  28
ATOM     28  O   UNL     1      -0.139  10.786  23.064  0.00  0.00    +0.000 OA
BRANCH  28  30
ATOM     29  C   UNL     1      -0.365   8.854  21.747  0.00  0.00    +0.000 C 
ATOM     30  C   UNL     1       0.539   9.707  22.584  0.00  0.00    +0.000 C 
ATOM     31  O   UNL     1       1.717   9.453  22.789  0.00  0.00    +0.000 OA
ENDBRANCH  28  30
ENDBRANCH  27  28
ENDBRANCH   1  27
BRANCH   7  32
ATOM     32  C   UNL     1      -5.756  13.213  21.158  0.00  0.00    +0.000 C 
BRANCH  32  33
ATOM     33  O   UNL     1      -6.857  13.616  20.353  0.00  0.00    +0.000 OA
ATOM     34  H   UNL     1      -7.414  12.835  20.188  0.00  0.00    +0.000 HD
ENDBRANCH  32  33
ENDBRANCH   7  32
TORSDOF 10
ENDMDL
MODEL 5
REMARK VINA RESULT:      -6.3      2.310      5.035
REMARK  Name = 
REMARK  11 active torsions:
REMARK  status: ('A' for Active; 'I' for Inactive)
REMARK    1  A    between atoms: C_1  and  C_2
REMARK    2  A    between atoms: C_2  and  O_4
REMARK    3  A    between atoms: O_4  and  C_5
REMARK    4  A    between atoms: C_5  and  C_6
REMARK    5  A    between atoms: C_7  and  C_8
REMARK    6  A    between atoms: C_8  and  O_10
REMARK    7  A    between atoms: O_10  and  C_11
REMARK    8  A    between atoms: C_11  and  C_12
REMARK    9  A    between atoms: C_11  and  C_18
REMARK   10  A    between atoms: C_28  and  C_29
REMARK   11  A    between atoms: C_29  and  O_30
REMARK                            x       y       z     vdW  Elec       q    Type
REMARK                         _______ _______ _______ _____ _____    ______ ____
ROOT
ATOM      1  C   UNL     1      -1.714  12.739  22.992  0.00  0.00    +0.000 C 
ATOM      2  C   UNL     1      -1.666  14.101  22.987  0.00  0.00    +0.000 C 
ATOM      3  N   UNL     1      -2.775  14.914  23.352  0.00  0.00    +0.000 N 
ATOM      4  C   UNL     1      -3.381  15.639  22.340  0.00  0.00    +0.000 C 
ATOM      5  O   UNL     1      -3.126  16.625  21.685  0.00  0.00    +0.000 OA
ATOM      6  C   UNL     1      -4.310  14.518  22.138  0.00  0.00    +0.000 C 
ATOM      7  C   UNL     1      -4.789  14.006  21.006  0.00  0.00    +0.000 C 
ATOM      8  C   UNL     1      -4.102  14.299  23.610  0.00  0.00    +0.000 C 
ATOM      9  S   UNL     1      -4.085  12.750  24.469  0.00  0.00    +0.000 S 
ATOM     10  C   UNL     1      -2.868  11.909  23.502  0.00  0.00    +0.000 C 
ENDROOT
BRANCH   2  11
ATOM     11  C   UNL     1      -0.451  14.857  22.432  0.00  0.00    +0.000 C 
ATOM     12  O   UNL     1       0.511  15.229  23.084  0.00  0.00    +0.000 OA
BRANCH  11  13
ATOM     13  O   UNL     1      -0.596  15.066  21.104  0.00  0.00    +0.000 OA
BRANCH  13  14
ATOM     14  C   UNL     1       0.510  14.777  20.215  0.00  0.00    +0.000 C 
BRANCH  14  15
ATOM     15  C   UNL     1       0.344  13.388  19.595  0.00  0.00    +0.000 A 
ATOM     16  C   UNL     1       1.403  12.477  19.452  0.00  0.00    +0.000 A 
ATOM     17  C   UNL     1       1.207  11.236  18.830  0.00  0.00    +0.000 A 
ATOM     18  C   UNL     1      -0.043  10.892  18.322  0.00  0.00    +0.000 A 
ATOM     19  C   UNL     1      -1.102  11.783  18.442  0.00  0.00    +0.000 A 
ATOM     20  C   UNL     1      -0.911  13.014  19.079  0.00  0.00    +0.000 A 
ENDBRANCH  14  15
BRANCH  14  21
ATOM     21  C   UNL     1       0.611  15.947  19.230  0.00  0.00    +0.000 A 
ATOM     22  C   UNL     1      -0.543  16.604  18.774  0.00  0.00    +0.000 A 
ATOM     23  C   UNL     1      -0.463  17.567  17.760  0.00  0.00    +0.000 A 
ATOM     24  C   UNL     1       0.770  17.899  17.202  0.00  0.00    +0.000 A 
ATOM     25  C   UNL     1       1.930  17.307  17.689  0.00  0.00    +0.000 A 
ATOM     26  C   UNL     1       1.852  16.351  18.704  0.00  0.00    +0.000 A 
ENDBRANCH  14  21
ENDBRANCH  13  14
ENDBRANCH  11  13
ENDBRANCH   2  11
BRANCH   1  27
ATOM     27  C   UNL     1      -0.709  11.788  22.343  0.00  0.00    +0.000 C 
BRANCH  27  28
ATOM     28  O   UNL     1      -0.385  10.718  23.253  0.00  0.00    +0.000 OA
BRANCH  28  30
ATOM     29  C   UNL     1      -0.429   8.887  21.782  0.00  0.00    +0.000 C 
ATOM     30  C   UNL     1       0.370   9.701  22.753  0.00  0.00    +0.000 C 
ATOM     31  O   UNL     1       1.537   9.470  23.036  0.00  0.00    +0.000 OA
ENDBRANCH  28  30
ENDBRANCH  27  28
ENDBRANCH   1  27
BRANCH   7  32
ATOM     32  C   UNL     1      -5.438  12.687  20.807  0.00  0.00    +0.000 C 
BRANCH  32  33
ATOM     33  O   UNL     1      -4.856  12.093  19.654  0.00  0.00    +0.000 OA
ATOM     34  H   UNL     1      -4.222  12.726  19.275  0.00  0.00    +0.000 HD
ENDBRANCH  32  33
ENDBRANCH   7  32
TORSDOF 10
ENDMDL
MODEL 6
REMARK VINA RESULT:      -6.3      2.858      6.842
REMARK  Name = 
REMARK  11 active torsions:
REMARK  status: ('A' for Active; 'I' for Inactive)
REMARK    1  A    between atoms: C_1  and  C_2
REMARK    2  A    between atoms: C_2  and  O_4
REMARK    3  A    between atoms: O_4  and  C_5
REMARK    4  A    between atoms: C_5  and  C_6
REMARK    5  A    between atoms: C_7  and  C_8
REMARK    6  A    between atoms: C_8  and  O_10
REMARK    7  A    between atoms: O_10  and  C_11
REMARK    8  A    between atoms: C_11  and  C_12
REMARK    9  A    between atoms: C_11  and  C_18
REMARK   10  A    between atoms: C_28  and  C_29
REMARK   11  A    between atoms: C_29  and  O_30
REMARK                            x       y       z     vdW  Elec       q    Type
REMARK                         _______ _______ _______ _____ _____    ______ ____
ROOT
ATOM      1  C   UNL     1      -1.186  11.631  18.899  0.00  0.00    +0.000 C 
ATOM      2  C   UNL     1      -1.039  12.550  19.894  0.00  0.00    +0.000 C 
ATOM      3  N   UNL     1       0.116  12.611  20.723  0.00  0.00    +0.000 N 
ATOM      4  C   UNL     1      -0.044  12.247  22.050  0.00  0.00    +0.000 C 
ATOM      5  O   UNL     1      -0.542  12.728  23.044  0.00  0.00    +0.000 OA
ATOM      6  C   UNL     1       0.331  10.874  21.685  0.00  0.00    +0.000 C 
ATOM      7  C   UNL     1      -0.171   9.716  22.109  0.00  0.00    +0.000 C 
ATOM      8  C   UNL     1       1.160  11.558  20.634  0.00  0.00    +0.000 C 
ATOM      9  S   UNL     1       1.525  10.964  19.006  0.00  0.00    +0.000 S 
ATOM     10  C   UNL     1      -0.123  10.658  18.445  0.00  0.00    +0.000 C 
ENDROOT
BRANCH   2  11
ATOM     11  C   UNL     1      -2.187  13.487  20.294  0.00  0.00    +0.000 C 
ATOM     12  O   UNL     1      -2.143  14.706  20.279  0.00  0.00    +0.000 OA
BRANCH  11  13
ATOM     13  O   UNL     1      -3.265  12.769  20.679  0.00  0.00    +0.000 OA
BRANCH  13  14
ATOM     14  C   UNL     1      -4.524  13.447  20.908  0.00  0.00    +0.000 C 
BRANCH  14  15
ATOM     15  C   UNL     1      -5.533  13.079  19.817  0.00  0.00    +0.000 A 
ATOM     16  C   UNL     1      -5.742  11.764  19.375  0.00  0.00    +0.000 A 
ATOM     17  C   UNL     1      -6.642  11.487  18.336  0.00  0.00    +0.000 A 
ATOM     18  C   UNL     1      -7.333  12.521  17.708  0.00  0.00    +0.000 A 
ATOM     19  C   UNL     1      -7.132  13.832  18.122  0.00  0.00    +0.000 A 
ATOM     20  C   UNL     1      -6.247  14.105  19.171  0.00  0.00    +0.000 A 
ENDBRANCH  14  15
BRANCH  14  21
ATOM     21  C   UNL     1      -4.945  13.136  22.349  0.00  0.00    +0.000 A 
ATOM     22  C   UNL     1      -3.985  12.833  23.328  0.00  0.00    +0.000 A 
ATOM     23  C   UNL     1      -4.375  12.399  24.600  0.00  0.00    +0.000 A 
ATOM     24  C   UNL     1      -5.727  12.278  24.918  0.00  0.00    +0.000 A 
ATOM     25  C   UNL     1      -6.691  12.637  23.982  0.00  0.00    +0.000 A 
ATOM     26  C   UNL     1      -6.302  13.076  22.715  0.00  0.00    +0.000 A 
ENDBRANCH  14  21
ENDBRANCH  13  14
ENDBRANCH  11  13
ENDBRANCH   2  11
BRANCH   1  27
ATOM     27  C   UNL     1      -2.479  11.281  18.162  0.00  0.00    +0.000 C 
BRANCH  27  28
ATOM     28  O   UNL     1      -2.353  11.608  16.764  0.00  0.00    +0.000 OA
BRANCH  28  30
ATOM     29  C   UNL     1      -3.483   9.555  16.600  0.00  0.00    +0.000 C 
ATOM     30  C   UNL     1      -2.959  10.763  15.885  0.00  0.00    +0.000 C 
ATOM     31  O   UNL     1      -3.075  10.945  14.681  0.00  0.00    +0.000 OA
ENDBRANCH  28  30
ENDBRANCH  27  28
ENDBRANCH   1  27
BRANCH   7  32
ATOM     32  C   UNL     1      -0.021   8.377  21.488  0.00  0.00    +0.000 C 
BRANCH  32  33
ATOM     33  O   UNL     1       1.366   8.062  21.480  0.00  0.00    +0.000 OA
ATOM     34  H   UNL     1       1.760   8.450  20.679  0.00  0.00    +0.000 HD
ENDBRANCH  32  33
ENDBRANCH   7  32
TORSDOF 10
ENDMDL
MODEL 7
REMARK VINA RESULT:      -6.2      2.160      5.066
REMARK  Name = 
REMARK  11 active torsions:
REMARK  status: ('A' for Active; 'I' for Inactive)
REMARK    1  A    between atoms: C_1  and  C_2
REMARK    2  A    between atoms: C_2  and  O_4
REMARK    3  A    between atoms: O_4  and  C_5
REMARK    4  A    between atoms: C_5  and  C_6
REMARK    5  A    between atoms: C_7  and  C_8
REMARK    6  A    between atoms: C_8  and  O_10
REMARK    7  A    between atoms: O_10  and  C_11
REMARK    8  A    between atoms: C_11  and  C_12
REMARK    9  A    between atoms: C_11  and  C_18
REMARK   10  A    between atoms: C_28  and  C_29
REMARK   11  A    between atoms: C_29  and  O_30
REMARK                            x       y       z     vdW  Elec       q    Type
REMARK                         _______ _______ _______ _____ _____    ______ ____
ROOT
ATOM      1  C   UNL     1      -3.470  13.214  22.702  0.00  0.00    +0.000 C 
ATOM      2  C   UNL     1      -2.154  12.858  22.733  0.00  0.00    +0.000 C 
ATOM      3  N   UNL     1      -1.178  13.577  23.477  0.00  0.00    +0.000 N 
ATOM      4  C   UNL     1      -0.236  14.288  22.751  0.00  0.00    +0.000 C 
ATOM      5  O   UNL     1       0.743  14.033  22.085  0.00  0.00    +0.000 OA
ATOM      6  C   UNL     1      -1.113  15.464  22.827  0.00  0.00    +0.000 C 
ATOM      7  C   UNL     1      -1.387  16.380  21.900  0.00  0.00    +0.000 C 
ATOM      8  C   UNL     1      -1.532  14.859  24.138  0.00  0.00    +0.000 C 
ATOM      9  S   UNL     1      -3.138  14.928  24.883  0.00  0.00    +0.000 S 
ATOM     10  C   UNL     1      -4.097  14.306  23.535  0.00  0.00    +0.000 C 
ENDROOT
BRANCH   2  11
ATOM     11  C   UNL     1      -1.607  11.740  21.834  0.00  0.00    +0.000 C 
ATOM     12  O   UNL     1      -1.080  10.712  22.225  0.00  0.00    +0.000 OA
BRANCH  11  13
ATOM     13  O   UNL     1      -1.781  12.059  20.532  0.00  0.00    +0.000 OA
BRANCH  13  14
ATOM     14  C   UNL     1      -1.103  11.283  19.515  0.00  0.00    +0.000 C 
BRANCH  14  15
ATOM     15  C   UNL     1      -2.070  10.928  18.383  0.00  0.00    +0.000 A 
ATOM     16  C   UNL     1      -1.705  10.150  17.274  0.00  0.00    +0.000 A 
ATOM     17  C   UNL     1      -2.616   9.896  16.239  0.00  0.00    +0.000 A 
ATOM     18  C   UNL     1      -3.900  10.433  16.284  0.00  0.00    +0.000 A 
ATOM     19  C   UNL     1      -4.280  11.217  17.367  0.00  0.00    +0.000 A 
ATOM     20  C   UNL     1      -3.376  11.454  18.409  0.00  0.00    +0.000 A 
ENDBRANCH  14  15
BRANCH  14  21
ATOM     21  C   UNL     1       0.148  12.072  19.110  0.00  0.00    +0.000 A 
ATOM     22  C   UNL     1       0.102  13.468  18.967  0.00  0.00    +0.000 A 
ATOM     23  C   UNL     1       1.198  14.169  18.450  0.00  0.00    +0.000 A 
ATOM     24  C   UNL     1       2.359  13.489  18.085  0.00  0.00    +0.000 A 
ATOM     25  C   UNL     1       2.445  12.116  18.283  0.00  0.00    +0.000 A 
ATOM     26  C   UNL     1       1.355  11.417  18.804  0.00  0.00    +0.000 A 
ENDBRANCH  14  21
ENDBRANCH  13  14
ENDBRANCH  11  13
ENDBRANCH   2  11
BRANCH   1  27
ATOM     27  C   UNL     1      -4.529  12.712  21.720  0.00  0.00    +0.000 C 
BRANCH  27  28
ATOM     28  O   UNL     1      -5.652  12.169  22.443  0.00  0.00    +0.000 OA
BRANCH  28  30
ATOM     29  C   UNL     1      -7.915  12.406  23.028  0.00  0.00    +0.000 C 
ATOM     30  C   UNL     1      -6.887  12.437  21.938  0.00  0.00    +0.000 C 
ATOM     31  O   UNL     1      -7.145  12.676  20.767  0.00  0.00    +0.000 OA
ENDBRANCH  28  30
ENDBRANCH  27  28
ENDBRANCH   1  27
BRANCH   7  32
ATOM     32  C   UNL     1      -2.515  17.344  21.880  0.00  0.00    +0.000 C 
BRANCH  32  33
ATOM     33  O   UNL     1      -2.563  17.974  23.154  0.00  0.00    +0.000 OA
ATOM     34  H   UNL     1      -2.845  17.310  23.808  0.00  0.00    +0.000 HD
ENDBRANCH  32  33
ENDBRANCH   7  32
TORSDOF 10
ENDMDL
MODEL 8
REMARK VINA RESULT:      -6.2      2.863      5.501
REMARK  Name = 
REMARK  11 active torsions:
REMARK  status: ('A' for Active; 'I' for Inactive)
REMARK    1  A    between atoms: C_1  and  C_2
REMARK    2  A    between atoms: C_2  and  O_4
REMARK    3  A    between atoms: O_4  and  C_5
REMARK    4  A    between atoms: C_5  and  C_6
REMARK    5  A    between atoms: C_7  and  C_8
REMARK    6  A    between atoms: C_8  and  O_10
REMARK    7  A    between atoms: O_10  and  C_11
REMARK    8  A    between atoms: C_11  and  C_12
REMARK    9  A    between atoms: C_11  and  C_18
REMARK   10  A    between atoms: C_28  and  C_29
REMARK   11  A    between atoms: C_29  and  O_30
REMARK                            x       y       z     vdW  Elec       q    Type
REMARK                         _______ _______ _______ _____ _____    ______ ____
ROOT
ATOM      1  C   UNL     1       0.067  12.370  20.545  0.00  0.00    +0.000 C 
ATOM      2  C   UNL     1      -0.877  13.210  20.033  0.00  0.00    +0.000 C 
ATOM      3  N   UNL     1      -0.585  14.182  19.036  0.00  0.00    +0.000 N 
ATOM      4  C   UNL     1      -0.633  15.511  19.423  0.00  0.00    +0.000 C 
ATOM      5  O   UNL     1      -1.491  16.325  19.685  0.00  0.00    +0.000 OA
ATOM      6  C   UNL     1       0.803  15.441  19.727  0.00  0.00    +0.000 C 
ATOM      7  C   UNL     1       1.483  15.971  20.742  0.00  0.00    +0.000 C 
ATOM      8  C   UNL     1       0.818  14.429  18.616  0.00  0.00    +0.000 C 
ATOM      9  S   UNL     1       1.852  12.996  18.489  0.00  0.00    +0.000 S 
ATOM     10  C   UNL     1       1.489  12.251  20.050  0.00  0.00    +0.000 C 
ENDROOT
BRANCH   2  11
ATOM     11  C   UNL     1      -2.295  13.270  20.616  0.00  0.00    +0.000 C 
ATOM     12  O   UNL     1      -2.727  14.153  21.339  0.00  0.00    +0.000 OA
BRANCH  11  13
ATOM     13  O   UNL     1      -3.010  12.193  20.222  0.00  0.00    +0.000 OA
BRANCH  13  14
ATOM     14  C   UNL     1      -3.969  12.332  19.146  0.00  0.00    +0.000 C 
BRANCH  14  15
ATOM     15  C   UNL     1      -3.514  11.534  17.922  0.00  0.00    +0.000 A 
ATOM     16  C   UNL     1      -4.168  11.589  16.681  0.00  0.00    +0.000 A 
ATOM     17  C   UNL     1      -3.741  10.798  15.605  0.00  0.00    +0.000 A 
ATOM     18  C   UNL     1      -2.667   9.924  15.756  0.00  0.00    +0.000 A 
ATOM     19  C   UNL     1      -2.013   9.845  16.979  0.00  0.00    +0.000 A 
ATOM     20  C   UNL     1      -2.428  10.648  18.047  0.00  0.00    +0.000 A 
ENDBRANCH  14  15
BRANCH  14  21
ATOM     21  C   UNL     1      -5.342  11.964  19.719  0.00  0.00    +0.000 A 
ATOM     22  C   UNL     1      -5.841  12.612  20.860  0.00  0.00    +0.000 A 
ATOM     23  C   UNL     1      -7.020  12.172  21.473  0.00  0.00    +0.000 A 
ATOM     24  C   UNL     1      -7.726  11.092  20.945  0.00  0.00    +0.000 A 
ATOM     25  C   UNL     1      -7.282  10.482  19.778  0.00  0.00    +0.000 A 
ATOM     26  C   UNL     1      -6.109  10.924  19.163  0.00  0.00    +0.000 A 
ENDBRANCH  14  21
ENDBRANCH  13  14
ENDBRANCH  11  13
ENDBRANCH   2  11
BRANCH   1  27
ATOM     27  C   UNL     1      -0.059  11.516  21.806  0.00  0.00    +0.000 C 
BRANCH  27  28
ATOM     28  O   UNL     1       1.067  10.621  21.909  0.00  0.00    +0.000 OA
BRANCH  28  30
ATOM     29  C   UNL     1      -0.516   9.140  22.814  0.00  0.00    +0.000 C 
ATOM     30  C   UNL     1       0.781   9.301  22.081  0.00  0.00    +0.000 C 
ATOM     31  O   UNL     1       1.467   8.364  21.698  0.00  0.00    +0.000 OA
ENDBRANCH  28  30
ENDBRANCH  27  28
ENDBRANCH   1  27
BRANCH   7  32
ATOM     32  C   UNL     1       2.843  15.610  21.214  0.00  0.00    +0.000 C 
BRANCH  32  33
ATOM     33  O   UNL     1       3.771  16.087  20.247  0.00  0.00    +0.000 OA
ATOM     34  H   UNL     1       3.677  17.054  20.190  0.00  0.00    +0.000 HD
ENDBRANCH  32  33
ENDBRANCH   7  32
TORSDOF 10
ENDMDL
MODEL 9
REMARK VINA RESULT:      -6.2      1.461      1.716
REMARK  Name = 
REMARK  11 active torsions:
REMARK  status: ('A' for Active; 'I' for Inactive)
REMARK    1  A    between atoms: C_1  and  C_2
REMARK    2  A    between atoms: C_2  and  O_4
REMARK    3  A    between atoms: O_4  and  C_5
REMARK    4  A    between atoms: C_5  and  C_6
REMARK    5  A    between atoms: C_7  and  C_8
REMARK    6  A    between atoms: C_8  and  O_10
REMARK    7  A    between atoms: O_10  and  C_11
REMARK    8  A    between atoms: C_11  and  C_12
REMARK    9  A    between atoms: C_11  and  C_18
REMARK   10  A    between atoms: C_28  and  C_29
REMARK   11  A    between atoms: C_29  and  O_30
REMARK                            x       y       z     vdW  Elec       q    Type
REMARK                         _______ _______ _______ _____ _____    ______ ____
ROOT
ATOM      1  C   UNL     1      -0.117  13.710  21.284  0.00  0.00    +0.000 C 
ATOM      2  C   UNL     1      -0.979  12.686  21.542  0.00  0.00    +0.000 C 
ATOM      3  N   UNL     1      -2.369  12.886  21.770  0.00  0.00    +0.000 N 
ATOM      4  C   UNL     1      -2.832  12.659  23.055  0.00  0.00    +0.000 C 
ATOM      5  O   UNL     1      -3.056  11.697  23.757  0.00  0.00    +0.000 OA
ATOM      6  C   UNL     1      -2.613  14.081  23.350  0.00  0.00    +0.000 C 
ATOM      7  C   UNL     1      -2.135  14.655  24.453  0.00  0.00    +0.000 C 
ATOM      8  C   UNL     1      -2.919  14.260  21.890  0.00  0.00    +0.000 C 
ATOM      9  S   UNL     1      -2.232  15.469  20.793  0.00  0.00    +0.000 S 
ATOM     10  C   UNL     1      -0.515  15.151  21.069  0.00  0.00    +0.000 C 
ENDROOT
BRANCH   2  11
ATOM     11  C   UNL     1      -0.475  11.252  21.761  0.00  0.00    +0.000 C 
ATOM     12  O   UNL     1       0.198  10.875  22.706  0.00  0.00    +0.000 OA
BRANCH  11  13
ATOM     13  O   UNL     1      -0.875  10.455  20.746  0.00  0.00    +0.000 OA
BRANCH  13  14
ATOM     14  C   UNL     1      -0.302  10.640  19.430  0.00  0.00    +0.000 C 
BRANCH  14  15
ATOM     15  C   UNL     1       0.776   9.585  19.166  0.00  0.00    +0.000 A 
ATOM     16  C   UNL     1       1.431   9.446  17.933  0.00  0.00    +0.000 A 
ATOM     17  C   UNL     1       2.375   8.429  17.728  0.00  0.00    +0.000 A 
ATOM     18  C   UNL     1       2.665   7.523  18.745  0.00  0.00    +0.000 A 
ATOM     19  C   UNL     1       2.020   7.635  19.970  0.00  0.00    +0.000 A 
ATOM     20  C   UNL     1       1.092   8.661  20.180  0.00  0.00    +0.000 A 
ENDBRANCH  14  15
BRANCH  14  21
ATOM     21  C   UNL     1      -1.467  10.676  18.434  0.00  0.00    +0.000 A 
ATOM     22  C   UNL     1      -2.427   9.652  18.414  0.00  0.00    +0.000 A 
ATOM     23  C   UNL     1      -3.399   9.605  17.408  0.00  0.00    +0.000 A 
ATOM     24  C   UNL     1      -3.438  10.588  16.420  0.00  0.00    +0.000 A 
ATOM     25  C   UNL     1      -2.536  11.645  16.464  0.00  0.00    +0.000 A 
ATOM     26  C   UNL     1      -1.570  11.697  17.470  0.00  0.00    +0.000 A 
ENDBRANCH  14  21
ENDBRANCH  13  14
ENDBRANCH  11  13
ENDBRANCH   2  11
BRANCH   1  27
ATOM     27  C   UNL     1       1.410  13.651  21.325  0.00  0.00    +0.000 C 
BRANCH  27  28
ATOM     28  O   UNL     1       1.964  14.720  20.532  0.00  0.00    +0.000 OA
BRANCH  28  30
ATOM     29  C   UNL     1       2.523  13.088  18.936  0.00  0.00    +0.000 C 
ATOM     30  C   UNL     1       2.069  14.493  19.193  0.00  0.00    +0.000 C 
ATOM     31  O   UNL     1       1.827  15.303  18.310  0.00  0.00    +0.000 OA
ENDBRANCH  28  30
ENDBRANCH  27  28
ENDBRANCH   1  27
BRANCH   7  32
ATOM     32  C   UNL     1      -1.607  16.034  24.605  0.00  0.00    +0.000 C 
BRANCH  32  33
ATOM     33  O   UNL     1      -0.190  15.964  24.493  0.00  0.00    +0.000 OA
ATOM     34  H   UNL     1       0.057  15.031  24.373  0.00  0.00    +0.000 HD
ENDBRANCH  32  33
ENDBRANCH   7  32
TORSDOF 10
ENDMDL
