MODEL 1
REMARK VINA RESULT:      -7.4      0.000      0.000
REMARK  Name = 
REMARK  4 active torsions:
REMARK  status: ('A' for Active; 'I' for Inactive)
REMARK    1  A    between atoms: C_2  and  C_9
REMARK    2  A    between atoms: C_12  and  C_13
REMARK    3  A    between atoms: C_13  and  O_14
REMARK    4  A    between atoms: O_14  and  C_15
REMARK                            x       y       z     vdW  Elec       q    Type
REMARK                         _______ _______ _______ _____ _____    ______ ____
ROOT
ATOM      1  C   UNL     1       8.551   8.948  18.524  0.00  0.00    +0.000 A 
ATOM      2  C   UNL     1       7.648   8.889  17.479  0.00  0.00    +0.000 A 
ATOM      3  C   UNL     1       7.209   7.555  17.385  0.00  0.00    +0.000 A 
ATOM      4  C   UNL     1       7.855   6.864  18.389  0.00  0.00    +0.000 A 
ATOM      5  O   UNL     1       8.704   7.699  19.074  0.00  0.00    +0.000 OA
ENDROOT
BRANCH   1   7
ATOM      6  O   UNL     1       9.182  10.351  20.266  0.00  0.00    +0.000 OA
ATOM      7  C   UNL     1       9.229  10.116  19.059  0.00  0.00    +0.000 C 
ATOM      8  N   UNL     1       9.836  10.923  18.119  0.00  0.00    +0.000 N 
ATOM      9  C   UNL     1      10.464  12.078  18.504  0.00  0.00    +0.000 A 
ATOM     10  N   UNL     1      10.794  12.460  19.712  0.00  0.00    +0.000 NA
ATOM     11  C   UNL     1      11.331  13.727  19.675  0.00  0.00    +0.000 A 
ATOM     12  C   UNL     1      11.407  14.295  18.421  0.00  0.00    +0.000 A 
ATOM     13  S   UNL     1      10.839  13.171  17.247  0.00  0.00    +0.000 S 
ATOM     14  H   UNL     1       9.704  10.740  17.135  0.00  0.00    +0.000 HD
ENDBRANCH   1   7
BRANCH   4  15
ATOM     15  C   UNL     1       7.728   5.457  18.856  0.00  0.00    +0.000 C 
BRANCH  15  16
ATOM     16  O   UNL     1       6.530   5.371  19.626  0.00  0.00    +0.000 OA
BRANCH  16  17
ATOM     17  C   UNL     1       5.391   5.021  18.951  0.00  0.00    +0.000 A 
ATOM     18  C   UNL     1       5.320   4.175  17.838  0.00  0.00    +0.000 A 
ATOM     19  C   UNL     1       4.086   3.906  17.240  0.00  0.00    +0.000 A 
ATOM     20  C   UNL     1       2.928   4.480  17.752  0.00  0.00    +0.000 A 
ATOM     21  F   UNL     1       1.750   4.222  17.174  0.00  0.00    +0.000 F 
ATOM     22  C   UNL     1       2.981   5.320  18.857  0.00  0.00    +0.000 A 
ATOM     23  C   UNL     1       4.214   5.588  19.455  0.00  0.00    +0.000 A 
ENDBRANCH  16  17
ENDBRANCH  15  16
ENDBRANCH   4  15
TORSDOF 4
ENDMDL
MODEL 2
REMARK VINA RESULT:      -7.3      6.063      6.946
REMARK  Name = 
REMARK  4 active torsions:
REMARK  status: ('A' for Active; 'I' for Inactive)
REMARK    1  A    between atoms: C_2  and  C_9
REMARK    2  A    between atoms: C_12  and  C_13
REMARK    3  A    between atoms: C_13  and  O_14
REMARK    4  A    between atoms: O_14  and  C_15
REMARK                            x       y       z     vdW  Elec       q    Type
REMARK                         _______ _______ _______ _____ _____    ______ ____
ROOT
ATOM      1  C   UNL     1       3.552   7.146  17.578  0.00  0.00    +0.000 A 
ATOM      2  C   UNL     1       4.472   7.281  16.554  0.00  0.00    +0.000 A 
ATOM      3  C   UNL     1       5.138   6.048  16.430  0.00  0.00    +0.000 A 
ATOM      4  C   UNL     1       4.583   5.211  17.375  0.00  0.00    +0.000 A 
ATOM      5  O   UNL     1       3.632   5.880  18.106  0.00  0.00    +0.000 OA
ENDROOT
BRANCH   1   7
ATOM      6  O   UNL     1       2.240   9.045  17.307  0.00  0.00    +0.000 OA
ATOM      7  C   UNL     1       2.577   8.117  18.043  0.00  0.00    +0.000 C 
ATOM      8  N   UNL     1       2.146   7.939  19.341  0.00  0.00    +0.000 N 
ATOM      9  C   UNL     1       1.262   8.824  19.901  0.00  0.00    +0.000 A 
ATOM     10  N   UNL     1       0.546   9.744  19.306  0.00  0.00    +0.000 NA
ATOM     11  C   UNL     1      -0.148  10.478  20.241  0.00  0.00    +0.000 A 
ATOM     12  C   UNL     1       0.049  10.096  21.551  0.00  0.00    +0.000 A 
ATOM     13  S   UNL     1       1.096   8.729  21.598  0.00  0.00    +0.000 S 
ATOM     14  H   UNL     1       2.579   7.240  19.926  0.00  0.00    +0.000 HD
ENDBRANCH   1   7
BRANCH   4  15
ATOM     15  C   UNL     1       4.795   3.765  17.657  0.00  0.00    +0.000 C 
BRANCH  15  16
ATOM     16  O   UNL     1       3.532   3.116  17.523  0.00  0.00    +0.000 OA
BRANCH  16  17
ATOM     17  C   UNL     1       2.782   2.993  18.663  0.00  0.00    +0.000 A 
ATOM     18  C   UNL     1       1.390   3.111  18.748  0.00  0.00    +0.000 A 
ATOM     19  C   UNL     1       0.748   2.968  19.981  0.00  0.00    +0.000 A 
ATOM     20  C   UNL     1       1.496   2.708  21.124  0.00  0.00    +0.000 A 
ATOM     21  F   UNL     1       0.877   2.575  22.303  0.00  0.00    +0.000 F 
ATOM     22  C   UNL     1       2.878   2.586  21.056  0.00  0.00    +0.000 A 
ATOM     23  C   UNL     1       3.518   2.729  19.823  0.00  0.00    +0.000 A 
ENDBRANCH  16  17
ENDBRANCH  15  16
ENDBRANCH   4  15
TORSDOF 4
ENDMDL
MODEL 3
REMARK VINA RESULT:      -7.3      6.058      6.911
REMARK  Name = 
REMARK  4 active torsions:
REMARK  status: ('A' for Active; 'I' for Inactive)
REMARK    1  A    between atoms: C_2  and  C_9
REMARK    2  A    between atoms: C_12  and  C_13
REMARK    3  A    between atoms: C_13  and  O_14
REMARK    4  A    between atoms: O_14  and  C_15
REMARK                            x       y       z     vdW  Elec       q    Type
REMARK                         _______ _______ _______ _____ _____    ______ ____
ROOT
ATOM      1  C   UNL     1       3.597   7.151  17.537  0.00  0.00    +0.000 A 
ATOM      2  C   UNL     1       4.491   7.286  16.490  0.00  0.00    +0.000 A 
ATOM      3  C   UNL     1       5.171   6.060  16.366  0.00  0.00    +0.000 A 
ATOM      4  C   UNL     1       4.649   5.228  17.334  0.00  0.00    +0.000 A 
ATOM      5  O   UNL     1       3.706   5.894  18.079  0.00  0.00    +0.000 OA
ENDROOT
BRANCH   1   7
ATOM      6  O   UNL     1       2.295   9.060  17.293  0.00  0.00    +0.000 OA
ATOM      7  C   UNL     1       2.620   8.116  18.011  0.00  0.00    +0.000 C 
ATOM      8  N   UNL     1       2.173   7.910  19.300  0.00  0.00    +0.000 N 
ATOM      9  C   UNL     1       1.285   8.786  19.869  0.00  0.00    +0.000 A 
ATOM     10  N   UNL     1       0.579   9.721  19.286  0.00  0.00    +0.000 NA
ATOM     11  C   UNL     1      -0.123  10.437  20.230  0.00  0.00    +0.000 A 
ATOM     12  C   UNL     1       0.057  10.025  21.532  0.00  0.00    +0.000 A 
ATOM     13  S   UNL     1       1.099   8.654  21.562  0.00  0.00    +0.000 S 
ATOM     14  H   UNL     1       2.597   7.197  19.875  0.00  0.00    +0.000 HD
ENDBRANCH   1   7
BRANCH   4  15
ATOM     15  C   UNL     1       4.888   3.789  17.630  0.00  0.00    +0.000 C 
BRANCH  15  16
ATOM     16  O   UNL     1       3.619   3.138  17.626  0.00  0.00    +0.000 OA
BRANCH  16  17
ATOM     17  C   UNL     1       2.999   2.993  18.839  0.00  0.00    +0.000 A 
ATOM     18  C   UNL     1       3.632   2.750  20.063  0.00  0.00    +0.000 A 
ATOM     19  C   UNL     1       2.874   2.617  21.230  0.00  0.00    +0.000 A 
ATOM     20  C   UNL     1       1.490   2.728  21.172  0.00  0.00    +0.000 A 
ATOM     21  F   UNL     1       0.769   2.597  22.292  0.00  0.00    +0.000 F 
ATOM     22  C   UNL     1       0.847   2.972  19.966  0.00  0.00    +0.000 A 
ATOM     23  C   UNL     1       1.604   3.105  18.801  0.00  0.00    +0.000 A 
ENDBRANCH  16  17
ENDBRANCH  15  16
ENDBRANCH   4  15
TORSDOF 4
ENDMDL
MODEL 4
REMARK VINA RESULT:      -7.3      5.253      7.274
REMARK  Name = 
REMARK  4 active torsions:
REMARK  status: ('A' for Active; 'I' for Inactive)
REMARK    1  A    between atoms: C_2  and  C_9
REMARK    2  A    between atoms: C_12  and  C_13
REMARK    3  A    between atoms: C_13  and  O_14
REMARK    4  A    between atoms: O_14  and  C_15
REMARK                            x       y       z     vdW  Elec       q    Type
REMARK                         _______ _______ _______ _____ _____    ______ ____
ROOT
ATOM      1  C   UNL     1       2.981   5.212  19.094  0.00  0.00    +0.000 A 
ATOM      2  C   UNL     1       3.329   3.988  19.633  0.00  0.00    +0.000 A 
ATOM      3  C   UNL     1       4.067   3.298  18.653  0.00  0.00    +0.000 A 
ATOM      4  C   UNL     1       4.148   4.141  17.565  0.00  0.00    +0.000 A 
ATOM      5  O   UNL     1       3.460   5.304  17.810  0.00  0.00    +0.000 OA
ENDROOT
BRANCH   1   7
ATOM      6  O   UNL     1       1.679   6.113  20.795  0.00  0.00    +0.000 OA
ATOM      7  C   UNL     1       2.276   6.307  19.737  0.00  0.00    +0.000 C 
ATOM      8  N   UNL     1       2.287   7.500  19.042  0.00  0.00    +0.000 N 
ATOM      9  C   UNL     1       1.614   8.588  19.530  0.00  0.00    +0.000 A 
ATOM     10  N   UNL     1       1.109   8.763  20.725  0.00  0.00    +0.000 NA
ATOM     11  C   UNL     1       0.435   9.962  20.780  0.00  0.00    +0.000 A 
ATOM     12  C   UNL     1       0.443  10.694  19.612  0.00  0.00    +0.000 A 
ATOM     13  S   UNL     1       1.381   9.870  18.425  0.00  0.00    +0.000 S 
ATOM     14  H   UNL     1       2.675   7.538  18.110  0.00  0.00    +0.000 HD
ENDBRANCH   1   7
BRANCH   4  15
ATOM     15  C   UNL     1       4.879   4.018  16.275  0.00  0.00    +0.000 C 
BRANCH  15  16
ATOM     16  O   UNL     1       6.271   3.953  16.579  0.00  0.00    +0.000 OA
BRANCH  16  17
ATOM     17  C   UNL     1       6.838   5.086  17.101  0.00  0.00    +0.000 A 
ATOM     18  C   UNL     1       6.847   6.352  16.504  0.00  0.00    +0.000 A 
ATOM     19  C   UNL     1       7.471   7.425  17.146  0.00  0.00    +0.000 A 
ATOM     20  C   UNL     1       8.081   7.233  18.380  0.00  0.00    +0.000 A 
ATOM     21  F   UNL     1       8.679   8.263  18.990  0.00  0.00    +0.000 F 
ATOM     22  C   UNL     1       8.079   5.984  18.987  0.00  0.00    +0.000 A 
ATOM     23  C   UNL     1       7.456   4.912  18.344  0.00  0.00    +0.000 A 
ENDBRANCH  16  17
ENDBRANCH  15  16
ENDBRANCH   4  15
TORSDOF 4
ENDMDL
MODEL 5
REMARK VINA RESULT:      -7.3      5.333      7.436
REMARK  Name = 
REMARK  4 active torsions:
REMARK  status: ('A' for Active; 'I' for Inactive)
REMARK    1  A    between atoms: C_2  and  C_9
REMARK    2  A    between atoms: C_12  and  C_13
REMARK    3  A    between atoms: C_13  and  O_14
REMARK    4  A    between atoms: O_14  and  C_15
REMARK                            x       y       z     vdW  Elec       q    Type
REMARK                         _______ _______ _______ _____ _____    ______ ____
ROOT
ATOM      1  C   UNL     1       2.586   5.182  18.670  0.00  0.00    +0.000 A 
ATOM      2  C   UNL     1       2.160   3.886  18.440  0.00  0.00    +0.000 A 
ATOM      3  C   UNL     1       2.934   3.377  17.380  0.00  0.00    +0.000 A 
ATOM      4  C   UNL     1       3.808   4.382  17.022  0.00  0.00    +0.000 A 
ATOM      5  O   UNL     1       3.584   5.504  17.782  0.00  0.00    +0.000 OA
ENDROOT
BRANCH   1   7
ATOM      6  O   UNL     1       1.877   5.676  20.827  0.00  0.00    +0.000 OA
ATOM      7  C   UNL     1       2.144   6.101  19.703  0.00  0.00    +0.000 C 
ATOM      8  N   UNL     1       1.998   7.412  19.298  0.00  0.00    +0.000 N 
ATOM      9  C   UNL     1       1.541   8.358  20.178  0.00  0.00    +0.000 A 
ATOM     10  N   UNL     1       1.416   8.268  21.477  0.00  0.00    +0.000 NA
ATOM     11  C   UNL     1       0.836   9.412  21.975  0.00  0.00    +0.000 A 
ATOM     12  C   UNL     1       0.530  10.372  21.034  0.00  0.00    +0.000 A 
ATOM     13  S   UNL     1       1.045   9.837  19.481  0.00  0.00    +0.000 S 
ATOM     14  H   UNL     1       2.097   7.653  18.323  0.00  0.00    +0.000 HD
ENDBRANCH   1   7
BRANCH   4  15
ATOM     15  C   UNL     1       4.930   4.410  16.046  0.00  0.00    +0.000 C 
BRANCH  15  16
ATOM     16  O   UNL     1       6.116   4.048  16.750  0.00  0.00    +0.000 OA
BRANCH  16  17
ATOM     17  C   UNL     1       6.797   5.063  17.369  0.00  0.00    +0.000 A 
ATOM     18  C   UNL     1       7.410   4.997  18.625  0.00  0.00    +0.000 A 
ATOM     19  C   UNL     1       8.070   6.116  19.142  0.00  0.00    +0.000 A 
ATOM     20  C   UNL     1       8.116   7.294  18.405  0.00  0.00    +0.000 A 
ATOM     21  F   UNL     1       8.747   8.363  18.907  0.00  0.00    +0.000 F 
ATOM     22  C   UNL     1       7.515   7.375  17.157  0.00  0.00    +0.000 A 
ATOM     23  C   UNL     1       6.856   6.257  16.640  0.00  0.00    +0.000 A 
ENDBRANCH  16  17
ENDBRANCH  15  16
ENDBRANCH   4  15
TORSDOF 4
ENDMDL
MODEL 6
REMARK VINA RESULT:      -7.2      5.211      9.352
REMARK  Name = 
REMARK  4 active torsions:
REMARK  status: ('A' for Active; 'I' for Inactive)
REMARK    1  A    between atoms: C_2  and  C_9
REMARK    2  A    between atoms: C_12  and  C_13
REMARK    3  A    between atoms: C_13  and  O_14
REMARK    4  A    between atoms: O_14  and  C_15
REMARK                            x       y       z     vdW  Elec       q    Type
REMARK                         _______ _______ _______ _____ _____    ______ ____
ROOT
ATOM      1  C   UNL     1       6.572   6.081  17.948  0.00  0.00    +0.000 A 
ATOM      2  C   UNL     1       7.601   5.890  18.851  0.00  0.00    +0.000 A 
ATOM      3  C   UNL     1       8.379   7.063  18.848  0.00  0.00    +0.000 A 
ATOM      4  C   UNL     1       7.778   7.923  17.953  0.00  0.00    +0.000 A 
ATOM      5  O   UNL     1       6.688   7.322  17.371  0.00  0.00    +0.000 OA
ENDROOT
BRANCH   1   7
ATOM      6  O   UNL     1       4.876   5.290  16.570  0.00  0.00    +0.000 OA
ATOM      7  C   UNL     1       5.467   5.188  17.644  0.00  0.00    +0.000 C 
ATOM      8  N   UNL     1       5.128   4.311  18.654  0.00  0.00    +0.000 N 
ATOM      9  C   UNL     1       4.071   3.454  18.496  0.00  0.00    +0.000 A 
ATOM     10  N   UNL     1       3.422   3.157  17.399  0.00  0.00    +0.000 NA
ATOM     11  C   UNL     1       2.368   2.320  17.688  0.00  0.00    +0.000 A 
ATOM     12  C   UNL     1       2.234   1.983  19.018  0.00  0.00    +0.000 A 
ATOM     13  S   UNL     1       3.513   2.698  19.922  0.00  0.00    +0.000 S 
ATOM     14  H   UNL     1       5.567   4.389  19.560  0.00  0.00    +0.000 HD
ENDBRANCH   1   7
BRANCH   4  15
ATOM     15  C   UNL     1       8.072   9.337  17.596  0.00  0.00    +0.000 C 
BRANCH  15  16
ATOM     16  O   UNL     1       8.836   9.896  18.664  0.00  0.00    +0.000 OA
BRANCH  16  17
ATOM     17  C   UNL     1       9.464  11.087  18.412  0.00  0.00    +0.000 A 
ATOM     18  C   UNL     1       8.874  12.226  17.853  0.00  0.00    +0.000 A 
ATOM     19  C   UNL     1       9.636  13.379  17.644  0.00  0.00    +0.000 A 
ATOM     20  C   UNL     1      10.982  13.391  17.992  0.00  0.00    +0.000 A 
ATOM     21  F   UNL     1      11.708  14.496  17.787  0.00  0.00    +0.000 F 
ATOM     22  C   UNL     1      11.582  12.269  18.549  0.00  0.00    +0.000 A 
ATOM     23  C   UNL     1      10.820  11.118  18.759  0.00  0.00    +0.000 A 
ENDBRANCH  16  17
ENDBRANCH  15  16
ENDBRANCH   4  15
TORSDOF 4
ENDMDL
MODEL 7
REMARK VINA RESULT:      -7.2      6.252      7.507
REMARK  Name = 
REMARK  4 active torsions:
REMARK  status: ('A' for Active; 'I' for Inactive)
REMARK    1  A    between atoms: C_2  and  C_9
REMARK    2  A    between atoms: C_12  and  C_13
REMARK    3  A    between atoms: C_13  and  O_14
REMARK    4  A    between atoms: O_14  and  C_15
REMARK                            x       y       z     vdW  Elec       q    Type
REMARK                         _______ _______ _______ _____ _____    ______ ____
ROOT
ATOM      1  C   UNL     1       2.233   5.842  20.124  0.00  0.00    +0.000 A 
ATOM      2  C   UNL     1       1.647   4.837  20.871  0.00  0.00    +0.000 A 
ATOM      3  C   UNL     1       2.413   3.672  20.672  0.00  0.00    +0.000 A 
ATOM      4  C   UNL     1       3.441   4.026  19.822  0.00  0.00    +0.000 A 
ATOM      5  O   UNL     1       3.324   5.344  19.454  0.00  0.00    +0.000 OA
ENDROOT
BRANCH   1   7
ATOM      6  O   UNL     1       2.304   7.952  19.152  0.00  0.00    +0.000 OA
ATOM      7  C   UNL     1       1.854   7.242  20.052  0.00  0.00    +0.000 C 
ATOM      8  N   UNL     1       1.041   7.683  21.076  0.00  0.00    +0.000 N 
ATOM      9  C   UNL     1       0.660   8.998  21.136  0.00  0.00    +0.000 A 
ATOM     10  N   UNL     1       0.765   9.918  20.211  0.00  0.00    +0.000 NA
ATOM     11  C   UNL     1       0.343  11.131  20.704  0.00  0.00    +0.000 A 
ATOM     12  C   UNL     1      -0.088  11.114  22.014  0.00  0.00    +0.000 A 
ATOM     13  S   UNL     1      -0.015   9.505  22.621  0.00  0.00    +0.000 S 
ATOM     14  H   UNL     1       0.836   7.075  21.855  0.00  0.00    +0.000 HD
ENDBRANCH   1   7
BRANCH   4  15
ATOM     15  C   UNL     1       4.620   3.263  19.331  0.00  0.00    +0.000 C 
BRANCH  15  16
ATOM     16  O   UNL     1       5.611   4.213  18.945  0.00  0.00    +0.000 OA
BRANCH  16  17
ATOM     17  C   UNL     1       5.854   4.335  17.603  0.00  0.00    +0.000 A 
ATOM     18  C   UNL     1       4.931   4.108  16.575  0.00  0.00    +0.000 A 
ATOM     19  C   UNL     1       5.316   4.265  15.241  0.00  0.00    +0.000 A 
ATOM     20  C   UNL     1       6.617   4.647  14.936  0.00  0.00    +0.000 A 
ATOM     21  F   UNL     1       6.981   4.792  13.656  0.00  0.00    +0.000 F 
ATOM     22  C   UNL     1       7.544   4.878  15.944  0.00  0.00    +0.000 A 
ATOM     23  C   UNL     1       7.159   4.721  17.277  0.00  0.00    +0.000 A 
ENDBRANCH  16  17
ENDBRANCH  15  16
ENDBRANCH   4  15
TORSDOF 4
ENDMDL
MODEL 8
REMARK VINA RESULT:      -7.2      7.385      9.879
REMARK  Name = 
REMARK  4 active torsions:
REMARK  status: ('A' for Active; 'I' for Inactive)
REMARK    1  A    between atoms: C_2  and  C_9
REMARK    2  A    between atoms: C_12  and  C_13
REMARK    3  A    between atoms: C_13  and  O_14
REMARK    4  A    between atoms: O_14  and  C_15
REMARK                            x       y       z     vdW  Elec       q    Type
REMARK                         _______ _______ _______ _____ _____    ______ ____
ROOT
ATOM      1  C   UNL     1       1.446   8.395  20.292  0.00  0.00    +0.000 A 
ATOM      2  C   UNL     1       1.032   8.762  21.559  0.00  0.00    +0.000 A 
ATOM      3  C   UNL     1       0.303   9.959  21.427  0.00  0.00    +0.000 A 
ATOM      4  C   UNL     1       0.294  10.260  20.081  0.00  0.00    +0.000 A 
ATOM      5  O   UNL     1       1.017   9.328  19.378  0.00  0.00    +0.000 OA
ENDROOT
BRANCH   1   7
ATOM      6  O   UNL     1       2.789   7.185  18.832  0.00  0.00    +0.000 OA
ATOM      7  C   UNL     1       2.169   7.200  19.895  0.00  0.00    +0.000 C 
ATOM      8  N   UNL     1       2.040   6.126  20.752  0.00  0.00    +0.000 N 
ATOM      9  C   UNL     1       2.641   4.931  20.454  0.00  0.00    +0.000 A 
ATOM     10  N   UNL     1       3.551   4.682  19.547  0.00  0.00    +0.000 NA
ATOM     11  C   UNL     1       3.824   3.334  19.512  0.00  0.00    +0.000 A 
ATOM     12  C   UNL     1       3.112   2.568  20.409  0.00  0.00    +0.000 A 
ATOM     13  S   UNL     1       2.110   3.589  21.367  0.00  0.00    +0.000 S 
ATOM     14  H   UNL     1       1.396   6.173  21.527  0.00  0.00    +0.000 HD
ENDBRANCH   1   7
BRANCH   4  15
ATOM     15  C   UNL     1      -0.395  11.335  19.316  0.00  0.00    +0.000 C 
BRANCH  15  16
ATOM     16  O   UNL     1      -1.796  11.078  19.388  0.00  0.00    +0.000 OA
BRANCH  16  17
ATOM     17  C   UNL     1      -2.455  10.932  18.197  0.00  0.00    +0.000 A 
ATOM     18  C   UNL     1      -3.659  11.551  17.841  0.00  0.00    +0.000 A 
ATOM     19  C   UNL     1      -4.228  11.308  16.588  0.00  0.00    +0.000 A 
ATOM     20  C   UNL     1      -3.597  10.449  15.696  0.00  0.00    +0.000 A 
ATOM     21  F   UNL     1      -4.148  10.217  14.498  0.00  0.00    +0.000 F 
ATOM     22  C   UNL     1      -2.401   9.828  16.033  0.00  0.00    +0.000 A 
ATOM     23  C   UNL     1      -1.832  10.072  17.285  0.00  0.00    +0.000 A 
ENDBRANCH  16  17
ENDBRANCH  15  16
ENDBRANCH   4  15
TORSDOF 4
ENDMDL
MODEL 9
REMARK VINA RESULT:      -7.1      6.219      7.498
REMARK  Name = 
REMARK  4 active torsions:
REMARK  status: ('A' for Active; 'I' for Inactive)
REMARK    1  A    between atoms: C_2  and  C_9
REMARK    2  A    between atoms: C_12  and  C_13
REMARK    3  A    between atoms: C_13  and  O_14
REMARK    4  A    between atoms: O_14  and  C_15
REMARK                            x       y       z     vdW  Elec       q    Type
REMARK                         _______ _______ _______ _____ _____    ______ ____
ROOT
ATOM      1  C   UNL     1       2.236   5.882  20.136  0.00  0.00    +0.000 A 
ATOM      2  C   UNL     1       1.709   4.888  20.940  0.00  0.00    +0.000 A 
ATOM      3  C   UNL     1       2.468   3.725  20.712  0.00  0.00    +0.000 A 
ATOM      4  C   UNL     1       3.433   4.067  19.788  0.00  0.00    +0.000 A 
ATOM      5  O   UNL     1       3.283   5.377  19.403  0.00  0.00    +0.000 OA
ENDROOT
BRANCH   1   7
ATOM      6  O   UNL     1       2.281   7.990  19.159  0.00  0.00    +0.000 OA
ATOM      7  C   UNL     1       1.843   7.279  20.063  0.00  0.00    +0.000 C 
ATOM      8  N   UNL     1       1.031   7.714  21.090  0.00  0.00    +0.000 N 
ATOM      9  C   UNL     1       0.637   9.025  21.149  0.00  0.00    +0.000 A 
ATOM     10  N   UNL     1       0.729   9.944  20.221  0.00  0.00    +0.000 NA
ATOM     11  C   UNL     1       0.298  11.154  20.714  0.00  0.00    +0.000 A 
ATOM     12  C   UNL     1      -0.127  11.136  22.025  0.00  0.00    +0.000 A 
ATOM     13  S   UNL     1      -0.035   9.528  22.636  0.00  0.00    +0.000 S 
ATOM     14  H   UNL     1       0.835   7.105  21.871  0.00  0.00    +0.000 HD
ENDBRANCH   1   7
BRANCH   4  15
ATOM     15  C   UNL     1       4.582   3.302  19.233  0.00  0.00    +0.000 C 
BRANCH  15  16
ATOM     16  O   UNL     1       5.627   4.235  18.967  0.00  0.00    +0.000 OA
BRANCH  16  17
ATOM     17  C   UNL     1       6.012   4.369  17.660  0.00  0.00    +0.000 A 
ATOM     18  C   UNL     1       7.265   4.802  17.211  0.00  0.00    +0.000 A 
ATOM     19  C   UNL     1       7.523   4.900  15.841  0.00  0.00    +0.000 A 
ATOM     20  C   UNL     1       6.533   4.565  14.924  0.00  0.00    +0.000 A 
ATOM     21  F   UNL     1       6.785   4.663  13.613  0.00  0.00    +0.000 F 
ATOM     22  C   UNL     1       5.286   4.132  15.354  0.00  0.00    +0.000 A 
ATOM     23  C   UNL     1       5.028   4.034  16.723  0.00  0.00    +0.000 A 
ENDBRANCH  16  17
ENDBRANCH  15  16
ENDBRANCH   4  15
TORSDOF 4
ENDMDL
