MODEL 1
REMARK VINA RESULT:      -8.2      0.000      0.000
REMARK  Name = 
REMARK  3 active torsions:
REMARK  status: ('A' for Active; 'I' for Inactive)
REMARK    1  A    between atoms: C_1  and  C_2
REMARK    2  A    between atoms: C_8  and  C_9
REMARK    3  A    between atoms: C_11  and  N_12
REMARK                            x       y       z     vdW  Elec       q    Type
REMARK                         _______ _______ _______ _____ _____    ______ ____
ROOT
ATOM      1  C   UNL     1       4.753   4.157  13.568  0.00  0.00    +0.000 C 
ATOM      2  C   UNL     1       5.601   4.284  14.761  0.00  0.00    +0.000 A 
ATOM      3  N   UNL     1       6.948   4.379  14.412  0.00  0.00    +0.000 N 
ATOM      4  N   UNL     1       7.844   4.571  15.351  0.00  0.00    +0.000 NA
ATOM      5  C   UNL     1       7.083   4.675  16.407  0.00  0.00    +0.000 A 
ATOM      6  C   UNL     1       5.432   4.393  16.147  0.00  0.00    +0.000 A 
ATOM      7  C   UNL     1       4.202   4.567  17.413  0.00  0.00    +0.000 C 
ATOM      8  C   UNL     1       5.733   5.082  18.064  0.00  0.00    +0.000 C 
ATOM      9  C   UNL     1       6.862   5.466  18.562  0.00  0.00    +0.000 C 
ATOM     10  O   UNL     1       7.745   5.206  17.521  0.00  0.00    +0.000 OA
ATOM     11  C   UNL     1       2.869   5.838  17.721  0.00  0.00    +0.000 A 
ATOM     12  C   UNL     1       3.224   7.233  17.775  0.00  0.00    +0.000 A 
ATOM     13  C   UNL     1       2.714   8.181  18.755  0.00  0.00    +0.000 A 
ATOM     14  C   UNL     1       1.892   7.810  19.829  0.00  0.00    +0.000 A 
ATOM     15  C   UNL     1       1.485   6.452  19.918  0.00  0.00    +0.000 A 
ATOM     16  C   UNL     1       1.850   5.407  18.849  0.00  0.00    +0.000 A 
ATOM     17  C   UNL     1       2.091   3.774  19.302  0.00  0.00    +0.000 A 
ATOM     18  C   UNL     1       1.961   3.415  20.859  0.00  0.00    +0.000 A 
ATOM     19  C   UNL     1       2.827   2.509  21.543  0.00  0.00    +0.000 A 
ATOM     20  C   UNL     1       3.855   1.931  20.782  0.00  0.00    +0.000 A 
ATOM     21  C   UNL     1       4.132   2.266  19.341  0.00  0.00    +0.000 A 
ATOM     22  C   UNL     1       3.345   3.181  18.469  0.00  0.00    +0.000 A 
ATOM     23  H   UNL     1       7.329   4.397  13.476  0.00  0.00    +0.000 HD
ENDROOT
BRANCH   9  24
ATOM     24  N   UNL     1       7.321   5.667  19.831  0.00  0.00    +0.000 N 
ATOM     25  H   UNL     1       8.317   5.589  20.029  0.00  0.00    +0.000 HD
ATOM     26  H   UNL     1       6.688   5.443  20.588  0.00  0.00    +0.000 HD
ENDBRANCH   9  24
BRANCH   8  27
ATOM     27  C   UNL     1       4.625   5.036  19.103  0.00  0.00    +0.000 C 
ATOM     28  N   UNL     1       3.706   4.998  19.966  0.00  0.00    +0.000 NA
ENDBRANCH   8  27
TORSDOF 2
ENDMDL
MODEL 2
REMARK VINA RESULT:      -6.2     10.189     12.761
REMARK  Name = 
REMARK  3 active torsions:
REMARK  status: ('A' for Active; 'I' for Inactive)
REMARK    1  A    between atoms: C_1  and  C_2
REMARK    2  A    between atoms: C_8  and  C_9
REMARK    3  A    between atoms: C_11  and  N_12
REMARK                            x       y       z     vdW  Elec       q    Type
REMARK                         _______ _______ _______ _____ _____    ______ ____
ROOT
ATOM      1  C   UNL     1      11.569  16.695  24.364  0.00  0.00    +0.000 C 
ATOM      2  C   UNL     1      10.272  16.315  23.789  0.00  0.00    +0.000 A 
ATOM      3  N   UNL     1       9.218  16.810  24.557  0.00  0.00    +0.000 N 
ATOM      4  N   UNL     1       7.984  16.627  24.150  0.00  0.00    +0.000 NA
ATOM      5  C   UNL     1       8.182  16.023  23.010  0.00  0.00    +0.000 A 
ATOM      6  C   UNL     1       9.796  15.643  22.657  0.00  0.00    +0.000 A 
ATOM      7  C   UNL     1      10.312  14.905  21.128  0.00  0.00    +0.000 C 
ATOM      8  C   UNL     1       8.608  15.252  21.020  0.00  0.00    +0.000 C 
ATOM      9  C   UNL     1       7.344  15.502  20.925  0.00  0.00    +0.000 C 
ATOM     10  O   UNL     1       7.046  15.989  22.192  0.00  0.00    +0.000 OA
ATOM     11  C   UNL     1      11.236  15.569  19.647  0.00  0.00    +0.000 A 
ATOM     12  C   UNL     1      10.759  16.760  18.994  0.00  0.00    +0.000 A 
ATOM     13  C   UNL     1      10.684  16.941  17.551  0.00  0.00    +0.000 A 
ATOM     14  C   UNL     1      10.975  15.923  16.632  0.00  0.00    +0.000 A 
ATOM     15  C   UNL     1      11.433  14.678  17.140  0.00  0.00    +0.000 A 
ATOM     16  C   UNL     1      11.685  14.438  18.640  0.00  0.00    +0.000 A 
ATOM     17  C   UNL     1      11.431  12.883  19.308  0.00  0.00    +0.000 A 
ATOM     18  C   UNL     1      10.890  11.738  18.324  0.00  0.00    +0.000 A 
ATOM     19  C   UNL     1       9.904  10.773  18.691  0.00  0.00    +0.000 A 
ATOM     20  C   UNL     1       9.383  10.873  19.991  0.00  0.00    +0.000 A 
ATOM     21  C   UNL     1       9.744  11.961  20.966  0.00  0.00    +0.000 A 
ATOM     22  C   UNL     1      10.742  13.047  20.763  0.00  0.00    +0.000 A 
ATOM     23  H   UNL     1       9.293  17.386  25.384  0.00  0.00    +0.000 HD
ENDROOT
BRANCH   9  24
ATOM     24  N   UNL     1       6.352  15.076  20.092  0.00  0.00    +0.000 N 
ATOM     25  H   UNL     1       5.771  14.282  20.356  0.00  0.00    +0.000 HD
ATOM     26  H   UNL     1       6.489  15.229  19.100  0.00  0.00    +0.000 HD
ENDBRANCH   9  24
BRANCH   8  27
ATOM     27  C   UNL     1       9.138  14.473  19.828  0.00  0.00    +0.000 C 
ATOM     28  N   UNL     1       9.577  13.826  18.838  0.00  0.00    +0.000 NA
ENDBRANCH   8  27
TORSDOF 2
ENDMDL
MODEL 3
REMARK VINA RESULT:      -6.2      9.778     11.950
REMARK  Name = 
REMARK  3 active torsions:
REMARK  status: ('A' for Active; 'I' for Inactive)
REMARK    1  A    between atoms: C_1  and  C_2
REMARK    2  A    between atoms: C_8  and  C_9
REMARK    3  A    between atoms: C_11  and  N_12
REMARK                            x       y       z     vdW  Elec       q    Type
REMARK                         _______ _______ _______ _____ _____    ______ ____
ROOT
ATOM      1  C   UNL     1      12.330  17.737  18.594  0.00  0.00    +0.000 C 
ATOM      2  C   UNL     1      10.870  17.592  18.670  0.00  0.00    +0.000 A 
ATOM      3  N   UNL     1      10.226  18.631  17.996  0.00  0.00    +0.000 N 
ATOM      4  N   UNL     1       8.918  18.622  17.900  0.00  0.00    +0.000 NA
ATOM      5  C   UNL     1       8.630  17.491  18.486  0.00  0.00    +0.000 A 
ATOM      6  C   UNL     1       9.943  16.676  19.182  0.00  0.00    +0.000 A 
ATOM      7  C   UNL     1       9.805  15.082  19.949  0.00  0.00    +0.000 C 
ATOM      8  C   UNL     1       8.262  15.487  19.249  0.00  0.00    +0.000 C 
ATOM      9  C   UNL     1       7.112  15.774  18.737  0.00  0.00    +0.000 C 
ATOM     10  O   UNL     1       7.319  17.058  18.249  0.00  0.00    +0.000 OA
ATOM     11  C   UNL     1      10.358  13.374  19.435  0.00  0.00    +0.000 A 
ATOM     12  C   UNL     1       9.969  12.865  18.146  0.00  0.00    +0.000 A 
ATOM     13  C   UNL     1       9.502  11.509  17.895  0.00  0.00    +0.000 A 
ATOM     14  C   UNL     1       9.280  10.572  18.914  0.00  0.00    +0.000 A 
ATOM     15  C   UNL     1       9.595  10.949  20.247  0.00  0.00    +0.000 A 
ATOM     16  C   UNL     1      10.231  12.307  20.594  0.00  0.00    +0.000 A 
ATOM     17  C   UNL     1       9.867  13.062  22.087  0.00  0.00    +0.000 A 
ATOM     18  C   UNL     1       8.825  12.319  23.052  0.00  0.00    +0.000 A 
ATOM     19  C   UNL     1       7.815  12.992  23.804  0.00  0.00    +0.000 A 
ATOM     20  C   UNL     1       7.745  14.386  23.649  0.00  0.00    +0.000 A 
ATOM     21  C   UNL     1       8.605  15.177  22.701  0.00  0.00    +0.000 A 
ATOM     22  C   UNL     1       9.701  14.653  21.840  0.00  0.00    +0.000 A 
ATOM     23  H   UNL     1      10.668  19.381  17.482  0.00  0.00    +0.000 HD
ENDROOT
BRANCH   9  24
ATOM     24  N   UNL     1       5.847  15.292  18.911  0.00  0.00    +0.000 N 
ATOM     25  H   UNL     1       5.365  14.836  18.139  0.00  0.00    +0.000 HD
ATOM     26  H   UNL     1       5.267  15.765  19.593  0.00  0.00    +0.000 HD
ENDBRANCH   9  24
BRANCH   8  27
ATOM     27  C   UNL     1       8.230  14.211  20.074  0.00  0.00    +0.000 C 
ATOM     28  N   UNL     1       8.204  13.151  20.757  0.00  0.00    +0.000 NA
ENDBRANCH   8  27
TORSDOF 2
ENDMDL
MODEL 4
REMARK VINA RESULT:      -6.1      8.212     10.484
REMARK  Name = 
REMARK  3 active torsions:
REMARK  status: ('A' for Active; 'I' for Inactive)
REMARK    1  A    between atoms: C_1  and  C_2
REMARK    2  A    between atoms: C_8  and  C_9
REMARK    3  A    between atoms: C_11  and  N_12
REMARK                            x       y       z     vdW  Elec       q    Type
REMARK                         _______ _______ _______ _____ _____    ______ ____
ROOT
ATOM      1  C   UNL     1      -2.668  10.006  15.173  0.00  0.00    +0.000 C 
ATOM      2  C   UNL     1      -3.192  10.820  16.278  0.00  0.00    +0.000 A 
ATOM      3  N   UNL     1      -4.567  11.023  16.144  0.00  0.00    +0.000 N 
ATOM      4  N   UNL     1      -5.216  11.669  17.084  0.00  0.00    +0.000 NA
ATOM      5  C   UNL     1      -4.261  11.881  17.949  0.00  0.00    +0.000 A 
ATOM      6  C   UNL     1      -2.711  11.402  17.457  0.00  0.00    +0.000 A 
ATOM      7  C   UNL     1      -1.281  11.509  18.501  0.00  0.00    +0.000 C 
ATOM      8  C   UNL     1      -2.676  11.970  19.437  0.00  0.00    +0.000 C 
ATOM      9  C   UNL     1      -3.701  12.315  20.144  0.00  0.00    +0.000 C 
ATOM     10  O   UNL     1      -4.728  12.275  19.209  0.00  0.00    +0.000 OA
ATOM     11  C   UNL     1      -0.259  10.223  19.390  0.00  0.00    +0.000 A 
ATOM     12  C   UNL     1      -0.913   9.283  20.262  0.00  0.00    +0.000 A 
ATOM     13  C   UNL     1      -0.417   8.881  21.571  0.00  0.00    +0.000 A 
ATOM     14  C   UNL     1       0.714   9.452  22.173  0.00  0.00    +0.000 A 
ATOM     15  C   UNL     1       1.444  10.421  21.434  0.00  0.00    +0.000 A 
ATOM     16  C   UNL     1       1.083  10.802  19.987  0.00  0.00    +0.000 A 
ATOM     17  C   UNL     1       1.365  12.397  19.431  0.00  0.00    +0.000 A 
ATOM     18  C   UNL     1       1.965  13.447  20.483  0.00  0.00    +0.000 A 
ATOM     19  C   UNL     1       1.544  14.808  20.579  0.00  0.00    +0.000 A 
ATOM     20  C   UNL     1       0.526  15.212  19.700  0.00  0.00    +0.000 A 
ATOM     21  C   UNL     1      -0.176  14.291  18.739  0.00  0.00    +0.000 A 
ATOM     22  C   UNL     1       0.122  12.852  18.501  0.00  0.00    +0.000 A 
ATOM     23  H   UNL     1      -5.164  10.649  15.420  0.00  0.00    +0.000 HD
ENDROOT
BRANCH   9  24
ATOM     24  N   UNL     1      -3.860  12.978  21.325  0.00  0.00    +0.000 N 
ATOM     25  H   UNL     1      -3.866  12.461  22.202  0.00  0.00    +0.000 HD
ATOM     26  H   UNL     1      -4.396  13.837  21.299  0.00  0.00    +0.000 HD
ENDBRANCH   9  24
BRANCH   8  27
ATOM     27  C   UNL     1      -1.364  12.171  20.177  0.00  0.00    +0.000 C 
ATOM     28  N   UNL     1      -0.276  12.339  20.793  0.00  0.00    +0.000 NA
ENDBRANCH   8  27
TORSDOF 2
ENDMDL
MODEL 5
REMARK VINA RESULT:      -6.1      9.636     12.389
REMARK  Name = 
REMARK  3 active torsions:
REMARK  status: ('A' for Active; 'I' for Inactive)
REMARK    1  A    between atoms: C_1  and  C_2
REMARK    2  A    between atoms: C_8  and  C_9
REMARK    3  A    between atoms: C_11  and  N_12
REMARK                            x       y       z     vdW  Elec       q    Type
REMARK                         _______ _______ _______ _____ _____    ______ ____
ROOT
ATOM      1  C   UNL     1       4.374  14.558  18.049  0.00  0.00    +0.000 C 
ATOM      2  C   UNL     1       5.245  14.870  19.190  0.00  0.00    +0.000 A 
ATOM      3  N   UNL     1       4.500  15.046  20.357  0.00  0.00    +0.000 N 
ATOM      4  N   UNL     1       5.123  15.260  21.492  0.00  0.00    +0.000 NA
ATOM      5  C   UNL     1       6.371  15.172  21.114  0.00  0.00    +0.000 A 
ATOM      6  C   UNL     1       6.617  14.984  19.447  0.00  0.00    +0.000 A 
ATOM      7  C   UNL     1       8.218  14.753  18.719  0.00  0.00    +0.000 C 
ATOM      8  C   UNL     1       8.402  14.764  20.451  0.00  0.00    +0.000 C 
ATOM      9  C   UNL     1       8.555  14.770  21.733  0.00  0.00    +0.000 C 
ATOM     10  O   UNL     1       7.268  15.039  22.181  0.00  0.00    +0.000 OA
ATOM     11  C   UNL     1       9.061  13.274  17.953  0.00  0.00    +0.000 A 
ATOM     12  C   UNL     1       9.145  12.046  18.699  0.00  0.00    +0.000 A 
ATOM     13  C   UNL     1      10.329  11.202  18.778  0.00  0.00    +0.000 A 
ATOM     14  C   UNL     1      11.563  11.553  18.211  0.00  0.00    +0.000 A 
ATOM     15  C   UNL     1      11.634  12.761  17.466  0.00  0.00    +0.000 A 
ATOM     16  C   UNL     1      10.401  13.644  17.203  0.00  0.00    +0.000 A 
ATOM     17  C   UNL     1      10.582  15.341  17.071  0.00  0.00    +0.000 A 
ATOM     18  C   UNL     1      12.055  15.942  17.275  0.00  0.00    +0.000 A 
ATOM     19  C   UNL     1      12.332  17.146  17.992  0.00  0.00    +0.000 A 
ATOM     20  C   UNL     1      11.229  17.806  18.557  0.00  0.00    +0.000 A 
ATOM     21  C   UNL     1       9.818  17.286  18.512  0.00  0.00    +0.000 A 
ATOM     22  C   UNL     1       9.339  16.058  17.819  0.00  0.00    +0.000 A 
ATOM     23  H   UNL     1       3.499  14.947  20.454  0.00  0.00    +0.000 HD
ENDROOT
BRANCH   9  24
ATOM     24  N   UNL     1       9.628  14.930  22.561  0.00  0.00    +0.000 N 
ATOM     25  H   UNL     1       9.632  14.490  23.480  0.00  0.00    +0.000 HD
ATOM     26  H   UNL     1      10.156  15.789  22.466  0.00  0.00    +0.000 HD
ENDBRANCH   9  24
BRANCH   8  27
ATOM     27  C   UNL     1       9.727  14.729  19.707  0.00  0.00    +0.000 C 
ATOM     28  N   UNL     1      10.826  14.699  19.090  0.00  0.00    +0.000 NA
ENDBRANCH   8  27
TORSDOF 2
ENDMDL
MODEL 6
REMARK VINA RESULT:      -6.1      9.357     12.091
REMARK  Name = 
REMARK  3 active torsions:
REMARK  status: ('A' for Active; 'I' for Inactive)
REMARK    1  A    between atoms: C_1  and  C_2
REMARK    2  A    between atoms: C_8  and  C_9
REMARK    3  A    between atoms: C_11  and  N_12
REMARK                            x       y       z     vdW  Elec       q    Type
REMARK                         _______ _______ _______ _____ _____    ______ ____
ROOT
ATOM      1  C   UNL     1       8.491  13.378  25.629  0.00  0.00    +0.000 C 
ATOM      2  C   UNL     1       7.685  13.503  24.408  0.00  0.00    +0.000 A 
ATOM      3  N   UNL     1       6.327  13.615  24.711  0.00  0.00    +0.000 N 
ATOM      4  N   UNL     1       5.465  13.809  23.741  0.00  0.00    +0.000 NA
ATOM      5  C   UNL     1       6.262  13.894  22.710  0.00  0.00    +0.000 A 
ATOM      6  C   UNL     1       7.900  13.596  23.027  0.00  0.00    +0.000 A 
ATOM      7  C   UNL     1       9.173  13.745  21.800  0.00  0.00    +0.000 C 
ATOM      8  C   UNL     1       7.670  14.270  21.095  0.00  0.00    +0.000 C 
ATOM      9  C   UNL     1       6.563  14.662  20.556  0.00  0.00    +0.000 C 
ATOM     10  O   UNL     1       5.643  14.421  21.570  0.00  0.00    +0.000 OA
ATOM     11  C   UNL     1      10.529  14.999  21.525  0.00  0.00    +0.000 A 
ATOM     12  C   UNL     1      10.192  16.396  21.446  0.00  0.00    +0.000 A 
ATOM     13  C   UNL     1      10.745  17.330  20.475  0.00  0.00    +0.000 A 
ATOM     14  C   UNL     1      11.597  16.939  19.432  0.00  0.00    +0.000 A 
ATOM     15  C   UNL     1      11.992  15.576  19.369  0.00  0.00    +0.000 A 
ATOM     16  C   UNL     1      11.580  14.545  20.436  0.00  0.00    +0.000 A 
ATOM     17  C   UNL     1      11.336  12.910  19.990  0.00  0.00    +0.000 A 
ATOM     18  C   UNL     1      11.513  12.535  18.441  0.00  0.00    +0.000 A 
ATOM     19  C   UNL     1      10.660  11.632  17.738  0.00  0.00    +0.000 A 
ATOM     20  C   UNL     1       9.600  11.073  18.470  0.00  0.00    +0.000 A 
ATOM     21  C   UNL     1       9.281  11.424  19.898  0.00  0.00    +0.000 A 
ATOM     22  C   UNL     1      10.049  12.340  20.787  0.00  0.00    +0.000 A 
ATOM     23  H   UNL     1       5.916  13.647  25.634  0.00  0.00    +0.000 HD
ENDROOT
BRANCH   9  24
ATOM     24  N   UNL     1       6.148  14.855  19.271  0.00  0.00    +0.000 N 
ATOM     25  H   UNL     1       5.889  15.788  18.955  0.00  0.00    +0.000 HD
ATOM     26  H   UNL     1       5.686  14.077  18.817  0.00  0.00    +0.000 HD
ENDBRANCH   9  24
BRANCH   8  27
ATOM     27  C   UNL     1       8.811  14.202  20.093  0.00  0.00    +0.000 C 
ATOM     28  N   UNL     1       9.759  14.145  19.263  0.00  0.00    +0.000 NA
ENDBRANCH   8  27
TORSDOF 2
ENDMDL
MODEL 7
REMARK VINA RESULT:      -6.0      8.254     12.026
REMARK  Name = 
REMARK  3 active torsions:
REMARK  status: ('A' for Active; 'I' for Inactive)
REMARK    1  A    between atoms: C_1  and  C_2
REMARK    2  A    between atoms: C_8  and  C_9
REMARK    3  A    between atoms: C_11  and  N_12
REMARK                            x       y       z     vdW  Elec       q    Type
REMARK                         _______ _______ _______ _____ _____    ______ ____
ROOT
ATOM      1  C   UNL     1      -3.724  13.436  24.870  0.00  0.00    +0.000 C 
ATOM      2  C   UNL     1      -4.102  12.940  23.540  0.00  0.00    +0.000 A 
ATOM      3  N   UNL     1      -5.461  12.626  23.490  0.00  0.00    +0.000 N 
ATOM      4  N   UNL     1      -5.989  12.236  22.354  0.00  0.00    +0.000 NA
ATOM      5  C   UNL     1      -4.963  12.336  21.552  0.00  0.00    +0.000 A 
ATOM      6  C   UNL     1      -3.495  12.747  22.294  0.00  0.00    +0.000 A 
ATOM      7  C   UNL     1      -1.993  13.027  21.392  0.00  0.00    +0.000 C 
ATOM      8  C   UNL     1      -3.278  12.768  20.245  0.00  0.00    +0.000 C 
ATOM      9  C   UNL     1      -4.220  12.578  19.382  0.00  0.00    +0.000 C 
ATOM     10  O   UNL     1      -5.309  12.289  20.196  0.00  0.00    +0.000 OA
ATOM     11  C   UNL     1      -1.023  14.571  20.992  0.00  0.00    +0.000 A 
ATOM     12  C   UNL     1      -1.691  15.680  20.361  0.00  0.00    +0.000 A 
ATOM     13  C   UNL     1      -1.141  16.466  19.266  0.00  0.00    +0.000 A 
ATOM     14  C   UNL     1       0.071  16.158  18.631  0.00  0.00    +0.000 A 
ATOM     15  C   UNL     1       0.827  15.065  19.133  0.00  0.00    +0.000 A 
ATOM     16  C   UNL     1       0.401  14.267  20.379  0.00  0.00    +0.000 A 
ATOM     17  C   UNL     1       0.774  12.600  20.491  0.00  0.00    +0.000 A 
ATOM     18  C   UNL     1       1.530  11.930  19.245  0.00  0.00    +0.000 A 
ATOM     19  C   UNL     1       1.229  10.630  18.737  0.00  0.00    +0.000 A 
ATOM     20  C   UNL     1       0.191   9.933  19.375  0.00  0.00    +0.000 A 
ATOM     21  C   UNL     1      -0.649  10.498  20.488  0.00  0.00    +0.000 A 
ATOM     22  C   UNL     1      -0.488  11.826  21.143  0.00  0.00    +0.000 A 
ATOM     23  H   UNL     1      -6.135  12.742  24.234  0.00  0.00    +0.000 HD
ENDROOT
BRANCH   9  24
ATOM     24  N   UNL     1      -4.243  12.269  18.054  0.00  0.00    +0.000 N 
ATOM     25  H   UNL     1      -3.846  12.916  17.374  0.00  0.00    +0.000 HD
ATOM     26  H   UNL     1      -5.003  11.683  17.733  0.00  0.00    +0.000 HD
ENDBRANCH   9  24
BRANCH   8  27
ATOM     27  C   UNL     1      -1.907  12.865  19.598  0.00  0.00    +0.000 C 
ATOM     28  N   UNL     1      -0.769  12.945  19.060  0.00  0.00    +0.000 NA
ENDBRANCH   8  27
TORSDOF 2
ENDMDL
MODEL 8
REMARK VINA RESULT:      -6.0      9.754     12.453
REMARK  Name = 
REMARK  3 active torsions:
REMARK  status: ('A' for Active; 'I' for Inactive)
REMARK    1  A    between atoms: C_1  and  C_2
REMARK    2  A    between atoms: C_8  and  C_9
REMARK    3  A    between atoms: C_11  and  N_12
REMARK                            x       y       z     vdW  Elec       q    Type
REMARK                         _______ _______ _______ _____ _____    ______ ____
ROOT
ATOM      1  C   UNL     1       9.338  15.611  24.679  0.00  0.00    +0.000 C 
ATOM      2  C   UNL     1       8.425  15.365  23.554  0.00  0.00    +0.000 A 
ATOM      3  N   UNL     1       7.113  15.700  23.891  0.00  0.00    +0.000 N 
ATOM      4  N   UNL     1       6.172  15.613  22.980  0.00  0.00    +0.000 NA
ATOM      5  C   UNL     1       6.868  15.254  21.935  0.00  0.00    +0.000 A 
ATOM      6  C   UNL     1       8.509  14.942  22.222  0.00  0.00    +0.000 A 
ATOM      7  C   UNL     1       9.662  14.529  20.939  0.00  0.00    +0.000 C 
ATOM      8  C   UNL     1       8.131  14.902  20.198  0.00  0.00    +0.000 C 
ATOM      9  C   UNL     1       7.001  15.175  19.634  0.00  0.00    +0.000 C 
ATOM     10  O   UNL     1       6.172  15.395  20.727  0.00  0.00    +0.000 OA
ATOM     11  C   UNL     1      11.057  15.475  20.134  0.00  0.00    +0.000 A 
ATOM     12  C   UNL     1      10.796  16.778  19.579  0.00  0.00    +0.000 A 
ATOM     13  C   UNL     1      11.305  17.251  18.299  0.00  0.00    +0.000 A 
ATOM     14  C   UNL     1      12.027  16.440  17.411  0.00  0.00    +0.000 A 
ATOM     15  C   UNL     1      12.333  15.114  17.818  0.00  0.00    +0.000 A 
ATOM     16  C   UNL     1      11.967  14.571  19.212  0.00  0.00    +0.000 A 
ATOM     17  C   UNL     1      11.585  12.914  19.406  0.00  0.00    +0.000 A 
ATOM     18  C   UNL     1      11.587  11.999  18.090  0.00  0.00    +0.000 A 
ATOM     19  C   UNL     1      10.617  10.985  17.823  0.00  0.00    +0.000 A 
ATOM     20  C   UNL     1       9.603  10.821  18.780  0.00  0.00    +0.000 A 
ATOM     21  C   UNL     1       9.446  11.684  20.003  0.00  0.00    +0.000 A 
ATOM     22  C   UNL     1      10.350  12.783  20.444  0.00  0.00    +0.000 A 
ATOM     23  H   UNL     1       6.797  16.095  24.766  0.00  0.00    +0.000 HD
ENDROOT
BRANCH   9  24
ATOM     24  N   UNL     1       6.474  14.936  18.398  0.00  0.00    +0.000 N 
ATOM     25  H   UNL     1       5.978  14.065  18.217  0.00  0.00    +0.000 HD
ATOM     26  H   UNL     1       6.942  15.366  17.610  0.00  0.00    +0.000 HD
ENDBRANCH   9  24
BRANCH   8  27
ATOM     27  C   UNL     1       9.162  14.380  19.212  0.00  0.00    +0.000 C 
ATOM     28  N   UNL     1      10.018  13.947  18.393  0.00  0.00    +0.000 NA
ENDBRANCH   8  27
TORSDOF 2
ENDMDL
MODEL 9
REMARK VINA RESULT:      -5.8      9.625     11.652
REMARK  Name = 
REMARK  3 active torsions:
REMARK  status: ('A' for Active; 'I' for Inactive)
REMARK    1  A    between atoms: C_1  and  C_2
REMARK    2  A    between atoms: C_8  and  C_9
REMARK    3  A    between atoms: C_11  and  N_12
REMARK                            x       y       z     vdW  Elec       q    Type
REMARK                         _______ _______ _______ _____ _____    ______ ____
ROOT
ATOM      1  C   UNL     1      12.332  13.508  16.382  0.00  0.00    +0.000 C 
ATOM      2  C   UNL     1      11.477  12.961  17.444  0.00  0.00    +0.000 A 
ATOM      3  N   UNL     1      11.862  11.662  17.779  0.00  0.00    +0.000 N 
ATOM      4  N   UNL     1      11.252  11.044  18.764  0.00  0.00    +0.000 NA
ATOM      5  C   UNL     1      10.436  11.976  19.178  0.00  0.00    +0.000 A 
ATOM      6  C   UNL     1      10.420  13.396  18.253  0.00  0.00    +0.000 A 
ATOM      7  C   UNL     1       9.460  14.826  18.679  0.00  0.00    +0.000 C 
ATOM      8  C   UNL     1       9.295  13.656  19.959  0.00  0.00    +0.000 C 
ATOM      9  C   UNL     1       9.163  12.799  20.916  0.00  0.00    +0.000 C 
ATOM     10  O   UNL     1       9.878  11.709  20.435  0.00  0.00    +0.000 OA
ATOM     11  C   UNL     1       9.918  16.508  19.349  0.00  0.00    +0.000 A 
ATOM     12  C   UNL     1      10.713  16.598  20.545  0.00  0.00    +0.000 A 
ATOM     13  C   UNL     1      10.468  17.531  21.636  0.00  0.00    +0.000 A 
ATOM     14  C   UNL     1       9.354  18.381  21.685  0.00  0.00    +0.000 A 
ATOM     15  C   UNL     1       8.464  18.377  20.578  0.00  0.00    +0.000 A 
ATOM     16  C   UNL     1       8.718  17.535  19.315  0.00  0.00    +0.000 A 
ATOM     17  C   UNL     1       7.395  16.906  18.431  0.00  0.00    +0.000 A 
ATOM     18  C   UNL     1       5.924  17.196  19.000  0.00  0.00    +0.000 A 
ATOM     19  C   UNL     1       4.868  16.236  19.006  0.00  0.00    +0.000 A 
ATOM     20  C   UNL     1       5.175  14.964  18.495  0.00  0.00    +0.000 A 
ATOM     21  C   UNL     1       6.543  14.550  18.023  0.00  0.00    +0.000 A 
ATOM     22  C   UNL     1       7.759  15.406  17.945  0.00  0.00    +0.000 A 
ATOM     23  H   UNL     1      12.640  11.145  17.393  0.00  0.00    +0.000 HD
ENDROOT
BRANCH   9  24
ATOM     24  N   UNL     1       8.277  12.651  21.943  0.00  0.00    +0.000 N 
ATOM     25  H   UNL     1       8.560  12.876  22.895  0.00  0.00    +0.000 HD
ATOM     26  H   UNL     1       7.567  11.937  21.836  0.00  0.00    +0.000 HD
ENDBRANCH   9  24
BRANCH   8  27
ATOM     27  C   UNL     1       8.393  14.866  20.133  0.00  0.00    +0.000 C 
ATOM     28  N   UNL     1       7.643  15.870  20.278  0.00  0.00    +0.000 NA
ENDBRANCH   8  27
TORSDOF 2
ENDMDL
