MODEL 1
REMARK VINA RESULT:      -8.8      0.000      0.000
REMARK  Name = 
REMARK  9 active torsions:
REMARK  status: ('A' for Active; 'I' for Inactive)
REMARK    1  A    between atoms: C_1  and  C_2
REMARK    2  A    between atoms: C_2  and  C_3
REMARK    3  A    between atoms: C_2  and  C_4
REMARK    4  A    between atoms: C_2  and  C_13
REMARK    5  A    between atoms: C_4  and  N_5
REMARK    6  A    between atoms: C_6  and  C_8
REMARK    7  A    between atoms: C_8  and  C_9
REMARK    8  A    between atoms: C_13  and  N_14
REMARK    9  A    between atoms: N_14  and  C_27
REMARK                            x       y       z     vdW  Elec       q    Type
REMARK                         _______ _______ _______ _____ _____    ______ ____
ROOT
ATOM      1  N   UNL     1       2.669   6.381  18.609  0.00  0.00    +0.000 N 
ATOM      2  C   UNL     1       2.044   7.631  18.695  0.00  0.00    +0.000 C 
ATOM      3  N   UNL     1       1.908   8.419  17.658  0.00  0.00    +0.000 NA
ATOM      4  S   UNL     1       1.167   9.826  18.056  0.00  0.00    +0.000 S 
ATOM      5  O   UNL     1       2.106  10.915  17.895  0.00  0.00    +0.000 OA
ATOM      6  O   UNL     1      -0.169   9.859  17.509  0.00  0.00    +0.000 OA
ATOM      7  C   UNL     1       1.030   9.484  19.747  0.00  0.00    +0.000 A 
ATOM      8  C   UNL     1       0.501  10.297  20.732  0.00  0.00    +0.000 A 
ATOM      9  C   UNL     1       0.501   9.785  22.019  0.00  0.00    +0.000 A 
ATOM     10  F   UNL     1      -0.006  10.517  23.020  0.00  0.00    +0.000 F 
ATOM     11  C   UNL     1       1.025   8.513  22.300  0.00  0.00    +0.000 A 
ATOM     12  C   UNL     1       1.572   7.724  21.277  0.00  0.00    +0.000 A 
ATOM     13  C   UNL     1       1.553   8.221  19.982  0.00  0.00    +0.000 A 
ENDROOT
BRANCH   1  14
ATOM     14  C   UNL     1       2.052   5.177  19.084  0.00  0.00    +0.000 A 
ATOM     15  C   UNL     1       1.470   4.241  18.205  0.00  0.00    +0.000 A 
ATOM     16  C   UNL     1       0.889   3.048  18.650  0.00  0.00    +0.000 A 
ATOM     17  C   UNL     1       0.887   2.741  20.001  0.00  0.00    +0.000 A 
ATOM     18  C   UNL     1       1.445   3.640  20.903  0.00  0.00    +0.000 A 
ATOM     19  C   UNL     1       2.002   4.846  20.451  0.00  0.00    +0.000 A 
ENDBRANCH   1  14
BRANCH   1  20
ATOM     20  C   UNL     1       3.660   6.166  17.507  0.00  0.00    +0.000 C 
BRANCH  20  22
ATOM     21  C   UNL     1       5.078   4.086  17.706  0.00  0.00    +0.000 C 
ATOM     22  C   UNL     1       5.040   5.609  17.982  0.00  0.00    +0.000 C 
ATOM     23  C   UNL     1       5.230   5.783  19.503  0.00  0.00    +0.000 C 
BRANCH  22  24
ATOM     24  C   UNL     1       6.237   6.265  17.253  0.00  0.00    +0.000 C 
BRANCH  24  25
ATOM     25  N   UNL     1       6.241   5.994  15.824  0.00  0.00    +0.000 N 
ATOM     26  C   UNL     1       7.110   5.089  15.254  0.00  0.00    +0.000 C 
ATOM     27  O   UNL     1       7.909   4.414  15.896  0.00  0.00    +0.000 OA
ATOM     28  H   UNL     1       5.857   6.712  15.218  0.00  0.00    +0.000 HD
BRANCH  26  29
ATOM     29  C   UNL     1       6.968   4.955  13.769  0.00  0.00    +0.000 C 
BRANCH  29  30
ATOM     30  C   UNL     1       6.081   3.784  13.448  0.00  0.00    +0.000 C 
ATOM     31  F   UNL     1       4.851   4.119  13.004  0.00  0.00    +0.000 F 
ATOM     32  F   UNL     1       6.650   3.023  12.479  0.00  0.00    +0.000 F 
ATOM     33  F   UNL     1       5.921   2.984  14.528  0.00  0.00    +0.000 F 
ENDBRANCH  29  30
ENDBRANCH  26  29
ENDBRANCH  24  25
ENDBRANCH  22  24
ENDBRANCH  20  22
ENDBRANCH   1  20
TORSDOF 7
ENDMDL
MODEL 2
REMARK VINA RESULT:      -8.7      0.202      1.106
REMARK  Name = 
REMARK  9 active torsions:
REMARK  status: ('A' for Active; 'I' for Inactive)
REMARK    1  A    between atoms: C_1  and  C_2
REMARK    2  A    between atoms: C_2  and  C_3
REMARK    3  A    between atoms: C_2  and  C_4
REMARK    4  A    between atoms: C_2  and  C_13
REMARK    5  A    between atoms: C_4  and  N_5
REMARK    6  A    between atoms: C_6  and  C_8
REMARK    7  A    between atoms: C_8  and  C_9
REMARK    8  A    between atoms: C_13  and  N_14
REMARK    9  A    between atoms: N_14  and  C_27
REMARK                            x       y       z     vdW  Elec       q    Type
REMARK                         _______ _______ _______ _____ _____    ______ ____
ROOT
ATOM      1  N   UNL     1       2.652   6.596  18.635  0.00  0.00    +0.000 N 
ATOM      2  C   UNL     1       1.983   7.820  18.747  0.00  0.00    +0.000 C 
ATOM      3  N   UNL     1       1.815   8.622  17.725  0.00  0.00    +0.000 NA
ATOM      4  S   UNL     1       1.026   9.994  18.153  0.00  0.00    +0.000 S 
ATOM      5  O   UNL     1       1.924  11.119  18.011  0.00  0.00    +0.000 OA
ATOM      6  O   UNL     1      -0.312   9.989  17.611  0.00  0.00    +0.000 OA
ATOM      7  C   UNL     1       0.907   9.615  19.838  0.00  0.00    +0.000 A 
ATOM      8  C   UNL     1       0.353  10.390  20.839  0.00  0.00    +0.000 A 
ATOM      9  C   UNL     1       0.375   9.853  22.116  0.00  0.00    +0.000 A 
ATOM     10  F   UNL     1      -0.154  10.547  23.133  0.00  0.00    +0.000 F 
ATOM     11  C   UNL     1       0.946   8.595  22.371  0.00  0.00    +0.000 A 
ATOM     12  C   UNL     1       1.517   7.846  21.331  0.00  0.00    +0.000 A 
ATOM     13  C   UNL     1       1.476   8.367  20.047  0.00  0.00    +0.000 A 
ENDROOT
BRANCH   1  14
ATOM     14  C   UNL     1       2.081   5.361  19.088  0.00  0.00    +0.000 A 
ATOM     15  C   UNL     1       2.019   5.027  20.457  0.00  0.00    +0.000 A 
ATOM     16  C   UNL     1       1.440   3.839  20.918  0.00  0.00    +0.000 A 
ATOM     17  C   UNL     1       0.883   2.945  20.017  0.00  0.00    +0.000 A 
ATOM     18  C   UNL     1       0.929   3.233  18.658  0.00  0.00    +0.000 A 
ATOM     19  C   UNL     1       1.535   4.414  18.203  0.00  0.00    +0.000 A 
ENDBRANCH   1  14
BRANCH   1  20
ATOM     20  C   UNL     1       3.646   6.438  17.526  0.00  0.00    +0.000 C 
BRANCH  20  22
ATOM     21  C   UNL     1       4.877   4.233  17.551  0.00  0.00    +0.000 C 
ATOM     22  C   UNL     1       4.972   5.727  17.947  0.00  0.00    +0.000 C 
ATOM     23  C   UNL     1       5.175   5.761  19.476  0.00  0.00    +0.000 C 
BRANCH  22  24
ATOM     24  C   UNL     1       6.223   6.332  17.265  0.00  0.00    +0.000 C 
BRANCH  24  25
ATOM     25  N   UNL     1       6.309   5.996  15.853  0.00  0.00    +0.000 N 
ATOM     26  C   UNL     1       7.198   5.056  15.378  0.00  0.00    +0.000 C 
ATOM     27  O   UNL     1       7.947   4.403  16.096  0.00  0.00    +0.000 OA
ATOM     28  H   UNL     1       5.972   6.691  15.193  0.00  0.00    +0.000 HD
BRANCH  26  29
ATOM     29  C   UNL     1       7.145   4.857  13.894  0.00  0.00    +0.000 C 
BRANCH  29  30
ATOM     30  C   UNL     1       6.143   3.786  13.562  0.00  0.00    +0.000 C 
ATOM     31  F   UNL     1       5.953   2.875  14.540  0.00  0.00    +0.000 F 
ATOM     32  F   UNL     1       4.932   4.345  13.311  0.00  0.00    +0.000 F 
ATOM     33  F   UNL     1       6.502   3.113  12.444  0.00  0.00    +0.000 F 
ENDBRANCH  29  30
ENDBRANCH  26  29
ENDBRANCH  24  25
ENDBRANCH  22  24
ENDBRANCH  20  22
ENDBRANCH   1  20
TORSDOF 7
ENDMDL
MODEL 3
REMARK VINA RESULT:      -8.3      0.755      1.159
REMARK  Name = 
REMARK  9 active torsions:
REMARK  status: ('A' for Active; 'I' for Inactive)
REMARK    1  A    between atoms: C_1  and  C_2
REMARK    2  A    between atoms: C_2  and  C_3
REMARK    3  A    between atoms: C_2  and  C_4
REMARK    4  A    between atoms: C_2  and  C_13
REMARK    5  A    between atoms: C_4  and  N_5
REMARK    6  A    between atoms: C_6  and  C_8
REMARK    7  A    between atoms: C_8  and  C_9
REMARK    8  A    between atoms: C_13  and  N_14
REMARK    9  A    between atoms: N_14  and  C_27
REMARK                            x       y       z     vdW  Elec       q    Type
REMARK                         _______ _______ _______ _____ _____    ______ ____
ROOT
ATOM      1  N   UNL     1       2.846   6.512  18.449  0.00  0.00    +0.000 N 
ATOM      2  C   UNL     1       2.219   7.757  18.574  0.00  0.00    +0.000 C 
ATOM      3  N   UNL     1       2.115   8.593  17.571  0.00  0.00    +0.000 NA
ATOM      4  S   UNL     1       1.362   9.980  18.012  0.00  0.00    +0.000 S 
ATOM      5  O   UNL     1       2.304  11.074  17.933  0.00  0.00    +0.000 OA
ATOM      6  O   UNL     1       0.043  10.040  17.426  0.00  0.00    +0.000 OA
ATOM      7  C   UNL     1       1.171   9.559  19.681  0.00  0.00    +0.000 A 
ATOM      8  C   UNL     1       0.612  10.325  20.685  0.00  0.00    +0.000 A 
ATOM      9  C   UNL     1       0.571   9.752  21.946  0.00  0.00    +0.000 A 
ATOM     10  F   UNL     1       0.033  10.437  22.965  0.00  0.00    +0.000 F 
ATOM     11  C   UNL     1       1.087   8.468  22.183  0.00  0.00    +0.000 A 
ATOM     12  C   UNL     1       1.666   7.728  21.141  0.00  0.00    +0.000 A 
ATOM     13  C   UNL     1       1.688   8.285  19.872  0.00  0.00    +0.000 A 
ENDROOT
BRANCH   1  14
ATOM     14  C   UNL     1       2.215   5.287  18.847  0.00  0.00    +0.000 A 
ATOM     15  C   UNL     1       1.820   4.312  17.907  0.00  0.00    +0.000 A 
ATOM     16  C   UNL     1       1.229   3.100  18.281  0.00  0.00    +0.000 A 
ATOM     17  C   UNL     1       1.028   2.813  19.622  0.00  0.00    +0.000 A 
ATOM     18  C   UNL     1       1.397   3.749  20.580  0.00  0.00    +0.000 A 
ATOM     19  C   UNL     1       1.965   4.973  20.195  0.00  0.00    +0.000 A 
ENDBRANCH   1  14
BRANCH   1  20
ATOM     20  C   UNL     1       3.871   6.348  17.369  0.00  0.00    +0.000 C 
BRANCH  20  22
ATOM     21  C   UNL     1       5.150   5.521  19.384  0.00  0.00    +0.000 C 
ATOM     22  C   UNL     1       5.261   5.841  17.873  0.00  0.00    +0.000 C 
ATOM     23  C   UNL     1       6.347   6.927  17.734  0.00  0.00    +0.000 C 
BRANCH  22  24
ATOM     24  C   UNL     1       5.737   4.564  17.139  0.00  0.00    +0.000 C 
BRANCH  24  25
ATOM     25  N   UNL     1       5.283   4.507  15.759  0.00  0.00    +0.000 N 
ATOM     26  C   UNL     1       6.102   4.849  14.705  0.00  0.00    +0.000 C 
ATOM     27  O   UNL     1       7.276   5.182  14.835  0.00  0.00    +0.000 OA
ATOM     28  H   UNL     1       4.281   4.555  15.601  0.00  0.00    +0.000 HD
BRANCH  26  29
ATOM     29  C   UNL     1       5.451   4.737  13.361  0.00  0.00    +0.000 C 
BRANCH  29  30
ATOM     30  C   UNL     1       6.084   3.615  12.584  0.00  0.00    +0.000 C 
ATOM     31  F   UNL     1       6.498   2.576  13.338  0.00  0.00    +0.000 F 
ATOM     32  F   UNL     1       5.199   3.116  11.685  0.00  0.00    +0.000 F 
ATOM     33  F   UNL     1       7.151   4.055  11.876  0.00  0.00    +0.000 F 
ENDBRANCH  29  30
ENDBRANCH  26  29
ENDBRANCH  24  25
ENDBRANCH  22  24
ENDBRANCH  20  22
ENDBRANCH   1  20
TORSDOF 7
ENDMDL
MODEL 4
REMARK VINA RESULT:      -8.2      0.590      1.206
REMARK  Name = 
REMARK  9 active torsions:
REMARK  status: ('A' for Active; 'I' for Inactive)
REMARK    1  A    between atoms: C_1  and  C_2
REMARK    2  A    between atoms: C_2  and  C_3
REMARK    3  A    between atoms: C_2  and  C_4
REMARK    4  A    between atoms: C_2  and  C_13
REMARK    5  A    between atoms: C_4  and  N_5
REMARK    6  A    between atoms: C_6  and  C_8
REMARK    7  A    between atoms: C_8  and  C_9
REMARK    8  A    between atoms: C_13  and  N_14
REMARK    9  A    between atoms: N_14  and  C_27
REMARK                            x       y       z     vdW  Elec       q    Type
REMARK                         _______ _______ _______ _____ _____    ______ ____
ROOT
ATOM      1  N   UNL     1       2.833   6.701  18.459  0.00  0.00    +0.000 N 
ATOM      2  C   UNL     1       2.170   7.924  18.620  0.00  0.00    +0.000 C 
ATOM      3  N   UNL     1       2.045   8.787  17.643  0.00  0.00    +0.000 NA
ATOM      4  S   UNL     1       1.252  10.138  18.123  0.00  0.00    +0.000 S 
ATOM      5  O   UNL     1       2.163  11.261  18.080  0.00  0.00    +0.000 OA
ATOM      6  O   UNL     1      -0.066  10.178  17.534  0.00  0.00    +0.000 OA
ATOM      7  C   UNL     1       1.068   9.661  19.777  0.00  0.00    +0.000 A 
ATOM      8  C   UNL     1       0.484  10.380  20.802  0.00  0.00    +0.000 A 
ATOM      9  C   UNL     1       0.457   9.768  22.045  0.00  0.00    +0.000 A 
ATOM     10  F   UNL     1      -0.104  10.405  23.082  0.00  0.00    +0.000 F 
ATOM     11  C   UNL     1       1.008   8.492  22.245  0.00  0.00    +0.000 A 
ATOM     12  C   UNL     1       1.611   7.801  21.183  0.00  0.00    +0.000 A 
ATOM     13  C   UNL     1       1.620   8.397  19.931  0.00  0.00    +0.000 A 
ENDROOT
BRANCH   1  14
ATOM     14  C   UNL     1       2.236   5.447  18.817  0.00  0.00    +0.000 A 
ATOM     15  C   UNL     1       1.988   5.097  20.160  0.00  0.00    +0.000 A 
ATOM     16  C   UNL     1       1.381   3.890  20.525  0.00  0.00    +0.000 A 
ATOM     17  C   UNL     1       0.984   2.992  19.547  0.00  0.00    +0.000 A 
ATOM     18  C   UNL     1       1.216   3.295  18.211  0.00  0.00    +0.000 A 
ATOM     19  C   UNL     1       1.849   4.496  17.855  0.00  0.00    +0.000 A 
ENDBRANCH   1  14
BRANCH   1  20
ATOM     20  C   UNL     1       3.865   6.600  17.378  0.00  0.00    +0.000 C 
BRANCH  20  22
ATOM     21  C   UNL     1       5.130   5.667  19.356  0.00  0.00    +0.000 C 
ATOM     22  C   UNL     1       5.219   5.970  17.840  0.00  0.00    +0.000 C 
ATOM     23  C   UNL     1       6.394   6.954  17.659  0.00  0.00    +0.000 C 
BRANCH  22  24
ATOM     24  C   UNL     1       5.554   4.653  17.100  0.00  0.00    +0.000 C 
BRANCH  24  25
ATOM     25  N   UNL     1       5.481   4.788  15.654  0.00  0.00    +0.000 N 
ATOM     26  C   UNL     1       6.612   4.861  14.869  0.00  0.00    +0.000 C 
ATOM     27  O   UNL     1       7.754   4.775  15.309  0.00  0.00    +0.000 OA
ATOM     28  H   UNL     1       4.625   5.175  15.269  0.00  0.00    +0.000 HD
BRANCH  26  29
ATOM     29  C   UNL     1       6.334   5.009  13.405  0.00  0.00    +0.000 C 
BRANCH  29  30
ATOM     30  C   UNL     1       6.123   3.653  12.789  0.00  0.00    +0.000 C 
ATOM     31  F   UNL     1       4.921   3.488  12.198  0.00  0.00    +0.000 F 
ATOM     32  F   UNL     1       7.060   3.425  11.835  0.00  0.00    +0.000 F 
ATOM     33  F   UNL     1       6.260   2.673  13.713  0.00  0.00    +0.000 F 
ENDBRANCH  29  30
ENDBRANCH  26  29
ENDBRANCH  24  25
ENDBRANCH  22  24
ENDBRANCH  20  22
ENDBRANCH   1  20
TORSDOF 7
ENDMDL
MODEL 5
REMARK VINA RESULT:      -8.0      0.947      1.369
REMARK  Name = 
REMARK  9 active torsions:
REMARK  status: ('A' for Active; 'I' for Inactive)
REMARK    1  A    between atoms: C_1  and  C_2
REMARK    2  A    between atoms: C_2  and  C_3
REMARK    3  A    between atoms: C_2  and  C_4
REMARK    4  A    between atoms: C_2  and  C_13
REMARK    5  A    between atoms: C_4  and  N_5
REMARK    6  A    between atoms: C_6  and  C_8
REMARK    7  A    between atoms: C_8  and  C_9
REMARK    8  A    between atoms: C_13  and  N_14
REMARK    9  A    between atoms: N_14  and  C_27
REMARK                            x       y       z     vdW  Elec       q    Type
REMARK                         _______ _______ _______ _____ _____    ______ ____
ROOT
ATOM      1  N   UNL     1       2.774   6.126  18.714  0.00  0.00    +0.000 N 
ATOM      2  C   UNL     1       2.135   7.372  18.696  0.00  0.00    +0.000 C 
ATOM      3  N   UNL     1       1.943   8.044  17.588  0.00  0.00    +0.000 NA
ATOM      4  S   UNL     1       1.199   9.477  17.868  0.00  0.00    +0.000 S 
ATOM      5  O   UNL     1       2.113  10.553  17.553  0.00  0.00    +0.000 OA
ATOM      6  O   UNL     1      -0.160   9.438  17.380  0.00  0.00    +0.000 OA
ATOM      7  C   UNL     1       1.138   9.315  19.590  0.00  0.00    +0.000 A 
ATOM      8  C   UNL     1       0.639  10.222  20.506  0.00  0.00    +0.000 A 
ATOM      9  C   UNL     1       0.701   9.849  21.838  0.00  0.00    +0.000 A 
ATOM     10  F   UNL     1       0.226  10.677  22.778  0.00  0.00    +0.000 F 
ATOM     11  C   UNL     1       1.256   8.619  22.229  0.00  0.00    +0.000 A 
ATOM     12  C   UNL     1       1.771   7.732  21.271  0.00  0.00    +0.000 A 
ATOM     13  C   UNL     1       1.690   8.089  19.934  0.00  0.00    +0.000 A 
ENDROOT
BRANCH   1  14
ATOM     14  C   UNL     1       2.196   4.973  19.340  0.00  0.00    +0.000 A 
ATOM     15  C   UNL     1       2.415   4.675  20.701  0.00  0.00    +0.000 A 
ATOM     16  C   UNL     1       1.836   3.569  21.334  0.00  0.00    +0.000 A 
ATOM     17  C   UNL     1       0.998   2.726  20.623  0.00  0.00    +0.000 A 
ATOM     18  C   UNL     1       0.760   2.979  19.278  0.00  0.00    +0.000 A 
ATOM     19  C   UNL     1       1.366   4.075  18.644  0.00  0.00    +0.000 A 
ENDBRANCH   1  14
BRANCH   1  20
ATOM     20  C   UNL     1       3.720   5.806  17.599  0.00  0.00    +0.000 C 
BRANCH  20  22
ATOM     21  C   UNL     1       4.730   3.616  18.348  0.00  0.00    +0.000 C 
ATOM     22  C   UNL     1       5.040   5.105  18.056  0.00  0.00    +0.000 C 
ATOM     23  C   UNL     1       5.577   5.706  19.371  0.00  0.00    +0.000 C 
BRANCH  22  24
ATOM     24  C   UNL     1       6.157   5.169  16.986  0.00  0.00    +0.000 C 
BRANCH  24  25
ATOM     25  N   UNL     1       5.905   4.284  15.860  0.00  0.00    +0.000 N 
ATOM     26  C   UNL     1       6.597   4.398  14.673  0.00  0.00    +0.000 C 
ATOM     27  O   UNL     1       7.495   5.210  14.483  0.00  0.00    +0.000 OA
ATOM     28  H   UNL     1       5.000   3.826  15.827  0.00  0.00    +0.000 HD
BRANCH  26  29
ATOM     29  C   UNL     1       6.190   3.404  13.629  0.00  0.00    +0.000 C 
BRANCH  29  30
ATOM     30  C   UNL     1       6.708   3.840  12.285  0.00  0.00    +0.000 C 
ATOM     31  F   UNL     1       7.509   4.925  12.320  0.00  0.00    +0.000 F 
ATOM     32  F   UNL     1       7.431   2.840  11.721  0.00  0.00    +0.000 F 
ATOM     33  F   UNL     1       5.690   4.112  11.436  0.00  0.00    +0.000 F 
ENDBRANCH  29  30
ENDBRANCH  26  29
ENDBRANCH  24  25
ENDBRANCH  22  24
ENDBRANCH  20  22
ENDBRANCH   1  20
TORSDOF 7
ENDMDL
MODEL 6
REMARK VINA RESULT:      -7.9      3.125      3.656
REMARK  Name = 
REMARK  9 active torsions:
REMARK  status: ('A' for Active; 'I' for Inactive)
REMARK    1  A    between atoms: C_1  and  C_2
REMARK    2  A    between atoms: C_2  and  C_3
REMARK    3  A    between atoms: C_2  and  C_4
REMARK    4  A    between atoms: C_2  and  C_13
REMARK    5  A    between atoms: C_4  and  N_5
REMARK    6  A    between atoms: C_6  and  C_8
REMARK    7  A    between atoms: C_8  and  C_9
REMARK    8  A    between atoms: C_13  and  N_14
REMARK    9  A    between atoms: N_14  and  C_27
REMARK                            x       y       z     vdW  Elec       q    Type
REMARK                         _______ _______ _______ _____ _____    ______ ____
ROOT
ATOM      1  N   UNL     1       2.976   6.541  18.445  0.00  0.00    +0.000 N 
ATOM      2  C   UNL     1       2.307   7.765  18.566  0.00  0.00    +0.000 C 
ATOM      3  N   UNL     1       2.190   8.600  17.564  0.00  0.00    +0.000 NA
ATOM      4  S   UNL     1       1.385   9.961  17.998  0.00  0.00    +0.000 S 
ATOM      5  O   UNL     1       2.292  11.086  17.935  0.00  0.00    +0.000 OA
ATOM      6  O   UNL     1       0.074   9.979  17.394  0.00  0.00    +0.000 OA
ATOM      7  C   UNL     1       1.185   9.528  19.662  0.00  0.00    +0.000 A 
ATOM      8  C   UNL     1       0.587  10.273  20.661  0.00  0.00    +0.000 A 
ATOM      9  C   UNL     1       0.548   9.695  21.919  0.00  0.00    +0.000 A 
ATOM     10  F   UNL     1      -0.027  10.358  22.932  0.00  0.00    +0.000 F 
ATOM     11  C   UNL     1       1.101   8.427  22.160  0.00  0.00    +0.000 A 
ATOM     12  C   UNL     1       1.719   7.710  21.125  0.00  0.00    +0.000 A 
ATOM     13  C   UNL     1       1.740   8.271  19.857  0.00  0.00    +0.000 A 
ENDROOT
BRANCH   1  14
ATOM     14  C   UNL     1       2.381   5.295  18.831  0.00  0.00    +0.000 A 
ATOM     15  C   UNL     1       1.670   4.494  17.915  0.00  0.00    +0.000 A 
ATOM     16  C   UNL     1       1.106   3.262  18.268  0.00  0.00    +0.000 A 
ATOM     17  C   UNL     1       1.252   2.780  19.559  0.00  0.00    +0.000 A 
ATOM     18  C   UNL     1       1.940   3.541  20.496  0.00  0.00    +0.000 A 
ATOM     19  C   UNL     1       2.479   4.787  20.140  0.00  0.00    +0.000 A 
ENDBRANCH   1  14
BRANCH   1  20
ATOM     20  C   UNL     1       4.021   6.415  17.380  0.00  0.00    +0.000 C 
BRANCH  20  22
ATOM     21  C   UNL     1       5.016   4.096  17.483  0.00  0.00    +0.000 C 
ATOM     22  C   UNL     1       5.277   5.588  17.806  0.00  0.00    +0.000 C 
ATOM     23  C   UNL     1       5.523   5.670  19.326  0.00  0.00    +0.000 C 
BRANCH  22  24
ATOM     24  C   UNL     1       6.565   6.027  17.068  0.00  0.00    +0.000 C 
BRANCH  24  25
ATOM     25  N   UNL     1       6.742   7.470  17.060  0.00  0.00    +0.000 N 
ATOM     26  C   UNL     1       7.698   8.094  17.833  0.00  0.00    +0.000 C 
ATOM     27  O   UNL     1       8.494   7.493  18.547  0.00  0.00    +0.000 OA
ATOM     28  H   UNL     1       5.949   8.030  16.763  0.00  0.00    +0.000 HD
BRANCH  26  29
ATOM     29  C   UNL     1       7.719   9.585  17.696  0.00  0.00    +0.000 C 
BRANCH  29  30
ATOM     30  C   UNL     1       8.897  10.145  18.445  0.00  0.00    +0.000 C 
ATOM     31  F   UNL     1       8.654  11.313  19.077  0.00  0.00    +0.000 F 
ATOM     32  F   UNL     1       9.303   9.266  19.396  0.00  0.00    +0.000 F 
ATOM     33  F   UNL     1       9.951  10.341  17.619  0.00  0.00    +0.000 F 
ENDBRANCH  29  30
ENDBRANCH  26  29
ENDBRANCH  24  25
ENDBRANCH  22  24
ENDBRANCH  20  22
ENDBRANCH   1  20
TORSDOF 7
ENDMDL
MODEL 7
REMARK VINA RESULT:      -7.9      0.945      1.580
REMARK  Name = 
REMARK  9 active torsions:
REMARK  status: ('A' for Active; 'I' for Inactive)
REMARK    1  A    between atoms: C_1  and  C_2
REMARK    2  A    between atoms: C_2  and  C_3
REMARK    3  A    between atoms: C_2  and  C_4
REMARK    4  A    between atoms: C_2  and  C_13
REMARK    5  A    between atoms: C_4  and  N_5
REMARK    6  A    between atoms: C_6  and  C_8
REMARK    7  A    between atoms: C_8  and  C_9
REMARK    8  A    between atoms: C_13  and  N_14
REMARK    9  A    between atoms: N_14  and  C_27
REMARK                            x       y       z     vdW  Elec       q    Type
REMARK                         _______ _______ _______ _____ _____    ______ ____
ROOT
ATOM      1  N   UNL     1       2.988   6.395  18.382  0.00  0.00    +0.000 N 
ATOM      2  C   UNL     1       2.307   7.610  18.521  0.00  0.00    +0.000 C 
ATOM      3  N   UNL     1       2.150   8.444  17.523  0.00  0.00    +0.000 NA
ATOM      4  S   UNL     1       1.341   9.794  17.980  0.00  0.00    +0.000 S 
ATOM      5  O   UNL     1       2.232  10.930  17.891  0.00  0.00    +0.000 OA
ATOM      6  O   UNL     1       0.013   9.796  17.414  0.00  0.00    +0.000 OA
ATOM      7  C   UNL     1       1.195   9.360  19.649  0.00  0.00    +0.000 A 
ATOM      8  C   UNL     1       0.617  10.097  20.665  0.00  0.00    +0.000 A 
ATOM      9  C   UNL     1       0.621   9.519  21.924  0.00  0.00    +0.000 A 
ATOM     10  F   UNL     1       0.067  10.175  22.953  0.00  0.00    +0.000 F 
ATOM     11  C   UNL     1       1.198   8.259  22.149  0.00  0.00    +0.000 A 
ATOM     12  C   UNL     1       1.794   7.549  21.096  0.00  0.00    +0.000 A 
ATOM     13  C   UNL     1       1.772   8.110  19.828  0.00  0.00    +0.000 A 
ENDROOT
BRANCH   1  14
ATOM     14  C   UNL     1       2.420   5.142  18.785  0.00  0.00    +0.000 A 
ATOM     15  C   UNL     1       2.572   4.641  20.094  0.00  0.00    +0.000 A 
ATOM     16  C   UNL     1       2.000   3.433  20.511  0.00  0.00    +0.000 A 
ATOM     17  C   UNL     1       1.236   2.689  19.628  0.00  0.00    +0.000 A 
ATOM     18  C   UNL     1       1.066   3.143  18.326  0.00  0.00    +0.000 A 
ATOM     19  C   UNL     1       1.664   4.341  17.908  0.00  0.00    +0.000 A 
ENDBRANCH   1  14
BRANCH   1  20
ATOM     20  C   UNL     1       4.003   6.281  17.286  0.00  0.00    +0.000 C 
BRANCH  20  22
ATOM     21  C   UNL     1       5.381   5.609  19.293  0.00  0.00    +0.000 C 
ATOM     22  C   UNL     1       5.391   5.731  17.750  0.00  0.00    +0.000 C 
ATOM     23  C   UNL     1       6.535   6.703  17.395  0.00  0.00    +0.000 C 
BRANCH  22  24
ATOM     24  C   UNL     1       5.716   4.340  17.154  0.00  0.00    +0.000 C 
BRANCH  24  25
ATOM     25  N   UNL     1       6.511   4.422  15.939  0.00  0.00    +0.000 N 
ATOM     26  C   UNL     1       5.934   4.426  14.687  0.00  0.00    +0.000 C 
ATOM     27  O   UNL     1       4.723   4.405  14.495  0.00  0.00    +0.000 OA
ATOM     28  H   UNL     1       7.480   4.126  16.002  0.00  0.00    +0.000 HD
BRANCH  26  29
ATOM     29  C   UNL     1       6.917   4.505  13.560  0.00  0.00    +0.000 C 
BRANCH  29  30
ATOM     30  C   UNL     1       6.474   3.608  12.437  0.00  0.00    +0.000 C 
ATOM     31  F   UNL     1       7.457   3.253  11.583  0.00  0.00    +0.000 F 
ATOM     32  F   UNL     1       5.959   2.457  12.938  0.00  0.00    +0.000 F 
ATOM     33  F   UNL     1       5.492   4.190  11.709  0.00  0.00    +0.000 F 
ENDBRANCH  29  30
ENDBRANCH  26  29
ENDBRANCH  24  25
ENDBRANCH  22  24
ENDBRANCH  20  22
ENDBRANCH   1  20
TORSDOF 7
ENDMDL
MODEL 8
REMARK VINA RESULT:      -7.9      6.417      9.827
REMARK  Name = 
REMARK  9 active torsions:
REMARK  status: ('A' for Active; 'I' for Inactive)
REMARK    1  A    between atoms: C_1  and  C_2
REMARK    2  A    between atoms: C_2  and  C_3
REMARK    3  A    between atoms: C_2  and  C_4
REMARK    4  A    between atoms: C_2  and  C_13
REMARK    5  A    between atoms: C_4  and  N_5
REMARK    6  A    between atoms: C_6  and  C_8
REMARK    7  A    between atoms: C_8  and  C_9
REMARK    8  A    between atoms: C_13  and  N_14
REMARK    9  A    between atoms: N_14  and  C_27
REMARK                            x       y       z     vdW  Elec       q    Type
REMARK                         _______ _______ _______ _____ _____    ______ ____
ROOT
ATOM      1  N   UNL     1      -0.285  10.963  19.349  0.00  0.00    +0.000 N 
ATOM      2  C   UNL     1       0.101  12.201  19.876  0.00  0.00    +0.000 C 
ATOM      3  N   UNL     1      -0.557  12.785  20.847  0.00  0.00    +0.000 NA
ATOM      4  S   UNL     1       0.102  14.233  21.243  0.00  0.00    +0.000 S 
ATOM      5  O   UNL     1      -0.831  15.284  20.902  0.00  0.00    +0.000 OA
ATOM      6  O   UNL     1       0.751  14.150  22.530  0.00  0.00    +0.000 OA
ATOM      7  C   UNL     1       1.340  14.204  20.032  0.00  0.00    +0.000 A 
ATOM      8  C   UNL     1       2.285  15.177  19.769  0.00  0.00    +0.000 A 
ATOM      9  C   UNL     1       3.176  14.908  18.743  0.00  0.00    +0.000 A 
ATOM     10  F   UNL     1       4.125  15.805  18.441  0.00  0.00    +0.000 F 
ATOM     11  C   UNL     1       3.106  13.714  18.007  0.00  0.00    +0.000 A 
ATOM     12  C   UNL     1       2.119  12.758  18.290  0.00  0.00    +0.000 A 
ATOM     13  C   UNL     1       1.239  13.010  19.332  0.00  0.00    +0.000 A 
ENDROOT
BRANCH   1  14
ATOM     14  C   UNL     1       0.622   9.859  19.229  0.00  0.00    +0.000 A 
ATOM     15  C   UNL     1       0.981   9.065  20.337  0.00  0.00    +0.000 A 
ATOM     16  C   UNL     1       1.843   7.967  20.232  0.00  0.00    +0.000 A 
ATOM     17  C   UNL     1       2.366   7.615  18.998  0.00  0.00    +0.000 A 
ATOM     18  C   UNL     1       2.042   8.375  17.880  0.00  0.00    +0.000 A 
ATOM     19  C   UNL     1       1.198   9.489  17.999  0.00  0.00    +0.000 A 
ENDBRANCH   1  14
BRANCH   1  20
ATOM     20  C   UNL     1      -1.722  10.561  19.482  0.00  0.00    +0.000 C 
BRANCH  20  22
ATOM     21  C   UNL     1      -3.194   9.737  17.602  0.00  0.00    +0.000 C 
ATOM     22  C   UNL     1      -2.627  11.005  18.288  0.00  0.00    +0.000 C 
ATOM     23  C   UNL     1      -1.820  11.760  17.212  0.00  0.00    +0.000 C 
BRANCH  22  24
ATOM     24  C   UNL     1      -3.817  11.890  18.731  0.00  0.00    +0.000 C 
BRANCH  24  25
ATOM     25  N   UNL     1      -3.500  12.718  19.884  0.00  0.00    +0.000 N 
ATOM     26  C   UNL     1      -4.302  12.748  21.004  0.00  0.00    +0.000 C 
ATOM     27  O   UNL     1      -5.308  12.059  21.141  0.00  0.00    +0.000 OA
ATOM     28  H   UNL     1      -2.898  13.520  19.724  0.00  0.00    +0.000 HD
BRANCH  26  29
ATOM     29  C   UNL     1      -3.817  13.668  22.081  0.00  0.00    +0.000 C 
BRANCH  29  30
ATOM     30  C   UNL     1      -3.328  12.863  23.254  0.00  0.00    +0.000 C 
ATOM     31  F   UNL     1      -4.296  12.489  24.117  0.00  0.00    +0.000 F 
ATOM     32  F   UNL     1      -2.733  11.724  22.819  0.00  0.00    +0.000 F 
ATOM     33  F   UNL     1      -2.396  13.547  23.959  0.00  0.00    +0.000 F 
ENDBRANCH  29  30
ENDBRANCH  26  29
ENDBRANCH  24  25
ENDBRANCH  22  24
ENDBRANCH  20  22
ENDBRANCH   1  20
TORSDOF 7
ENDMDL
MODEL 9
REMARK VINA RESULT:      -7.8      3.889      5.892
REMARK  Name = 
REMARK  9 active torsions:
REMARK  status: ('A' for Active; 'I' for Inactive)
REMARK    1  A    between atoms: C_1  and  C_2
REMARK    2  A    between atoms: C_2  and  C_3
REMARK    3  A    between atoms: C_2  and  C_4
REMARK    4  A    between atoms: C_2  and  C_13
REMARK    5  A    between atoms: C_4  and  N_5
REMARK    6  A    between atoms: C_6  and  C_8
REMARK    7  A    between atoms: C_8  and  C_9
REMARK    8  A    between atoms: C_13  and  N_14
REMARK    9  A    between atoms: N_14  and  C_27
REMARK                            x       y       z     vdW  Elec       q    Type
REMARK                         _______ _______ _______ _____ _____    ______ ____
ROOT
ATOM      1  N   UNL     1       6.182   5.027  17.140  0.00  0.00    +0.000 N 
ATOM      2  C   UNL     1       5.260   4.355  17.951  0.00  0.00    +0.000 C 
ATOM      3  N   UNL     1       5.275   3.053  18.099  0.00  0.00    +0.000 NA
ATOM      4  S   UNL     1       4.066   2.539  19.079  0.00  0.00    +0.000 S 
ATOM      5  O   UNL     1       3.134   1.750  18.304  0.00  0.00    +0.000 OA
ATOM      6  O   UNL     1       4.604   2.094  20.343  0.00  0.00    +0.000 OA
ATOM      7  C   UNL     1       3.364   4.100  19.333  0.00  0.00    +0.000 A 
ATOM      8  C   UNL     1       2.239   4.409  20.074  0.00  0.00    +0.000 A 
ATOM      9  C   UNL     1       1.884   5.747  20.126  0.00  0.00    +0.000 A 
ATOM     10  F   UNL     1       0.809   6.117  20.836  0.00  0.00    +0.000 F 
ATOM     11  C   UNL     1       2.626   6.728  19.448  0.00  0.00    +0.000 A 
ATOM     12  C   UNL     1       3.751   6.373  18.688  0.00  0.00    +0.000 A 
ATOM     13  C   UNL     1       4.126   5.039  18.651  0.00  0.00    +0.000 A 
ENDROOT
BRANCH   1  14
ATOM     14  C   UNL     1       6.962   6.133  17.612  0.00  0.00    +0.000 A 
ATOM     15  C   UNL     1       6.883   7.409  17.017  0.00  0.00    +0.000 A 
ATOM     16  C   UNL     1       7.616   8.506  17.484  0.00  0.00    +0.000 A 
ATOM     17  C   UNL     1       8.448   8.365  18.583  0.00  0.00    +0.000 A 
ATOM     18  C   UNL     1       8.560   7.123  19.196  0.00  0.00    +0.000 A 
ATOM     19  C   UNL     1       7.841   6.022  18.705  0.00  0.00    +0.000 A 
ENDBRANCH   1  14
BRANCH   1  20
ATOM     20  C   UNL     1       6.822   4.262  16.022  0.00  0.00    +0.000 C 
BRANCH  20  22
ATOM     21  C   UNL     1       7.534   5.585  13.992  0.00  0.00    +0.000 C 
ATOM     22  C   UNL     1       6.392   4.730  14.594  0.00  0.00    +0.000 C 
ATOM     23  C   UNL     1       5.145   5.636  14.644  0.00  0.00    +0.000 C 
BRANCH  22  24
ATOM     24  C   UNL     1       6.111   3.549  13.633  0.00  0.00    +0.000 C 
BRANCH  24  25
ATOM     25  N   UNL     1       4.825   3.665  12.964  0.00  0.00    +0.000 N 
ATOM     26  C   UNL     1       4.543   2.980  11.801  0.00  0.00    +0.000 C 
ATOM     27  O   UNL     1       5.320   2.196  11.266  0.00  0.00    +0.000 OA
ATOM     28  H   UNL     1       4.280   4.499  13.154  0.00  0.00    +0.000 HD
BRANCH  26  29
ATOM     29  C   UNL     1       3.171   3.236  11.257  0.00  0.00    +0.000 C 
BRANCH  29  30
ATOM     30  C   UNL     1       3.275   3.914   9.919  0.00  0.00    +0.000 C 
ATOM     31  F   UNL     1       3.106   3.092   8.861  0.00  0.00    +0.000 F 
ATOM     32  F   UNL     1       2.330   4.882   9.814  0.00  0.00    +0.000 F 
ATOM     33  F   UNL     1       4.475   4.522   9.773  0.00  0.00    +0.000 F 
ENDBRANCH  29  30
ENDBRANCH  26  29
ENDBRANCH  24  25
ENDBRANCH  22  24
ENDBRANCH  20  22
ENDBRANCH   1  20
TORSDOF 7
ENDMDL
