MODEL 1
REMARK VINA RESULT:      -8.3      0.000      0.000
REMARK  Name = 
REMARK  12 active torsions:
REMARK  status: ('A' for Active; 'I' for Inactive)
REMARK    1  A    between atoms: C_1  and  C_2
REMARK    2  A    between atoms: C_2  and  C_3
REMARK    3  A    between atoms: C_3  and  N_4
REMARK    4  A    between atoms: N_4  and  C_5
REMARK    5  A    between atoms: C_5  and  C_6
REMARK    6  A    between atoms: C_6  and  C_7
REMARK    7  A    between atoms: C_8  and  C_10
REMARK    8  A    between atoms: C_16  and  S_17
REMARK    9  A    between atoms: S_17  and  N_20
REMARK   10  A    between atoms: N_20  and  C_21
REMARK   11  A    between atoms: C_23  and  C_24
REMARK   12  A    between atoms: C_26  and  C_27
REMARK                            x       y       z     vdW  Elec       q    Type
REMARK                         _______ _______ _______ _____ _____    ______ ____
ROOT
ATOM      1  C   UNL     1       1.481   9.433  19.186  0.00  0.00    +0.000 A 
ATOM      2  C   UNL     1       1.315   9.183  20.501  0.00  0.00    +0.000 A 
ATOM      3  N   UNL     1       1.589   7.986  21.135  0.00  0.00    +0.000 N 
ATOM      4  C   UNL     1       1.811   6.832  20.373  0.00  0.00    +0.000 A 
ATOM      5  C   UNL     1       1.879   5.559  20.941  0.00  0.00    +0.000 A 
ATOM      6  C   UNL     1       2.112   4.436  20.132  0.00  0.00    +0.000 A 
ATOM      7  C   UNL     1       2.293   4.586  18.750  0.00  0.00    +0.000 A 
ATOM      8  C   UNL     1       2.241   5.850  18.169  0.00  0.00    +0.000 A 
ATOM      9  C   UNL     1       2.038   6.959  18.995  0.00  0.00    +0.000 A 
ATOM     10  C   UNL     1       2.145   8.326  18.441  0.00  0.00    +0.000 A 
ATOM     11  O   UNL     1       2.793   8.487  17.417  0.00  0.00    +0.000 OA
ATOM     12  H   UNL     1       1.302   7.886  22.103  0.00  0.00    +0.000 HD
ENDROOT
BRANCH   1  14
ATOM     13  N   UNL     1      -0.256  11.161  18.531  0.00  0.00    +0.000 N 
ATOM     14  C   UNL     1       1.092  10.784  18.657  0.00  0.00    +0.000 C 
ATOM     15  O   UNL     1       2.002  11.581  18.403  0.00  0.00    +0.000 OA
BRANCH  13  16
ATOM     16  C   UNL     1      -0.541  12.492  17.964  0.00  0.00    +0.000 C 
BRANCH  16  18
ATOM     17  C   UNL     1       0.403  14.549  19.236  0.00  0.00    +0.000 C 
ATOM     18  C   UNL     1      -0.791  13.656  18.943  0.00  0.00    +0.000 C 
ENDBRANCH  16  18
ENDBRANCH  13  16
BRANCH  13  19
ATOM     19  C   UNL     1      -1.375  10.293  18.937  0.00  0.00    +0.000 C 
BRANCH  19  20
ATOM     20  C   UNL     1      -2.573  10.025  18.023  0.00  0.00    +0.000 C 
ATOM     21  C   UNL     1      -2.222   9.854  16.557  0.00  0.00    +0.000 C 
ENDBRANCH  19  20
ENDBRANCH  13  19
ENDBRANCH   1  14
BRANCH   7  22
ATOM     22  S   UNL     1       2.542   3.153  17.720  0.00  0.00    +0.000 S 
ATOM     23  O   UNL     1       1.742   2.072  18.274  0.00  0.00    +0.000 OA
ATOM     24  O   UNL     1       2.364   3.581  16.350  0.00  0.00    +0.000 OA
BRANCH  22  25
ATOM     25  N   UNL     1       4.173   2.796  17.902  0.00  0.00    +0.000 N 
ATOM     26  H   UNL     1       4.369   1.801  17.798  0.00  0.00    +0.000 HD
BRANCH  25  27
ATOM     27  C   UNL     1       5.160   3.703  17.430  0.00  0.00    +0.000 A 
ATOM     28  C   UNL     1       5.873   4.502  18.327  0.00  0.00    +0.000 A 
ATOM     29  C   UNL     1       6.877   5.362  17.858  0.00  0.00    +0.000 A 
ATOM     30  C   UNL     1       7.694   6.196  18.804  0.00  0.00    +0.000 C 
ATOM     31  C   UNL     1       7.133   5.427  16.481  0.00  0.00    +0.000 A 
ATOM     32  C   UNL     1       6.405   4.644  15.576  0.00  0.00    +0.000 A 
ATOM     33  C   UNL     1       6.679   4.703  14.103  0.00  0.00    +0.000 C 
ATOM     34  C   UNL     1       5.417   3.780  16.062  0.00  0.00    +0.000 A 
ENDBRANCH  25  27
ENDBRANCH  22  25
ENDBRANCH   7  22
TORSDOF 8
ENDMDL
MODEL 2
REMARK VINA RESULT:      -7.8      2.652      8.753
REMARK  Name = 
REMARK  12 active torsions:
REMARK  status: ('A' for Active; 'I' for Inactive)
REMARK    1  A    between atoms: C_1  and  C_2
REMARK    2  A    between atoms: C_2  and  C_3
REMARK    3  A    between atoms: C_3  and  N_4
REMARK    4  A    between atoms: N_4  and  C_5
REMARK    5  A    between atoms: C_5  and  C_6
REMARK    6  A    between atoms: C_6  and  C_7
REMARK    7  A    between atoms: C_8  and  C_10
REMARK    8  A    between atoms: C_16  and  S_17
REMARK    9  A    between atoms: S_17  and  N_20
REMARK   10  A    between atoms: N_20  and  C_21
REMARK   11  A    between atoms: C_23  and  C_24
REMARK   12  A    between atoms: C_26  and  C_27
REMARK                            x       y       z     vdW  Elec       q    Type
REMARK                         _______ _______ _______ _____ _____    ______ ____
ROOT
ATOM      1  C   UNL     1       3.294   6.434  18.707  0.00  0.00    +0.000 A 
ATOM      2  C   UNL     1       2.832   5.861  19.837  0.00  0.00    +0.000 A 
ATOM      3  N   UNL     1       1.861   6.385  20.669  0.00  0.00    +0.000 N 
ATOM      4  C   UNL     1       1.473   7.724  20.525  0.00  0.00    +0.000 A 
ATOM      5  C   UNL     1       0.664   8.374  21.457  0.00  0.00    +0.000 A 
ATOM      6  C   UNL     1       0.298   9.715  21.260  0.00  0.00    +0.000 A 
ATOM      7  C   UNL     1       0.729  10.405  20.119  0.00  0.00    +0.000 A 
ATOM      8  C   UNL     1       1.526   9.767  19.173  0.00  0.00    +0.000 A 
ATOM      9  C   UNL     1       1.855   8.424  19.371  0.00  0.00    +0.000 A 
ATOM     10  C   UNL     1       2.555   7.667  18.311  0.00  0.00    +0.000 A 
ATOM     11  O   UNL     1       2.473   8.070  17.160  0.00  0.00    +0.000 OA
ATOM     12  H   UNL     1       1.693   5.918  21.554  0.00  0.00    +0.000 HD
ENDROOT
BRANCH   1  14
ATOM     13  N   UNL     1       4.143   4.553  17.233  0.00  0.00    +0.000 N 
ATOM     14  C   UNL     1       4.386   5.741  17.944  0.00  0.00    +0.000 C 
ATOM     15  O   UNL     1       5.493   6.290  17.904  0.00  0.00    +0.000 OA
BRANCH  13  16
ATOM     16  C   UNL     1       5.285   3.923  16.546  0.00  0.00    +0.000 C 
BRANCH  16  18
ATOM     17  C   UNL     1       6.856   4.807  14.678  0.00  0.00    +0.000 C 
ATOM     18  C   UNL     1       5.497   4.241  15.053  0.00  0.00    +0.000 C 
ENDBRANCH  16  18
ENDBRANCH  13  16
BRANCH  13  19
ATOM     19  C   UNL     1       2.812   3.926  17.147  0.00  0.00    +0.000 C 
BRANCH  19  20
ATOM     20  C   UNL     1       2.534   2.525  17.697  0.00  0.00    +0.000 C 
ATOM     21  C   UNL     1       3.371   2.143  18.903  0.00  0.00    +0.000 C 
ENDBRANCH  19  20
ENDBRANCH  13  19
ENDBRANCH   1  14
BRANCH   7  22
ATOM     22  S   UNL     1       0.300  12.121  19.896  0.00  0.00    +0.000 S 
ATOM     23  O   UNL     1      -0.769  12.429  20.833  0.00  0.00    +0.000 OA
ATOM     24  O   UNL     1       1.537  12.870  19.908  0.00  0.00    +0.000 OA
BRANCH  22  25
ATOM     25  N   UNL     1      -0.290  12.195  18.326  0.00  0.00    +0.000 N 
ATOM     26  H   UNL     1       0.433  12.019  17.629  0.00  0.00    +0.000 HD
BRANCH  25  27
ATOM     27  C   UNL     1      -1.600  11.728  18.032  0.00  0.00    +0.000 A 
ATOM     28  C   UNL     1      -2.670  12.053  18.870  0.00  0.00    +0.000 A 
ATOM     29  C   UNL     1      -3.968  11.627  18.549  0.00  0.00    +0.000 A 
ATOM     30  C   UNL     1      -5.145  12.004  19.404  0.00  0.00    +0.000 C 
ATOM     31  C   UNL     1      -4.169  10.852  17.398  0.00  0.00    +0.000 A 
ATOM     32  C   UNL     1      -3.095  10.505  16.569  0.00  0.00    +0.000 A 
ATOM     33  C   UNL     1      -3.303   9.683  15.332  0.00  0.00    +0.000 C 
ATOM     34  C   UNL     1      -1.809  10.951  16.894  0.00  0.00    +0.000 A 
ENDBRANCH  25  27
ENDBRANCH  22  25
ENDBRANCH   7  22
TORSDOF 8
ENDMDL
MODEL 3
REMARK VINA RESULT:      -7.8      1.097      1.787
REMARK  Name = 
REMARK  12 active torsions:
REMARK  status: ('A' for Active; 'I' for Inactive)
REMARK    1  A    between atoms: C_1  and  C_2
REMARK    2  A    between atoms: C_2  and  C_3
REMARK    3  A    between atoms: C_3  and  N_4
REMARK    4  A    between atoms: N_4  and  C_5
REMARK    5  A    between atoms: C_5  and  C_6
REMARK    6  A    between atoms: C_6  and  C_7
REMARK    7  A    between atoms: C_8  and  C_10
REMARK    8  A    between atoms: C_16  and  S_17
REMARK    9  A    between atoms: S_17  and  N_20
REMARK   10  A    between atoms: N_20  and  C_21
REMARK   11  A    between atoms: C_23  and  C_24
REMARK   12  A    between atoms: C_26  and  C_27
REMARK                            x       y       z     vdW  Elec       q    Type
REMARK                         _______ _______ _______ _____ _____    ______ ____
ROOT
ATOM      1  C   UNL     1       1.577   9.004  19.470  0.00  0.00    +0.000 A 
ATOM      2  C   UNL     1       1.418   8.701  20.775  0.00  0.00    +0.000 A 
ATOM      3  N   UNL     1       1.717   7.487  21.363  0.00  0.00    +0.000 N 
ATOM      4  C   UNL     1       1.962   6.366  20.557  0.00  0.00    +0.000 A 
ATOM      5  C   UNL     1       2.056   5.075  21.077  0.00  0.00    +0.000 A 
ATOM      6  C   UNL     1       2.310   3.988  20.225  0.00  0.00    +0.000 A 
ATOM      7  C   UNL     1       2.488   4.194  18.850  0.00  0.00    +0.000 A 
ATOM      8  C   UNL     1       2.409   5.477  18.317  0.00  0.00    +0.000 A 
ATOM      9  C   UNL     1       2.185   6.550  19.184  0.00  0.00    +0.000 A 
ATOM     10  C   UNL     1       2.263   7.939  18.683  0.00  0.00    +0.000 A 
ATOM     11  O   UNL     1       2.906   8.152  17.666  0.00  0.00    +0.000 OA
ATOM     12  H   UNL     1       1.434   7.344  22.326  0.00  0.00    +0.000 HD
ENDROOT
BRANCH   1  14
ATOM     13  N   UNL     1       0.046  11.024  19.539  0.00  0.00    +0.000 N 
ATOM     14  C   UNL     1       1.161  10.365  18.992  0.00  0.00    +0.000 C 
ATOM     15  O   UNL     1       1.876  10.919  18.149  0.00  0.00    +0.000 OA
BRANCH  13  16
ATOM     16  C   UNL     1      -0.310  12.340  18.979  0.00  0.00    +0.000 C 
BRANCH  16  18
ATOM     17  C   UNL     1      -2.063  11.075  17.543  0.00  0.00    +0.000 C 
ATOM     18  C   UNL     1      -1.376  12.390  17.867  0.00  0.00    +0.000 C 
ENDBRANCH  16  18
ENDBRANCH  13  16
BRANCH  13  19
ATOM     19  C   UNL     1      -0.764  10.460  20.632  0.00  0.00    +0.000 C 
BRANCH  19  20
ATOM     20  C   UNL     1      -1.005  11.214  21.942  0.00  0.00    +0.000 C 
ATOM     21  C   UNL     1      -0.879  10.363  23.192  0.00  0.00    +0.000 C 
ENDBRANCH  19  20
ENDBRANCH  13  19
ENDBRANCH   1  14
BRANCH   7  22
ATOM     22  S   UNL     1       2.765   2.806  17.766  0.00  0.00    +0.000 S 
ATOM     23  O   UNL     1       2.146   1.642  18.381  0.00  0.00    +0.000 OA
ATOM     24  O   UNL     1       2.392   3.229  16.435  0.00  0.00    +0.000 OA
BRANCH  22  25
ATOM     25  N   UNL     1       4.434   2.618  17.760  0.00  0.00    +0.000 N 
ATOM     26  H   UNL     1       4.716   1.642  17.683  0.00  0.00    +0.000 HD
BRANCH  25  27
ATOM     27  C   UNL     1       5.258   3.583  17.122  0.00  0.00    +0.000 A 
ATOM     28  C   UNL     1       5.873   4.592  17.867  0.00  0.00    +0.000 A 
ATOM     29  C   UNL     1       6.723   5.513  17.237  0.00  0.00    +0.000 A 
ATOM     30  C   UNL     1       7.438   6.577  18.022  0.00  0.00    +0.000 C 
ATOM     31  C   UNL     1       6.922   5.424  15.852  0.00  0.00    +0.000 A 
ATOM     32  C   UNL     1       6.288   4.428  15.098  0.00  0.00    +0.000 A 
ATOM     33  C   UNL     1       6.502   4.322  13.617  0.00  0.00    +0.000 C 
ATOM     34  C   UNL     1       5.457   3.507  15.744  0.00  0.00    +0.000 A 
ENDBRANCH  25  27
ENDBRANCH  22  25
ENDBRANCH   7  22
TORSDOF 8
ENDMDL
MODEL 4
REMARK VINA RESULT:      -7.7      2.941      8.696
REMARK  Name = 
REMARK  12 active torsions:
REMARK  status: ('A' for Active; 'I' for Inactive)
REMARK    1  A    between atoms: C_1  and  C_2
REMARK    2  A    between atoms: C_2  and  C_3
REMARK    3  A    between atoms: C_3  and  N_4
REMARK    4  A    between atoms: N_4  and  C_5
REMARK    5  A    between atoms: C_5  and  C_6
REMARK    6  A    between atoms: C_6  and  C_7
REMARK    7  A    between atoms: C_8  and  C_10
REMARK    8  A    between atoms: C_16  and  S_17
REMARK    9  A    between atoms: S_17  and  N_20
REMARK   10  A    between atoms: N_20  and  C_21
REMARK   11  A    between atoms: C_23  and  C_24
REMARK   12  A    between atoms: C_26  and  C_27
REMARK                            x       y       z     vdW  Elec       q    Type
REMARK                         _______ _______ _______ _____ _____    ______ ____
ROOT
ATOM      1  C   UNL     1       3.188   6.691  18.584  0.00  0.00    +0.000 A 
ATOM      2  C   UNL     1       2.802   6.033  19.696  0.00  0.00    +0.000 A 
ATOM      3  N   UNL     1       1.874   6.480  20.616  0.00  0.00    +0.000 N 
ATOM      4  C   UNL     1       1.458   7.819  20.588  0.00  0.00    +0.000 A 
ATOM      5  C   UNL     1       0.695   8.389  21.608  0.00  0.00    +0.000 A 
ATOM      6  C   UNL     1       0.299   9.732  21.526  0.00  0.00    +0.000 A 
ATOM      7  C   UNL     1       0.652  10.507  20.413  0.00  0.00    +0.000 A 
ATOM      8  C   UNL     1       1.402   9.951  19.380  0.00  0.00    +0.000 A 
ATOM      9  C   UNL     1       1.762   8.603  19.466  0.00  0.00    +0.000 A 
ATOM     10  C   UNL     1       2.410   7.934  18.318  0.00  0.00    +0.000 A 
ATOM     11  O   UNL     1       2.254   8.414  17.204  0.00  0.00    +0.000 OA
ATOM     12  H   UNL     1       1.764   5.951  21.475  0.00  0.00    +0.000 HD
ENDROOT
BRANCH   1  14
ATOM     13  N   UNL     1       4.071   4.798  17.145  0.00  0.00    +0.000 N 
ATOM     14  C   UNL     1       4.244   6.072  17.713  0.00  0.00    +0.000 C 
ATOM     15  O   UNL     1       5.243   6.753  17.454  0.00  0.00    +0.000 OA
BRANCH  13  16
ATOM     16  C   UNL     1       5.178   4.255  16.337  0.00  0.00    +0.000 C 
BRANCH  16  18
ATOM     17  C   UNL     1       6.332   3.998  14.026  0.00  0.00    +0.000 C 
ATOM     18  C   UNL     1       5.310   4.732  14.877  0.00  0.00    +0.000 C 
ENDBRANCH  16  18
ENDBRANCH  13  16
BRANCH  13  19
ATOM     19  C   UNL     1       2.846   3.999  17.322  0.00  0.00    +0.000 C 
BRANCH  19  20
ATOM     20  C   UNL     1       2.882   2.548  17.809  0.00  0.00    +0.000 C 
ATOM     21  C   UNL     1       1.736   2.161  18.725  0.00  0.00    +0.000 C 
ENDBRANCH  19  20
ENDBRANCH  13  19
ENDBRANCH   1  14
BRANCH   7  22
ATOM     22  S   UNL     1       0.186  12.226  20.335  0.00  0.00    +0.000 S 
ATOM     23  O   UNL     1      -1.264  12.290  20.429  0.00  0.00    +0.000 OA
ATOM     24  O   UNL     1       1.023  12.934  21.278  0.00  0.00    +0.000 OA
BRANCH  22  25
ATOM     25  N   UNL     1       0.672  12.713  18.803  0.00  0.00    +0.000 N 
ATOM     26  H   UNL     1      -0.033  12.525  18.092  0.00  0.00    +0.000 HD
BRANCH  25  27
ATOM     27  C   UNL     1       1.457  13.886  18.643  0.00  0.00    +0.000 A 
ATOM     28  C   UNL     1       2.824  13.791  18.371  0.00  0.00    +0.000 A 
ATOM     29  C   UNL     1       3.584  14.952  18.168  0.00  0.00    +0.000 A 
ATOM     30  C   UNL     1       5.045  14.878  17.824  0.00  0.00    +0.000 C 
ATOM     31  C   UNL     1       2.960  16.204  18.270  0.00  0.00    +0.000 A 
ATOM     32  C   UNL     1       1.595  16.305  18.565  0.00  0.00    +0.000 A 
ATOM     33  C   UNL     1       0.919  17.640  18.667  0.00  0.00    +0.000 C 
ATOM     34  C   UNL     1       0.848  15.136  18.748  0.00  0.00    +0.000 A 
ENDBRANCH  25  27
ENDBRANCH  22  25
ENDBRANCH   7  22
TORSDOF 8
ENDMDL
MODEL 5
REMARK VINA RESULT:      -7.6      2.767      8.770
REMARK  Name = 
REMARK  12 active torsions:
REMARK  status: ('A' for Active; 'I' for Inactive)
REMARK    1  A    between atoms: C_1  and  C_2
REMARK    2  A    between atoms: C_2  and  C_3
REMARK    3  A    between atoms: C_3  and  N_4
REMARK    4  A    between atoms: N_4  and  C_5
REMARK    5  A    between atoms: C_5  and  C_6
REMARK    6  A    between atoms: C_6  and  C_7
REMARK    7  A    between atoms: C_8  and  C_10
REMARK    8  A    between atoms: C_16  and  S_17
REMARK    9  A    between atoms: S_17  and  N_20
REMARK   10  A    between atoms: N_20  and  C_21
REMARK   11  A    between atoms: C_23  and  C_24
REMARK   12  A    between atoms: C_26  and  C_27
REMARK                            x       y       z     vdW  Elec       q    Type
REMARK                         _______ _______ _______ _____ _____    ______ ____
ROOT
ATOM      1  C   UNL     1       3.324   6.958  18.378  0.00  0.00    +0.000 A 
ATOM      2  C   UNL     1       3.077   6.116  19.402  0.00  0.00    +0.000 A 
ATOM      3  N   UNL     1       2.144   6.313  20.402  0.00  0.00    +0.000 N 
ATOM      4  C   UNL     1       1.562   7.578  20.568  0.00  0.00    +0.000 A 
ATOM      5  C   UNL     1       0.783   7.904  21.679  0.00  0.00    +0.000 A 
ATOM      6  C   UNL     1       0.218   9.184  21.793  0.00  0.00    +0.000 A 
ATOM      7  C   UNL     1       0.417  10.137  20.785  0.00  0.00    +0.000 A 
ATOM      8  C   UNL     1       1.181   9.824  19.664  0.00  0.00    +0.000 A 
ATOM      9  C   UNL     1       1.712   8.535  19.555  0.00  0.00    +0.000 A 
ATOM     10  C   UNL     1       2.383   8.113  18.307  0.00  0.00    +0.000 A 
ATOM     11  O   UNL     1       2.116   8.710  17.274  0.00  0.00    +0.000 OA
ATOM     12  H   UNL     1       2.143   5.667  21.184  0.00  0.00    +0.000 HD
ENDROOT
BRANCH   1  14
ATOM     13  N   UNL     1       4.478   5.324  16.819  0.00  0.00    +0.000 N 
ATOM     14  C   UNL     1       4.406   6.602  17.400  0.00  0.00    +0.000 C 
ATOM     15  O   UNL     1       5.193   7.496  17.068  0.00  0.00    +0.000 OA
BRANCH  13  16
ATOM     16  C   UNL     1       5.598   5.054  15.900  0.00  0.00    +0.000 C 
BRANCH  16  18
ATOM     17  C   UNL     1       7.367   4.807  17.785  0.00  0.00    +0.000 C 
ATOM     18  C   UNL     1       6.826   4.307  16.456  0.00  0.00    +0.000 C 
ENDBRANCH  16  18
ENDBRANCH  13  16
BRANCH  13  19
ATOM     19  C   UNL     1       3.491   4.263  17.088  0.00  0.00    +0.000 C 
BRANCH  19  20
ATOM     20  C   UNL     1       3.902   2.876  17.587  0.00  0.00    +0.000 C 
ATOM     21  C   UNL     1       3.258   2.461  18.896  0.00  0.00    +0.000 C 
ENDBRANCH  19  20
ENDBRANCH  13  19
ENDBRANCH   1  14
BRANCH   7  22
ATOM     22  S   UNL     1      -0.265  11.776  20.955  0.00  0.00    +0.000 S 
ATOM     23  O   UNL     1      -1.489  11.660  21.731  0.00  0.00    +0.000 OA
ATOM     24  O   UNL     1       0.812  12.637  21.390  0.00  0.00    +0.000 OA
BRANCH  22  25
ATOM     25  N   UNL     1      -0.636  12.230  19.381  0.00  0.00    +0.000 N 
ATOM     26  H   UNL     1       0.189  12.283  18.786  0.00  0.00    +0.000 HD
BRANCH  25  27
ATOM     27  C   UNL     1      -1.843  11.788  18.777  0.00  0.00    +0.000 A 
ATOM     28  C   UNL     1      -3.079  12.188  19.290  0.00  0.00    +0.000 A 
ATOM     29  C   UNL     1      -4.266  11.785  18.661  0.00  0.00    +0.000 A 
ATOM     30  C   UNL     1      -5.608  12.242  19.161  0.00  0.00    +0.000 C 
ATOM     31  C   UNL     1      -4.195  10.956  17.532  0.00  0.00    +0.000 A 
ATOM     32  C   UNL     1      -2.958  10.534  17.028  0.00  0.00    +0.000 A 
ATOM     33  C   UNL     1      -2.874   9.654  15.816  0.00  0.00    +0.000 C 
ATOM     34  C   UNL     1      -1.783  10.958  17.658  0.00  0.00    +0.000 A 
ENDBRANCH  25  27
ENDBRANCH  22  25
ENDBRANCH   7  22
TORSDOF 8
ENDMDL
MODEL 6
REMARK VINA RESULT:      -7.6      2.274      2.830
REMARK  Name = 
REMARK  12 active torsions:
REMARK  status: ('A' for Active; 'I' for Inactive)
REMARK    1  A    between atoms: C_1  and  C_2
REMARK    2  A    between atoms: C_2  and  C_3
REMARK    3  A    between atoms: C_3  and  N_4
REMARK    4  A    between atoms: N_4  and  C_5
REMARK    5  A    between atoms: C_5  and  C_6
REMARK    6  A    between atoms: C_6  and  C_7
REMARK    7  A    between atoms: C_8  and  C_10
REMARK    8  A    between atoms: C_16  and  S_17
REMARK    9  A    between atoms: S_17  and  N_20
REMARK   10  A    between atoms: N_20  and  C_21
REMARK   11  A    between atoms: C_23  and  C_24
REMARK   12  A    between atoms: C_26  and  C_27
REMARK                            x       y       z     vdW  Elec       q    Type
REMARK                         _______ _______ _______ _____ _____    ______ ____
ROOT
ATOM      1  C   UNL     1       1.125   9.218  20.433  0.00  0.00    +0.000 A 
ATOM      2  C   UNL     1       1.372   9.705  19.200  0.00  0.00    +0.000 A 
ATOM      3  N   UNL     1       1.839   8.977  18.123  0.00  0.00    +0.000 N 
ATOM      4  C   UNL     1       2.359   7.691  18.328  0.00  0.00    +0.000 A 
ATOM      5  C   UNL     1       3.040   6.990  17.331  0.00  0.00    +0.000 A 
ATOM      6  C   UNL     1       3.534   5.702  17.587  0.00  0.00    +0.000 A 
ATOM      7  C   UNL     1       3.335   5.104  18.839  0.00  0.00    +0.000 A 
ATOM      8  C   UNL     1       2.648   5.784  19.840  0.00  0.00    +0.000 A 
ATOM      9  C   UNL     1       2.137   7.054  19.557  0.00  0.00    +0.000 A 
ATOM     10  C   UNL     1       1.260   7.736  20.533  0.00  0.00    +0.000 A 
ATOM     11  O   UNL     1       0.668   7.053  21.356  0.00  0.00    +0.000 OA
ATOM     12  H   UNL     1       2.104   9.485  17.286  0.00  0.00    +0.000 HD
ENDROOT
BRANCH   1  14
ATOM     13  N   UNL     1      -0.388  11.075  21.265  0.00  0.00    +0.000 N 
ATOM     14  C   UNL     1       0.657  10.164  21.500  0.00  0.00    +0.000 C 
ATOM     15  O   UNL     1       1.176  10.067  22.618  0.00  0.00    +0.000 OA
BRANCH  13  16
ATOM     16  C   UNL     1      -0.752  11.993  22.359  0.00  0.00    +0.000 C 
BRANCH  16  18
ATOM     17  C   UNL     1      -3.260  12.505  22.795  0.00  0.00    +0.000 C 
ATOM     18  C   UNL     1      -2.032  11.689  23.163  0.00  0.00    +0.000 C 
ENDBRANCH  16  18
ENDBRANCH  13  16
BRANCH  13  19
ATOM     19  C   UNL     1      -1.122  11.144  19.989  0.00  0.00    +0.000 C 
BRANCH  19  20
ATOM     20  C   UNL     1      -1.420  12.473  19.291  0.00  0.00    +0.000 C 
ATOM     21  C   UNL     1      -0.213  13.138  18.657  0.00  0.00    +0.000 C 
ENDBRANCH  19  20
ENDBRANCH  13  19
ENDBRANCH   1  14
BRANCH   7  22
ATOM     22  S   UNL     1       4.005   3.486  19.175  0.00  0.00    +0.000 S 
ATOM     23  O   UNL     1       3.577   3.105  20.511  0.00  0.00    +0.000 OA
ATOM     24  O   UNL     1       3.697   2.657  18.031  0.00  0.00    +0.000 OA
BRANCH  22  25
ATOM     25  N   UNL     1       5.668   3.722  19.162  0.00  0.00    +0.000 N 
ATOM     26  H   UNL     1       6.184   2.869  19.376  0.00  0.00    +0.000 HD
BRANCH  25  27
ATOM     27  C   UNL     1       6.256   4.616  18.227  0.00  0.00    +0.000 A 
ATOM     28  C   UNL     1       6.826   5.816  18.660  0.00  0.00    +0.000 A 
ATOM     29  C   UNL     1       7.445   6.673  17.738  0.00  0.00    +0.000 A 
ATOM     30  C   UNL     1       8.111   7.945  18.181  0.00  0.00    +0.000 C 
ATOM     31  C   UNL     1       7.457   6.323  16.380  0.00  0.00    +0.000 A 
ATOM     32  C   UNL     1       6.866   5.131  15.940  0.00  0.00    +0.000 A 
ATOM     33  C   UNL     1       6.883   4.746  14.490  0.00  0.00    +0.000 C 
ATOM     34  C   UNL     1       6.267   4.280  16.874  0.00  0.00    +0.000 A 
ENDBRANCH  25  27
ENDBRANCH  22  25
ENDBRANCH   7  22
TORSDOF 8
ENDMDL
MODEL 7
REMARK VINA RESULT:      -7.6      0.974      2.037
REMARK  Name = 
REMARK  12 active torsions:
REMARK  status: ('A' for Active; 'I' for Inactive)
REMARK    1  A    between atoms: C_1  and  C_2
REMARK    2  A    between atoms: C_2  and  C_3
REMARK    3  A    between atoms: C_3  and  N_4
REMARK    4  A    between atoms: N_4  and  C_5
REMARK    5  A    between atoms: C_5  and  C_6
REMARK    6  A    between atoms: C_6  and  C_7
REMARK    7  A    between atoms: C_8  and  C_10
REMARK    8  A    between atoms: C_16  and  S_17
REMARK    9  A    between atoms: S_17  and  N_20
REMARK   10  A    between atoms: N_20  and  C_21
REMARK   11  A    between atoms: C_23  and  C_24
REMARK   12  A    between atoms: C_26  and  C_27
REMARK                            x       y       z     vdW  Elec       q    Type
REMARK                         _______ _______ _______ _____ _____    ______ ____
ROOT
ATOM      1  C   UNL     1       1.612   9.329  19.223  0.00  0.00    +0.000 A 
ATOM      2  C   UNL     1       1.329   9.092  20.521  0.00  0.00    +0.000 A 
ATOM      3  N   UNL     1       1.526   7.897  21.185  0.00  0.00    +0.000 N 
ATOM      4  C   UNL     1       1.795   6.732  20.452  0.00  0.00    +0.000 A 
ATOM      5  C   UNL     1       1.792   5.463  21.033  0.00  0.00    +0.000 A 
ATOM      6  C   UNL     1       2.074   4.330  20.255  0.00  0.00    +0.000 A 
ATOM      7  C   UNL     1       2.378   4.466  18.894  0.00  0.00    +0.000 A 
ATOM      8  C   UNL     1       2.397   5.725  18.301  0.00  0.00    +0.000 A 
ATOM      9  C   UNL     1       2.142   6.844  19.098  0.00  0.00    +0.000 A 
ATOM     10  C   UNL     1       2.319   8.204  18.546  0.00  0.00    +0.000 A 
ATOM     11  O   UNL     1       3.056   8.347  17.581  0.00  0.00    +0.000 OA
ATOM     12  H   UNL     1       1.155   7.810  22.125  0.00  0.00    +0.000 HD
ENDROOT
BRANCH   1  14
ATOM     13  N   UNL     1       0.079  11.328  18.937  0.00  0.00    +0.000 N 
ATOM     14  C   UNL     1       1.293  10.681  18.653  0.00  0.00    +0.000 C 
ATOM     15  O   UNL     1       2.168  11.238  17.980  0.00  0.00    +0.000 OA
BRANCH  13  16
ATOM     16  C   UNL     1      -0.162  12.636  18.301  0.00  0.00    +0.000 C 
BRANCH  16  18
ATOM     17  C   UNL     1      -0.491  14.901  19.525  0.00  0.00    +0.000 C 
ATOM     18  C   UNL     1       0.475  13.883  18.944  0.00  0.00    +0.000 C 
ENDBRANCH  16  18
ENDBRANCH  13  16
BRANCH  13  19
ATOM     19  C   UNL     1      -0.943  10.761  19.834  0.00  0.00    +0.000 C 
BRANCH  19  20
ATOM     20  C   UNL     1      -1.492  11.533  21.037  0.00  0.00    +0.000 C 
ATOM     21  C   UNL     1      -0.436  12.004  22.019  0.00  0.00    +0.000 C 
ENDBRANCH  19  20
ENDBRANCH  13  19
ENDBRANCH   1  14
BRANCH   7  22
ATOM     22  S   UNL     1       2.691   3.019  17.899  0.00  0.00    +0.000 S 
ATOM     23  O   UNL     1       2.064   1.888  18.564  0.00  0.00    +0.000 OA
ATOM     24  O   UNL     1       2.349   3.362  16.536  0.00  0.00    +0.000 OA
BRANCH  22  25
ATOM     25  N   UNL     1       4.361   2.845  17.945  0.00  0.00    +0.000 N 
ATOM     26  H   UNL     1       4.648   1.872  18.039  0.00  0.00    +0.000 HD
BRANCH  25  27
ATOM     27  C   UNL     1       5.189   3.692  17.160  0.00  0.00    +0.000 A 
ATOM     28  C   UNL     1       5.384   3.429  15.802  0.00  0.00    +0.000 A 
ATOM     29  C   UNL     1       6.166   4.295  15.024  0.00  0.00    +0.000 A 
ATOM     30  C   UNL     1       6.352   4.066  13.550  0.00  0.00    +0.000 C 
ATOM     31  C   UNL     1       6.768   5.407  15.631  0.00  0.00    +0.000 A 
ATOM     32  C   UNL     1       6.592   5.661  16.998  0.00  0.00    +0.000 A 
ATOM     33  C   UNL     1       7.226   6.852  17.653  0.00  0.00    +0.000 C 
ATOM     34  C   UNL     1       5.797   4.796  17.757  0.00  0.00    +0.000 A 
ENDBRANCH  25  27
ENDBRANCH  22  25
ENDBRANCH   7  22
TORSDOF 8
ENDMDL
MODEL 8
REMARK VINA RESULT:      -7.6      2.882      8.675
REMARK  Name = 
REMARK  12 active torsions:
REMARK  status: ('A' for Active; 'I' for Inactive)
REMARK    1  A    between atoms: C_1  and  C_2
REMARK    2  A    between atoms: C_2  and  C_3
REMARK    3  A    between atoms: C_3  and  N_4
REMARK    4  A    between atoms: N_4  and  C_5
REMARK    5  A    between atoms: C_5  and  C_6
REMARK    6  A    between atoms: C_6  and  C_7
REMARK    7  A    between atoms: C_8  and  C_10
REMARK    8  A    between atoms: C_16  and  S_17
REMARK    9  A    between atoms: S_17  and  N_20
REMARK   10  A    between atoms: N_20  and  C_21
REMARK   11  A    between atoms: C_23  and  C_24
REMARK   12  A    between atoms: C_26  and  C_27
REMARK                            x       y       z     vdW  Elec       q    Type
REMARK                         _______ _______ _______ _____ _____    ______ ____
ROOT
ATOM      1  C   UNL     1       3.464   6.548  18.491  0.00  0.00    +0.000 A 
ATOM      2  C   UNL     1       3.062   5.871  19.586  0.00  0.00    +0.000 A 
ATOM      3  N   UNL     1       2.078   6.275  20.469  0.00  0.00    +0.000 N 
ATOM      4  C   UNL     1       1.606   7.594  20.425  0.00  0.00    +0.000 A 
ATOM      5  C   UNL     1       0.779   8.127  21.415  0.00  0.00    +0.000 A 
ATOM      6  C   UNL     1       0.328   9.453  21.319  0.00  0.00    +0.000 A 
ATOM      7  C   UNL     1       0.692  10.245  20.222  0.00  0.00    +0.000 A 
ATOM      8  C   UNL     1       1.506   9.725  19.220  0.00  0.00    +0.000 A 
ATOM      9  C   UNL     1       1.921   8.394  19.318  0.00  0.00    +0.000 A 
ATOM     10  C   UNL     1       2.643   7.758  18.196  0.00  0.00    +0.000 A 
ATOM     11  O   UNL     1       2.512   8.234  17.078  0.00  0.00    +0.000 OA
ATOM     12  H   UNL     1       1.957   5.739  21.321  0.00  0.00    +0.000 HD
ENDROOT
BRANCH   1  14
ATOM     13  N   UNL     1       4.471   4.715  17.057  0.00  0.00    +0.000 N 
ATOM     14  C   UNL     1       4.579   5.979  17.663  0.00  0.00    +0.000 C 
ATOM     15  O   UNL     1       5.572   6.691  17.474  0.00  0.00    +0.000 OA
BRANCH  13  16
ATOM     16  C   UNL     1       5.633   4.222  16.296  0.00  0.00    +0.000 C 
BRANCH  16  18
ATOM     17  C   UNL     1       6.779   4.588  13.996  0.00  0.00    +0.000 C 
ATOM     18  C   UNL     1       5.528   4.185  14.759  0.00  0.00    +0.000 C 
ENDBRANCH  16  18
ENDBRANCH  13  16
BRANCH  13  19
ATOM     19  C   UNL     1       3.260   3.881  17.150  0.00  0.00    +0.000 C 
BRANCH  19  20
ATOM     20  C   UNL     1       3.313   2.412  17.577  0.00  0.00    +0.000 C 
ATOM     21  C   UNL     1       3.715   2.188  19.022  0.00  0.00    +0.000 C 
ENDBRANCH  19  20
ENDBRANCH  13  19
ENDBRANCH   1  14
BRANCH   7  22
ATOM     22  S   UNL     1       0.155  11.943  20.127  0.00  0.00    +0.000 S 
ATOM     23  O   UNL     1      -1.299  11.942  20.135  0.00  0.00    +0.000 OA
ATOM     24  O   UNL     1       0.903  12.678  21.123  0.00  0.00    +0.000 OA
BRANCH  22  25
ATOM     25  N   UNL     1       0.710  12.465  18.630  0.00  0.00    +0.000 N 
ATOM     26  H   UNL     1       0.062  12.242  17.875  0.00  0.00    +0.000 HD
BRANCH  25  27
ATOM     27  C   UNL     1       1.436  13.681  18.522  0.00  0.00    +0.000 A 
ATOM     28  C   UNL     1       0.787  14.909  18.680  0.00  0.00    +0.000 A 
ATOM     29  C   UNL     1       1.518  16.104  18.617  0.00  0.00    +0.000 A 
ATOM     30  C   UNL     1       0.855  17.436  18.833  0.00  0.00    +0.000 C 
ATOM     31  C   UNL     1       2.897  16.050  18.369  0.00  0.00    +0.000 A 
ATOM     32  C   UNL     1       3.547  14.823  18.188  0.00  0.00    +0.000 A 
ATOM     33  C   UNL     1       5.023  14.757  17.929  0.00  0.00    +0.000 C 
ATOM     34  C   UNL     1       2.806  13.639  18.268  0.00  0.00    +0.000 A 
ENDBRANCH  25  27
ENDBRANCH  22  25
ENDBRANCH   7  22
TORSDOF 8
ENDMDL
MODEL 9
REMARK VINA RESULT:      -7.6      2.755      8.808
REMARK  Name = 
REMARK  12 active torsions:
REMARK  status: ('A' for Active; 'I' for Inactive)
REMARK    1  A    between atoms: C_1  and  C_2
REMARK    2  A    between atoms: C_2  and  C_3
REMARK    3  A    between atoms: C_3  and  N_4
REMARK    4  A    between atoms: N_4  and  C_5
REMARK    5  A    between atoms: C_5  and  C_6
REMARK    6  A    between atoms: C_6  and  C_7
REMARK    7  A    between atoms: C_8  and  C_10
REMARK    8  A    between atoms: C_16  and  S_17
REMARK    9  A    between atoms: S_17  and  N_20
REMARK   10  A    between atoms: N_20  and  C_21
REMARK   11  A    between atoms: C_23  and  C_24
REMARK   12  A    between atoms: C_26  and  C_27
REMARK                            x       y       z     vdW  Elec       q    Type
REMARK                         _______ _______ _______ _____ _____    ______ ____
ROOT
ATOM      1  C   UNL     1       3.299   6.802  18.489  0.00  0.00    +0.000 A 
ATOM      2  C   UNL     1       3.025   6.033  19.564  0.00  0.00    +0.000 A 
ATOM      3  N   UNL     1       2.102   6.325  20.550  0.00  0.00    +0.000 N 
ATOM      4  C   UNL     1       1.564   7.616  20.637  0.00  0.00    +0.000 A 
ATOM      5  C   UNL     1       0.799   8.037  21.726  0.00  0.00    +0.000 A 
ATOM      6  C   UNL     1       0.277   9.340  21.759  0.00  0.00    +0.000 A 
ATOM      7  C   UNL     1       0.506  10.220  20.694  0.00  0.00    +0.000 A 
ATOM      8  C   UNL     1       1.256   9.813  19.595  0.00  0.00    +0.000 A 
ATOM      9  C   UNL     1       1.743   8.503  19.566  0.00  0.00    +0.000 A 
ATOM     10  C   UNL     1       2.397   7.981  18.347  0.00  0.00    +0.000 A 
ATOM     11  O   UNL     1       2.148   8.521  17.279  0.00  0.00    +0.000 OA
ATOM     12  H   UNL     1       2.081   5.729  21.371  0.00  0.00    +0.000 HD
ENDROOT
BRANCH   1  14
ATOM     13  N   UNL     1       4.604   4.985  17.295  0.00  0.00    +0.000 N 
ATOM     14  C   UNL     1       4.366   6.349  17.535  0.00  0.00    +0.000 C 
ATOM     15  O   UNL     1       4.983   7.221  16.913  0.00  0.00    +0.000 OA
BRANCH  13  16
ATOM     16  C   UNL     1       5.699   4.636  16.372  0.00  0.00    +0.000 C 
BRANCH  16  18
ATOM     17  C   UNL     1       6.522   4.165  13.956  0.00  0.00    +0.000 C 
ATOM     18  C   UNL     1       5.347   4.385  14.893  0.00  0.00    +0.000 C 
ENDBRANCH  16  18
ENDBRANCH  13  16
BRANCH  13  19
ATOM     19  C   UNL     1       3.812   3.910  17.918  0.00  0.00    +0.000 C 
BRANCH  19  20
ATOM     20  C   UNL     1       2.547   3.346  17.265  0.00  0.00    +0.000 C 
ATOM     21  C   UNL     1       1.438   2.994  18.239  0.00  0.00    +0.000 C 
ENDBRANCH  19  20
ENDBRANCH  13  19
ENDBRANCH   1  14
BRANCH   7  22
ATOM     22  S   UNL     1      -0.120  11.889  20.762  0.00  0.00    +0.000 S 
ATOM     23  O   UNL     1      -1.346  11.863  21.543  0.00  0.00    +0.000 OA
ATOM     24  O   UNL     1       0.986  12.739  21.142  0.00  0.00    +0.000 OA
BRANCH  22  25
ATOM     25  N   UNL     1      -0.479  12.257  19.163  0.00  0.00    +0.000 N 
ATOM     26  H   UNL     1       0.346  12.244  18.565  0.00  0.00    +0.000 HD
BRANCH  25  27
ATOM     27  C   UNL     1      -1.703  11.820  18.587  0.00  0.00    +0.000 A 
ATOM     28  C   UNL     1      -1.700  11.048  17.422  0.00  0.00    +0.000 A 
ATOM     29  C   UNL     1      -2.909  10.582  16.885  0.00  0.00    +0.000 A 
ATOM     30  C   UNL     1      -2.934   9.708  15.663  0.00  0.00    +0.000 C 
ATOM     31  C   UNL     1      -4.114  10.923  17.516  0.00  0.00    +0.000 A 
ATOM     32  C   UNL     1      -4.122  11.715  18.671  0.00  0.00    +0.000 A 
ATOM     33  C   UNL     1      -5.407  12.077  19.355  0.00  0.00    +0.000 C 
ATOM     34  C   UNL     1      -2.907  12.159  19.203  0.00  0.00    +0.000 A 
ENDBRANCH  25  27
ENDBRANCH  22  25
ENDBRANCH   7  22
TORSDOF 8
ENDMDL
