MODEL 1
REMARK VINA RESULT:      -8.1      0.000      0.000
REMARK  Name = 
REMARK  7 active torsions:
REMARK  status: ('A' for Active; 'I' for Inactive)
REMARK    1  A    between atoms: C_2  and  C_3
REMARK    2  A    between atoms: C_3  and  O_4
REMARK    3  A    between atoms: O_4  and  C_5
REMARK    4  A    between atoms: C_8  and  C_9
REMARK    5  A    between atoms: N_10  and  N_11
REMARK    6  A    between atoms: C_12  and  C_14
REMARK    7  A    between atoms: N_22  and  C_23
REMARK                            x       y       z     vdW  Elec       q    Type
REMARK                         _______ _______ _______ _____ _____    ______ ____
ROOT
ATOM      1  C   UNL     1       5.814   4.814  18.256  0.00  0.00    +0.000 A 
ATOM      2  C   UNL     1       6.829   5.190  19.142  0.00  0.00    +0.000 A 
ATOM      3  C   UNL     1       7.600   6.323  18.891  0.00  0.00    +0.000 A 
ATOM      4  C   UNL     1       7.393   7.069  17.728  0.00  0.00    +0.000 A 
ATOM      5  C   UNL     1       6.431   6.661  16.800  0.00  0.00    +0.000 A 
ATOM      6  C   UNL     1       5.647   5.528  17.066  0.00  0.00    +0.000 A 
ENDROOT
BRANCH   4   7
ATOM      7  C   UNL     1       8.193   8.292  17.497  0.00  0.00    +0.000 C 
ATOM      8  N   UNL     1       8.251   9.207  18.409  0.00  0.00    +0.000 NA
BRANCH   8   9
ATOM      9  N   UNL     1       9.002  10.311  18.151  0.00  0.00    +0.000 N 
ATOM     10  C   UNL     1       9.610  10.959  19.218  0.00  0.00    +0.000 C 
ATOM     11  O   UNL     1       9.532  10.612  20.393  0.00  0.00    +0.000 OA
ATOM     12  H   UNL     1       9.192  10.565  17.190  0.00  0.00    +0.000 HD
BRANCH  10  13
ATOM     13  C   UNL     1      10.441  12.148  18.883  0.00  0.00    +0.000 A 
ATOM     14  C   UNL     1      10.518  13.269  19.710  0.00  0.00    +0.000 A 
ATOM     15  C   UNL     1      11.338  14.311  19.310  0.00  0.00    +0.000 A 
ATOM     16  N   UNL     1      12.065  14.301  18.173  0.00  0.00    +0.000 NA
ATOM     17  C   UNL     1      11.989  13.195  17.403  0.00  0.00    +0.000 A 
ATOM     18  C   UNL     1      11.202  12.103  17.712  0.00  0.00    +0.000 A 
ENDBRANCH  10  13
ENDBRANCH   8   9
ENDBRANCH   4   7
BRANCH   1  19
ATOM     19  O   UNL     1       4.927   3.788  18.483  0.00  0.00    +0.000 OA
BRANCH  19  20
ATOM     20  C   UNL     1       4.034   4.047  19.563  0.00  0.00    +0.000 C 
BRANCH  20  22
ATOM     21  O   UNL     1       1.922   4.718  18.690  0.00  0.00    +0.000 OA
ATOM     22  C   UNL     1       2.929   5.067  19.306  0.00  0.00    +0.000 C 
ATOM     23  N   UNL     1       3.161   6.324  19.816  0.00  0.00    +0.000 N 
ATOM     24  H   UNL     1       4.116   6.547  20.080  0.00  0.00    +0.000 HD
BRANCH  23  25
ATOM     25  C   UNL     1       2.205   7.369  19.914  0.00  0.00    +0.000 A 
ATOM     26  C   UNL     1       1.397   7.524  21.046  0.00  0.00    +0.000 A 
ATOM     27  C   UNL     1       0.503   8.593  21.152  0.00  0.00    +0.000 A 
ATOM     28  C   UNL     1       0.411   9.529  20.127  0.00  0.00    +0.000 A 
ATOM     29  C   UNL     1       1.203   9.388  18.988  0.00  0.00    +0.000 A 
ATOM     30  C   UNL     1       2.095   8.313  18.880  0.00  0.00    +0.000 A 
ATOM     31 CL   UNL     1       3.015   8.158  17.424  0.00  0.00    +0.000 Cl
ENDBRANCH  23  25
ENDBRANCH  20  22
ENDBRANCH  19  20
ENDBRANCH   1  19
TORSDOF 7
ENDMDL
MODEL 2
REMARK VINA RESULT:      -7.9      2.822      3.454
REMARK  Name = 
REMARK  7 active torsions:
REMARK  status: ('A' for Active; 'I' for Inactive)
REMARK    1  A    between atoms: C_2  and  C_3
REMARK    2  A    between atoms: C_3  and  O_4
REMARK    3  A    between atoms: O_4  and  C_5
REMARK    4  A    between atoms: C_8  and  C_9
REMARK    5  A    between atoms: N_10  and  N_11
REMARK    6  A    between atoms: C_12  and  C_14
REMARK    7  A    between atoms: N_22  and  C_23
REMARK                            x       y       z     vdW  Elec       q    Type
REMARK                         _______ _______ _______ _____ _____    ______ ____
ROOT
ATOM      1  C   UNL     1       6.710   5.173  17.257  0.00  0.00    +0.000 A 
ATOM      2  C   UNL     1       6.473   6.367  16.568  0.00  0.00    +0.000 A 
ATOM      3  C   UNL     1       7.087   7.549  16.976  0.00  0.00    +0.000 A 
ATOM      4  C   UNL     1       7.911   7.559  18.104  0.00  0.00    +0.000 A 
ATOM      5  C   UNL     1       8.097   6.388  18.842  0.00  0.00    +0.000 A 
ATOM      6  C   UNL     1       7.489   5.196  18.418  0.00  0.00    +0.000 A 
ENDROOT
BRANCH   4   7
ATOM      7  C   UNL     1       8.588   8.814  18.499  0.00  0.00    +0.000 C 
ATOM      8  N   UNL     1       8.325   9.914  17.871  0.00  0.00    +0.000 NA
BRANCH   8   9
ATOM      9  N   UNL     1       8.970  11.042  18.274  0.00  0.00    +0.000 N 
ATOM     10  C   UNL     1       8.564  12.259  17.742  0.00  0.00    +0.000 C 
ATOM     11  O   UNL     1       7.654  12.408  16.931  0.00  0.00    +0.000 OA
ATOM     12  H   UNL     1       9.644  10.983  19.027  0.00  0.00    +0.000 HD
BRANCH  10  13
ATOM     13  C   UNL     1       9.284  13.467  18.231  0.00  0.00    +0.000 A 
ATOM     14  C   UNL     1       8.915  14.143  19.393  0.00  0.00    +0.000 A 
ATOM     15  C   UNL     1       9.669  15.245  19.767  0.00  0.00    +0.000 A 
ATOM     16  N   UNL     1      10.735  15.696  19.073  0.00  0.00    +0.000 NA
ATOM     17  C   UNL     1      11.083  15.009  17.964  0.00  0.00    +0.000 A 
ATOM     18  C   UNL     1      10.398  13.900  17.508  0.00  0.00    +0.000 A 
ENDBRANCH  10  13
ENDBRANCH   8   9
ENDBRANCH   4   7
BRANCH   1  19
ATOM     19  O   UNL     1       6.248   3.941  16.855  0.00  0.00    +0.000 OA
BRANCH  19  20
ATOM     20  C   UNL     1       4.977   3.999  16.216  0.00  0.00    +0.000 C 
BRANCH  20  22
ATOM     21  O   UNL     1       2.755   3.238  16.610  0.00  0.00    +0.000 OA
ATOM     22  C   UNL     1       3.756   3.761  17.099  0.00  0.00    +0.000 C 
ATOM     23  N   UNL     1       3.897   4.151  18.412  0.00  0.00    +0.000 N 
ATOM     24  H   UNL     1       4.663   4.782  18.627  0.00  0.00    +0.000 HD
BRANCH  23  25
ATOM     25  C   UNL     1       3.009   3.830  19.472  0.00  0.00    +0.000 A 
ATOM     26  C   UNL     1       1.788   4.496  19.636  0.00  0.00    +0.000 A 
ATOM     27  C   UNL     1       0.899   4.127  20.649  0.00  0.00    +0.000 A 
ATOM     28  C   UNL     1       1.215   3.080  21.509  0.00  0.00    +0.000 A 
ATOM     29  C   UNL     1       2.428   2.410  21.365  0.00  0.00    +0.000 A 
ATOM     30  C   UNL     1       3.322   2.783  20.353  0.00  0.00    +0.000 A 
ATOM     31 CL   UNL     1       4.836   1.951  20.253  0.00  0.00    +0.000 Cl
ENDBRANCH  23  25
ENDBRANCH  20  22
ENDBRANCH  19  20
ENDBRANCH   1  19
TORSDOF 7
ENDMDL
MODEL 3
REMARK VINA RESULT:      -7.6      2.723      3.385
REMARK  Name = 
REMARK  7 active torsions:
REMARK  status: ('A' for Active; 'I' for Inactive)
REMARK    1  A    between atoms: C_2  and  C_3
REMARK    2  A    between atoms: C_3  and  O_4
REMARK    3  A    between atoms: O_4  and  C_5
REMARK    4  A    between atoms: C_8  and  C_9
REMARK    5  A    between atoms: N_10  and  N_11
REMARK    6  A    between atoms: C_12  and  C_14
REMARK    7  A    between atoms: N_22  and  C_23
REMARK                            x       y       z     vdW  Elec       q    Type
REMARK                         _______ _______ _______ _____ _____    ______ ____
ROOT
ATOM      1  C   UNL     1       7.462   5.619  17.976  0.00  0.00    +0.000 A 
ATOM      2  C   UNL     1       8.188   6.199  19.021  0.00  0.00    +0.000 A 
ATOM      3  C   UNL     1       8.436   7.570  19.032  0.00  0.00    +0.000 A 
ATOM      4  C   UNL     1       7.996   8.371  17.975  0.00  0.00    +0.000 A 
ATOM      5  C   UNL     1       7.332   7.791  16.891  0.00  0.00    +0.000 A 
ATOM      6  C   UNL     1       7.072   6.412  16.892  0.00  0.00    +0.000 A 
ENDROOT
BRANCH   4   7
ATOM      7  C   UNL     1       8.230   9.830  18.022  0.00  0.00    +0.000 C 
ATOM      8  N   UNL     1       9.431  10.287  18.170  0.00  0.00    +0.000 NA
BRANCH   8   9
ATOM      9  N   UNL     1       9.596  11.637  18.204  0.00  0.00    +0.000 N 
ATOM     10  C   UNL     1      10.889  12.142  18.242  0.00  0.00    +0.000 C 
ATOM     11  O   UNL     1      11.913  11.465  18.242  0.00  0.00    +0.000 OA
ATOM     12  H   UNL     1       8.789  12.235  18.085  0.00  0.00    +0.000 HD
BRANCH  10  13
ATOM     13  C   UNL     1      11.019  13.625  18.254  0.00  0.00    +0.000 A 
ATOM     14  C   UNL     1      10.988  14.373  19.431  0.00  0.00    +0.000 A 
ATOM     15  C   UNL     1      11.138  15.747  19.327  0.00  0.00    +0.000 A 
ATOM     16  N   UNL     1      11.315  16.397  18.158  0.00  0.00    +0.000 NA
ATOM     17  C   UNL     1      11.364  15.646  17.037  0.00  0.00    +0.000 A 
ATOM     18  C   UNL     1      11.225  14.272  17.033  0.00  0.00    +0.000 A 
ENDBRANCH  10  13
ENDBRANCH   8   9
ENDBRANCH   4   7
BRANCH   1  19
ATOM     19  O   UNL     1       7.066   4.302  17.944  0.00  0.00    +0.000 OA
BRANCH  19  20
ATOM     20  C   UNL     1       6.016   4.054  17.013  0.00  0.00    +0.000 C 
BRANCH  20  22
ATOM     21  O   UNL     1       3.706   3.496  16.859  0.00  0.00    +0.000 OA
ATOM     22  C   UNL     1       4.616   3.880  17.594  0.00  0.00    +0.000 C 
ATOM     23  N   UNL     1       4.498   4.162  18.935  0.00  0.00    +0.000 N 
ATOM     24  H   UNL     1       5.249   4.696  19.364  0.00  0.00    +0.000 HD
BRANCH  23  25
ATOM     25  C   UNL     1       3.376   3.860  19.751  0.00  0.00    +0.000 A 
ATOM     26  C   UNL     1       2.217   4.645  19.727  0.00  0.00    +0.000 A 
ATOM     27  C   UNL     1       1.098   4.299  20.491  0.00  0.00    +0.000 A 
ATOM     28  C   UNL     1       1.121   3.158  21.285  0.00  0.00    +0.000 A 
ATOM     29  C   UNL     1       2.269   2.368  21.327  0.00  0.00    +0.000 A 
ATOM     30  C   UNL     1       3.392   2.717  20.566  0.00  0.00    +0.000 A 
ATOM     31 CL   UNL     1       4.806   1.730  20.696  0.00  0.00    +0.000 Cl
ENDBRANCH  23  25
ENDBRANCH  20  22
ENDBRANCH  19  20
ENDBRANCH   1  19
TORSDOF 7
ENDMDL
MODEL 4
REMARK VINA RESULT:      -7.6      2.373      3.198
REMARK  Name = 
REMARK  7 active torsions:
REMARK  status: ('A' for Active; 'I' for Inactive)
REMARK    1  A    between atoms: C_2  and  C_3
REMARK    2  A    between atoms: C_3  and  O_4
REMARK    3  A    between atoms: O_4  and  C_5
REMARK    4  A    between atoms: C_8  and  C_9
REMARK    5  A    between atoms: N_10  and  N_11
REMARK    6  A    between atoms: C_12  and  C_14
REMARK    7  A    between atoms: N_22  and  C_23
REMARK                            x       y       z     vdW  Elec       q    Type
REMARK                         _______ _______ _______ _____ _____    ______ ____
ROOT
ATOM      1  C   UNL     1       7.537   5.610  18.007  0.00  0.00    +0.000 A 
ATOM      2  C   UNL     1       8.205   6.217  19.075  0.00  0.00    +0.000 A 
ATOM      3  C   UNL     1       8.433   7.592  19.074  0.00  0.00    +0.000 A 
ATOM      4  C   UNL     1       8.035   8.368  17.983  0.00  0.00    +0.000 A 
ATOM      5  C   UNL     1       7.432   7.761  16.879  0.00  0.00    +0.000 A 
ATOM      6  C   UNL     1       7.190   6.379  16.892  0.00  0.00    +0.000 A 
ENDROOT
BRANCH   4   7
ATOM      7  C   UNL     1       8.248   9.832  18.016  0.00  0.00    +0.000 C 
ATOM      8  N   UNL     1       9.265  10.322  18.645  0.00  0.00    +0.000 NA
BRANCH   8   9
ATOM      9  N   UNL     1       9.420  11.673  18.644  0.00  0.00    +0.000 N 
ATOM     10  C   UNL     1      10.513  12.211  17.976  0.00  0.00    +0.000 C 
ATOM     11  O   UNL     1      11.362  11.562  17.372  0.00  0.00    +0.000 OA
ATOM     12  H   UNL     1       8.684  12.254  19.024  0.00  0.00    +0.000 HD
BRANCH  10  13
ATOM     13  C   UNL     1      10.626  13.695  17.982  0.00  0.00    +0.000 A 
ATOM     14  C   UNL     1      11.305  14.402  16.990  0.00  0.00    +0.000 A 
ATOM     15  C   UNL     1      11.330  15.785  17.084  0.00  0.00    +0.000 A 
ATOM     16  N   UNL     1      10.736  16.481  18.076  0.00  0.00    +0.000 NA
ATOM     17  C   UNL     1      10.066  15.772  19.010  0.00  0.00    +0.000 A 
ATOM     18  C   UNL     1       9.982  14.395  19.006  0.00  0.00    +0.000 A 
ENDBRANCH  10  13
ENDBRANCH   8   9
ENDBRANCH   4   7
BRANCH   1  19
ATOM     19  O   UNL     1       7.160   4.287  17.979  0.00  0.00    +0.000 OA
BRANCH  19  20
ATOM     20  C   UNL     1       6.177   4.005  16.988  0.00  0.00    +0.000 C 
BRANCH  20  22
ATOM     21  O   UNL     1       3.826   3.906  16.616  0.00  0.00    +0.000 OA
ATOM     22  C   UNL     1       4.724   3.983  17.455  0.00  0.00    +0.000 C 
ATOM     23  N   UNL     1       4.545   4.039  18.818  0.00  0.00    +0.000 N 
ATOM     24  H   UNL     1       5.337   4.346  19.377  0.00  0.00    +0.000 HD
BRANCH  23  25
ATOM     25  C   UNL     1       3.325   3.803  19.505  0.00  0.00    +0.000 A 
ATOM     26  C   UNL     1       2.953   2.521  19.924  0.00  0.00    +0.000 A 
ATOM     27  C   UNL     1       1.778   2.315  20.652  0.00  0.00    +0.000 A 
ATOM     28  C   UNL     1       0.961   3.392  20.978  0.00  0.00    +0.000 A 
ATOM     29  C   UNL     1       1.311   4.676  20.563  0.00  0.00    +0.000 A 
ATOM     30  C   UNL     1       2.487   4.882  19.830  0.00  0.00    +0.000 A 
ATOM     31 CL   UNL     1       2.846   6.488  19.297  0.00  0.00    +0.000 Cl
ENDBRANCH  23  25
ENDBRANCH  20  22
ENDBRANCH  19  20
ENDBRANCH   1  19
TORSDOF 7
ENDMDL
MODEL 5
REMARK VINA RESULT:      -7.5      2.958      3.509
REMARK  Name = 
REMARK  7 active torsions:
REMARK  status: ('A' for Active; 'I' for Inactive)
REMARK    1  A    between atoms: C_2  and  C_3
REMARK    2  A    between atoms: C_3  and  O_4
REMARK    3  A    between atoms: O_4  and  C_5
REMARK    4  A    between atoms: C_8  and  C_9
REMARK    5  A    between atoms: N_10  and  N_11
REMARK    6  A    between atoms: C_12  and  C_14
REMARK    7  A    between atoms: N_22  and  C_23
REMARK                            x       y       z     vdW  Elec       q    Type
REMARK                         _______ _______ _______ _____ _____    ______ ____
ROOT
ATOM      1  C   UNL     1       7.134   5.192  17.081  0.00  0.00    +0.000 A 
ATOM      2  C   UNL     1       7.645   5.179  18.382  0.00  0.00    +0.000 A 
ATOM      3  C   UNL     1       8.068   6.363  18.985  0.00  0.00    +0.000 A 
ATOM      4  C   UNL     1       8.025   7.565  18.276  0.00  0.00    +0.000 A 
ATOM      5  C   UNL     1       7.583   7.578  16.950  0.00  0.00    +0.000 A 
ATOM      6  C   UNL     1       7.144   6.386  16.354  0.00  0.00    +0.000 A 
ENDROOT
BRANCH   4   7
ATOM      7  C   UNL     1       8.439   8.818  18.945  0.00  0.00    +0.000 C 
ATOM      8  N   UNL     1       8.800   9.839  18.238  0.00  0.00    +0.000 NA
BRANCH   8   9
ATOM      9  N   UNL     1       9.169  10.969  18.898  0.00  0.00    +0.000 N 
ATOM     10  C   UNL     1      10.205  11.732  18.374  0.00  0.00    +0.000 C 
ATOM     11  O   UNL     1      10.822  11.472  17.345  0.00  0.00    +0.000 OA
ATOM     12  H   UNL     1       8.612  11.286  19.682  0.00  0.00    +0.000 HD
BRANCH  10  13
ATOM     13  C   UNL     1      10.556  12.971  19.120  0.00  0.00    +0.000 A 
ATOM     14  C   UNL     1      11.186  14.059  18.516  0.00  0.00    +0.000 A 
ATOM     15  C   UNL     1      11.448  15.171  19.300  0.00  0.00    +0.000 A 
ATOM     16  N   UNL     1      11.126  15.260  20.608  0.00  0.00    +0.000 NA
ATOM     17  C   UNL     1      10.496  14.201  21.161  0.00  0.00    +0.000 A 
ATOM     18  C   UNL     1      10.190  13.048  20.466  0.00  0.00    +0.000 A 
ENDBRANCH  10  13
ENDBRANCH   8   9
ENDBRANCH   4   7
BRANCH   1  19
ATOM     19  O   UNL     1       6.581   4.100  16.454  0.00  0.00    +0.000 OA
BRANCH  19  20
ATOM     20  C   UNL     1       5.182   4.234  16.220  0.00  0.00    +0.000 C 
BRANCH  20  22
ATOM     21  O   UNL     1       3.929   5.643  17.676  0.00  0.00    +0.000 OA
ATOM     22  C   UNL     1       4.308   4.495  17.443  0.00  0.00    +0.000 C 
ATOM     23  N   UNL     1       4.000   3.383  18.193  0.00  0.00    +0.000 N 
ATOM     24  H   UNL     1       4.565   2.552  18.042  0.00  0.00    +0.000 HD
BRANCH  23  25
ATOM     25  C   UNL     1       3.029   3.322  19.227  0.00  0.00    +0.000 A 
ATOM     26  C   UNL     1       1.764   3.902  19.084  0.00  0.00    +0.000 A 
ATOM     27  C   UNL     1       0.799   3.781  20.087  0.00  0.00    +0.000 A 
ATOM     28  C   UNL     1       1.085   3.070  21.248  0.00  0.00    +0.000 A 
ATOM     29  C   UNL     1       2.342   2.491  21.412  0.00  0.00    +0.000 A 
ATOM     30  C   UNL     1       3.311   2.617  20.408  0.00  0.00    +0.000 A 
ATOM     31 CL   UNL     1       4.870   1.922  20.687  0.00  0.00    +0.000 Cl
ENDBRANCH  23  25
ENDBRANCH  20  22
ENDBRANCH  19  20
ENDBRANCH   1  19
TORSDOF 7
ENDMDL
MODEL 6
REMARK VINA RESULT:      -7.5      0.977      1.323
REMARK  Name = 
REMARK  7 active torsions:
REMARK  status: ('A' for Active; 'I' for Inactive)
REMARK    1  A    between atoms: C_2  and  C_3
REMARK    2  A    between atoms: C_3  and  O_4
REMARK    3  A    between atoms: O_4  and  C_5
REMARK    4  A    between atoms: C_8  and  C_9
REMARK    5  A    between atoms: N_10  and  N_11
REMARK    6  A    between atoms: C_12  and  C_14
REMARK    7  A    between atoms: N_22  and  C_23
REMARK                            x       y       z     vdW  Elec       q    Type
REMARK                         _______ _______ _______ _____ _____    ______ ____
ROOT
ATOM      1  C   UNL     1       5.675   5.221  18.008  0.00  0.00    +0.000 A 
ATOM      2  C   UNL     1       5.526   6.151  16.975  0.00  0.00    +0.000 A 
ATOM      3  C   UNL     1       6.400   7.231  16.868  0.00  0.00    +0.000 A 
ATOM      4  C   UNL     1       7.406   7.416  17.819  0.00  0.00    +0.000 A 
ATOM      5  C   UNL     1       7.518   6.533  18.896  0.00  0.00    +0.000 A 
ATOM      6  C   UNL     1       6.646   5.438  18.990  0.00  0.00    +0.000 A 
ENDROOT
BRANCH   4   7
ATOM      7  C   UNL     1       8.351   8.544  17.667  0.00  0.00    +0.000 C 
ATOM      8  N   UNL     1       8.626   9.297  18.682  0.00  0.00    +0.000 NA
BRANCH   8   9
ATOM      9  N   UNL     1       9.503  10.319  18.493  0.00  0.00    +0.000 N 
ATOM     10  C   UNL     1       9.036  11.490  17.909  0.00  0.00    +0.000 C 
ATOM     11  O   UNL     1       7.880  11.687  17.548  0.00  0.00    +0.000 OA
ATOM     12  H   UNL     1      10.435  10.248  18.882  0.00  0.00    +0.000 HD
BRANCH  10  13
ATOM     13  C   UNL     1      10.028  12.588  17.746  0.00  0.00    +0.000 A 
ATOM     14  C   UNL     1       9.686  13.935  17.864  0.00  0.00    +0.000 A 
ATOM     15  C   UNL     1      10.694  14.873  17.712  0.00  0.00    +0.000 A 
ATOM     16  N   UNL     1      11.982  14.559  17.461  0.00  0.00    +0.000 NA
ATOM     17  C   UNL     1      12.289  13.246  17.374  0.00  0.00    +0.000 A 
ATOM     18  C   UNL     1      11.359  12.235  17.509  0.00  0.00    +0.000 A 
ENDBRANCH  10  13
ENDBRANCH   8   9
ENDBRANCH   4   7
BRANCH   1  19
ATOM     19  O   UNL     1       4.940   4.063  18.121  0.00  0.00    +0.000 OA
BRANCH  19  20
ATOM     20  C   UNL     1       3.968   4.114  19.161  0.00  0.00    +0.000 C 
BRANCH  20  22
ATOM     21  O   UNL     1       1.903   4.934  18.304  0.00  0.00    +0.000 OA
ATOM     22  C   UNL     1       2.875   5.168  19.023  0.00  0.00    +0.000 C 
ATOM     23  N   UNL     1       3.073   6.319  19.751  0.00  0.00    +0.000 N 
ATOM     24  H   UNL     1       4.013   6.489  20.100  0.00  0.00    +0.000 HD
BRANCH  23  25
ATOM     25  C   UNL     1       2.109   7.337  19.973  0.00  0.00    +0.000 A 
ATOM     26  C   UNL     1       1.342   7.381  21.143  0.00  0.00    +0.000 A 
ATOM     27  C   UNL     1       0.440   8.424  21.374  0.00  0.00    +0.000 A 
ATOM     28  C   UNL     1       0.299   9.443  20.438  0.00  0.00    +0.000 A 
ATOM     29  C   UNL     1       1.049   9.413  19.264  0.00  0.00    +0.000 A 
ATOM     30  C   UNL     1       1.949   8.365  19.031  0.00  0.00    +0.000 A 
ATOM     31 CL   UNL     1       2.817   8.352  17.535  0.00  0.00    +0.000 Cl
ENDBRANCH  23  25
ENDBRANCH  20  22
ENDBRANCH  19  20
ENDBRANCH   1  19
TORSDOF 7
ENDMDL
MODEL 7
REMARK VINA RESULT:      -7.4      1.091      1.101
REMARK  Name = 
REMARK  7 active torsions:
REMARK  status: ('A' for Active; 'I' for Inactive)
REMARK    1  A    between atoms: C_2  and  C_3
REMARK    2  A    between atoms: C_3  and  O_4
REMARK    3  A    between atoms: O_4  and  C_5
REMARK    4  A    between atoms: C_8  and  C_9
REMARK    5  A    between atoms: N_10  and  N_11
REMARK    6  A    between atoms: C_12  and  C_14
REMARK    7  A    between atoms: N_22  and  C_23
REMARK                            x       y       z     vdW  Elec       q    Type
REMARK                         _______ _______ _______ _____ _____    ______ ____
ROOT
ATOM      1  C   UNL     1       5.866   5.459  18.060  0.00  0.00    +0.000 A 
ATOM      2  C   UNL     1       7.039   5.490  18.821  0.00  0.00    +0.000 A 
ATOM      3  C   UNL     1       7.900   6.583  18.744  0.00  0.00    +0.000 A 
ATOM      4  C   UNL     1       7.619   7.638  17.873  0.00  0.00    +0.000 A 
ATOM      5  C   UNL     1       6.488   7.583  17.054  0.00  0.00    +0.000 A 
ATOM      6  C   UNL     1       5.616   6.488  17.147  0.00  0.00    +0.000 A 
ENDROOT
BRANCH   4   7
ATOM      7  C   UNL     1       8.522   8.809  17.834  0.00  0.00    +0.000 C 
ATOM      8  N   UNL     1       8.857   9.403  18.933  0.00  0.00    +0.000 NA
BRANCH   8   9
ATOM      9  N   UNL     1       9.692  10.472  18.846  0.00  0.00    +0.000 N 
ATOM     10  C   UNL     1       9.235  11.616  18.205  0.00  0.00    +0.000 C 
ATOM     11  O   UNL     1       8.121  11.749  17.706  0.00  0.00    +0.000 OA
ATOM     12  H   UNL     1      10.573  10.452  19.344  0.00  0.00    +0.000 HD
BRANCH  10  13
ATOM     13  C   UNL     1      10.176  12.768  18.156  0.00  0.00    +0.000 A 
ATOM     14  C   UNL     1       9.824  14.005  17.617  0.00  0.00    +0.000 A 
ATOM     15  C   UNL     1      10.773  15.015  17.642  0.00  0.00    +0.000 A 
ATOM     16  N   UNL     1      12.012  14.869  18.158  0.00  0.00    +0.000 NA
ATOM     17  C   UNL     1      12.318  13.667  18.693  0.00  0.00    +0.000 A 
ATOM     18  C   UNL     1      11.444  12.599  18.717  0.00  0.00    +0.000 A 
ENDBRANCH  10  13
ENDBRANCH   8   9
ENDBRANCH   4   7
BRANCH   1  19
ATOM     19  O   UNL     1       4.901   4.485  18.162  0.00  0.00    +0.000 OA
BRANCH  19  20
ATOM     20  C   UNL     1       4.077   4.629  19.316  0.00  0.00    +0.000 C 
BRANCH  20  22
ATOM     21  O   UNL     1       1.897   5.176  18.529  0.00  0.00    +0.000 OA
ATOM     22  C   UNL     1       2.870   5.553  19.182  0.00  0.00    +0.000 C 
ATOM     23  N   UNL     1       2.978   6.758  19.838  0.00  0.00    +0.000 N 
ATOM     24  H   UNL     1       3.909   7.046  20.126  0.00  0.00    +0.000 HD
BRANCH  23  25
ATOM     25  C   UNL     1       1.921   7.679  20.059  0.00  0.00    +0.000 A 
ATOM     26  C   UNL     1       1.150   7.649  21.227  0.00  0.00    +0.000 A 
ATOM     27  C   UNL     1       0.153   8.601  21.456  0.00  0.00    +0.000 A 
ATOM     28  C   UNL     1      -0.083   9.603  20.521  0.00  0.00    +0.000 A 
ATOM     29  C   UNL     1       0.669   9.645  19.348  0.00  0.00    +0.000 A 
ATOM     30  C   UNL     1       1.666   8.688  19.117  0.00  0.00    +0.000 A 
ATOM     31 CL   UNL     1       2.533   8.758  17.622  0.00  0.00    +0.000 Cl
ENDBRANCH  23  25
ENDBRANCH  20  22
ENDBRANCH  19  20
ENDBRANCH   1  19
TORSDOF 7
ENDMDL
MODEL 8
REMARK VINA RESULT:      -7.4      3.101      3.717
REMARK  Name = 
REMARK  7 active torsions:
REMARK  status: ('A' for Active; 'I' for Inactive)
REMARK    1  A    between atoms: C_2  and  C_3
REMARK    2  A    between atoms: C_3  and  O_4
REMARK    3  A    between atoms: O_4  and  C_5
REMARK    4  A    between atoms: C_8  and  C_9
REMARK    5  A    between atoms: N_10  and  N_11
REMARK    6  A    between atoms: C_12  and  C_14
REMARK    7  A    between atoms: N_22  and  C_23
REMARK                            x       y       z     vdW  Elec       q    Type
REMARK                         _______ _______ _______ _____ _____    ______ ____
ROOT
ATOM      1  C   UNL     1       7.154   5.473  17.213  0.00  0.00    +0.000 A 
ATOM      2  C   UNL     1       7.000   6.678  16.519  0.00  0.00    +0.000 A 
ATOM      3  C   UNL     1       7.526   7.860  17.037  0.00  0.00    +0.000 A 
ATOM      4  C   UNL     1       8.173   7.858  18.274  0.00  0.00    +0.000 A 
ATOM      5  C   UNL     1       8.269   6.673  19.009  0.00  0.00    +0.000 A 
ATOM      6  C   UNL     1       7.752   5.482  18.476  0.00  0.00    +0.000 A 
ENDROOT
BRANCH   4   7
ATOM      7  C   UNL     1       8.761   9.114  18.789  0.00  0.00    +0.000 C 
ATOM      8  N   UNL     1       8.663  10.203  18.099  0.00  0.00    +0.000 NA
BRANCH   8   9
ATOM      9  N   UNL     1       9.217  11.333  18.617  0.00  0.00    +0.000 N 
ATOM     10  C   UNL     1       8.832  12.558  18.087  0.00  0.00    +0.000 C 
ATOM     11  O   UNL     1       8.018  12.712  17.181  0.00  0.00    +0.000 OA
ATOM     12  H   UNL     1       9.800  11.264  19.441  0.00  0.00    +0.000 HD
BRANCH  10  13
ATOM     13  C   UNL     1       9.447  13.766  18.702  0.00  0.00    +0.000 A 
ATOM     14  C   UNL     1       9.107  15.062  18.316  0.00  0.00    +0.000 A 
ATOM     15  C   UNL     1       9.727  16.115  18.970  0.00  0.00    +0.000 A 
ATOM     16  N   UNL     1      10.634  15.956  19.957  0.00  0.00    +0.000 NA
ATOM     17  C   UNL     1      10.928  14.691  20.326  0.00  0.00    +0.000 A 
ATOM     18  C   UNL     1      10.366  13.576  19.738  0.00  0.00    +0.000 A 
ENDBRANCH  10  13
ENDBRANCH   8   9
ENDBRANCH   4   7
BRANCH   1  19
ATOM     19  O   UNL     1       6.779   4.243  16.723  0.00  0.00    +0.000 OA
BRANCH  19  20
ATOM     20  C   UNL     1       5.381   4.141  16.472  0.00  0.00    +0.000 C 
BRANCH  20  22
ATOM     21  O   UNL     1       4.077   5.560  17.872  0.00  0.00    +0.000 OA
ATOM     22  C   UNL     1       4.454   4.408  17.654  0.00  0.00    +0.000 C 
ATOM     23  N   UNL     1       4.099   3.297  18.384  0.00  0.00    +0.000 N 
ATOM     24  H   UNL     1       4.662   2.461  18.257  0.00  0.00    +0.000 HD
BRANCH  23  25
ATOM     25  C   UNL     1       3.081   3.244  19.373  0.00  0.00    +0.000 A 
ATOM     26  C   UNL     1       1.834   3.849  19.177  0.00  0.00    +0.000 A 
ATOM     27  C   UNL     1       0.822   3.735  20.134  0.00  0.00    +0.000 A 
ATOM     28  C   UNL     1       1.042   3.008  21.299  0.00  0.00    +0.000 A 
ATOM     29  C   UNL     1       2.279   2.404  21.515  0.00  0.00    +0.000 A 
ATOM     30  C   UNL     1       3.295   2.522  20.558  0.00  0.00    +0.000 A 
ATOM     31 CL   UNL     1       4.828   1.796  20.900  0.00  0.00    +0.000 Cl
ENDBRANCH  23  25
ENDBRANCH  20  22
ENDBRANCH  19  20
ENDBRANCH   1  19
TORSDOF 7
ENDMDL
MODEL 9
REMARK VINA RESULT:      -7.3      2.790      3.637
REMARK  Name = 
REMARK  7 active torsions:
REMARK  status: ('A' for Active; 'I' for Inactive)
REMARK    1  A    between atoms: C_2  and  C_3
REMARK    2  A    between atoms: C_3  and  O_4
REMARK    3  A    between atoms: O_4  and  C_5
REMARK    4  A    between atoms: C_8  and  C_9
REMARK    5  A    between atoms: N_10  and  N_11
REMARK    6  A    between atoms: C_12  and  C_14
REMARK    7  A    between atoms: N_22  and  C_23
REMARK                            x       y       z     vdW  Elec       q    Type
REMARK                         _______ _______ _______ _____ _____    ______ ____
ROOT
ATOM      1  C   UNL     1       7.550   5.606  17.671  0.00  0.00    +0.000 A 
ATOM      2  C   UNL     1       7.279   6.666  16.802  0.00  0.00    +0.000 A 
ATOM      3  C   UNL     1       7.641   7.968  17.144  0.00  0.00    +0.000 A 
ATOM      4  C   UNL     1       8.240   8.228  18.379  0.00  0.00    +0.000 A 
ATOM      5  C   UNL     1       8.449   7.186  19.285  0.00  0.00    +0.000 A 
ATOM      6  C   UNL     1       8.097   5.875  18.929  0.00  0.00    +0.000 A 
ENDROOT
BRANCH   4   7
ATOM      7  C   UNL     1       8.655   9.609  18.709  0.00  0.00    +0.000 C 
ATOM      8  N   UNL     1       9.205  10.351  17.804  0.00  0.00    +0.000 NA
BRANCH   8   9
ATOM      9  N   UNL     1       9.566  11.615  18.155  0.00  0.00    +0.000 N 
ATOM     10  C   UNL     1       8.740  12.666  17.776  0.00  0.00    +0.000 C 
ATOM     11  O   UNL     1       7.693  12.550  17.146  0.00  0.00    +0.000 OA
ATOM     12  H   UNL     1      10.355  11.749  18.775  0.00  0.00    +0.000 HD
BRANCH  10  13
ATOM     13  C   UNL     1       9.165  14.027  18.204  0.00  0.00    +0.000 A 
ATOM     14  C   UNL     1       8.423  15.172  17.916  0.00  0.00    +0.000 A 
ATOM     15  C   UNL     1       8.901  16.387  18.380  0.00  0.00    +0.000 A 
ATOM     16  N   UNL     1      10.038  16.522  19.095  0.00  0.00    +0.000 NA
ATOM     17  C   UNL     1      10.725  15.395  19.379  0.00  0.00    +0.000 A 
ATOM     18  C   UNL     1      10.333  14.138  18.963  0.00  0.00    +0.000 A 
ENDBRANCH  10  13
ENDBRANCH   8   9
ENDBRANCH   4   7
BRANCH   1  19
ATOM     19  O   UNL     1       7.343   4.280  17.366  0.00  0.00    +0.000 OA
BRANCH  19  20
ATOM     20  C   UNL     1       6.258   4.075  16.466  0.00  0.00    +0.000 C 
BRANCH  20  22
ATOM     21  O   UNL     1       4.153   5.187  16.511  0.00  0.00    +0.000 OA
ATOM     22  C   UNL     1       4.857   4.314  17.019  0.00  0.00    +0.000 C 
ATOM     23  N   UNL     1       4.489   3.494  18.062  0.00  0.00    +0.000 N 
ATOM     24  H   UNL     1       5.233   2.996  18.542  0.00  0.00    +0.000 HD
BRANCH  23  25
ATOM     25  C   UNL     1       3.178   3.360  18.589  0.00  0.00    +0.000 A 
ATOM     26  C   UNL     1       2.356   2.279  18.251  0.00  0.00    +0.000 A 
ATOM     27  C   UNL     1       1.091   2.130  18.826  0.00  0.00    +0.000 A 
ATOM     28  C   UNL     1       0.633   3.058  19.755  0.00  0.00    +0.000 A 
ATOM     29  C   UNL     1       1.435   4.145  20.100  0.00  0.00    +0.000 A 
ATOM     30  C   UNL     1       2.701   4.297  19.520  0.00  0.00    +0.000 A 
ATOM     31 CL   UNL     1       3.632   5.691  19.945  0.00  0.00    +0.000 Cl
ENDBRANCH  23  25
ENDBRANCH  20  22
ENDBRANCH  19  20
ENDBRANCH   1  19
TORSDOF 7
ENDMDL
