MODEL 1
REMARK VINA RESULT:      -7.0      0.000      0.000
REMARK  Name = 
REMARK  7 active torsions:
REMARK  status: ('A' for Active; 'I' for Inactive)
REMARK    1  A    between atoms: N_1  and  C_2
REMARK    2  A    between atoms: C_7  and  C_8
REMARK    3  A    between atoms: C_13  and  S_14
REMARK    4  A    between atoms: S_14  and  C_15
REMARK    5  A    between atoms: N_23  and  C_24
REMARK    6  A    between atoms: C_27  and  C_28
REMARK    7  A    between atoms: C_28  and  N_29
REMARK                            x       y       z     vdW  Elec       q    Type
REMARK                         _______ _______ _______ _____ _____    ______ ____
ROOT
ATOM      1  C   UNL     1      -4.281  12.035  19.367  0.00  0.00    +0.000 A 
ATOM      2  N   UNL     1      -4.226  11.246  18.296  0.00  0.00    +0.000 NA
ATOM      3  C   UNL     1      -2.927  10.871  18.154  0.00  0.00    +0.000 A 
ATOM      4  C   UNL     1      -2.328  10.040  17.203  0.00  0.00    +0.000 A 
ATOM      5  C   UNL     1      -0.946   9.859  17.288  0.00  0.00    +0.000 A 
ATOM      6  C   UNL     1      -0.231  10.501  18.300  0.00  0.00    +0.000 A 
ATOM      7  N   UNL     1      -0.780  11.312  19.237  0.00  0.00    +0.000 NA
ATOM      8  C   UNL     1      -2.124  11.449  19.124  0.00  0.00    +0.000 A 
ATOM      9  N   UNL     1      -2.978  12.248  19.876  0.00  0.00    +0.000 N 
ENDROOT
BRANCH   1  15
ATOM     10  C   UNL     1      -6.284  13.546  19.152  0.00  0.00    +0.000 A 
ATOM     11  N   UNL     1      -7.318  14.244  19.670  0.00  0.00    +0.000 NA
ATOM     12  C   UNL     1      -7.671  13.996  20.948  0.00  0.00    +0.000 A 
ATOM     13  C   UNL     1      -7.077  13.028  21.728  0.00  0.00    +0.000 A 
ATOM     14  C   UNL     1      -6.029  12.295  21.175  0.00  0.00    +0.000 A 
ATOM     15  C   UNL     1      -5.546  12.602  19.890  0.00  0.00    +0.000 A 
BRANCH  10  16
ATOM     16  N   UNL     1      -6.076  13.763  17.799  0.00  0.00    +0.000 N 
ATOM     17  H   UNL     1      -5.369  14.472  17.656  0.00  0.00    +0.000 HD
ATOM     18  H   UNL     1      -6.000  12.921  17.240  0.00  0.00    +0.000 HD
ENDBRANCH  10  16
ENDBRANCH   1  15
BRANCH   9  19
ATOM     19  C   UNL     1      -2.584  13.089  20.960  0.00  0.00    +0.000 A 
ATOM     20  C   UNL     1      -2.441  14.465  20.783  0.00  0.00    +0.000 A 
ATOM     21  C   UNL     1      -2.276  15.301  21.888  0.00  0.00    +0.000 A 
ATOM     22  C   UNL     1      -2.146  14.802  23.196  0.00  0.00    +0.000 A 
ATOM     23  C   UNL     1      -2.203  13.400  23.328  0.00  0.00    +0.000 A 
ATOM     24  C   UNL     1      -2.410  12.550  22.235  0.00  0.00    +0.000 A 
BRANCH  22  25
ATOM     25  C   UNL     1      -1.923  15.758  24.425  0.00  0.00    +0.000 C 
ATOM     26  C   UNL     1      -2.372  17.248  24.354  0.00  0.00    +0.000 C 
ATOM     27  C   UNL     1      -3.660  16.807  25.080  0.00  0.00    +0.000 C 
ATOM     28  C   UNL     1      -2.839  15.646  25.680  0.00  0.00    +0.000 C 
BRANCH  25  29
ATOM     29  N   UNL     1      -0.532  15.719  24.876  0.00  0.00    +0.000 NA
ATOM     30  H   UNL     1      -0.044  16.606  24.753  0.00  0.00    +0.000 HD
ATOM     31  H   UNL     1       0.031  15.029  24.381  0.00  0.00    +0.000 HD
ENDBRANCH  25  29
ENDBRANCH  22  25
ENDBRANCH   9  19
BRANCH   6  32
ATOM     32  S   UNL     1       1.548  10.333  18.328  0.00  0.00    +0.000 S 
BRANCH  32  33
ATOM     33  C   UNL     1       1.748   8.670  18.940  0.00  0.00    +0.000 A 
ATOM     34  C   UNL     1       2.321   7.697  18.113  0.00  0.00    +0.000 A 
ATOM     35  C   UNL     1       2.555   6.406  18.595  0.00  0.00    +0.000 A 
ATOM     36  C   UNL     1       2.222   6.082  19.908  0.00  0.00    +0.000 A 
ATOM     37  C   UNL     1       1.650   7.043  20.739  0.00  0.00    +0.000 A 
ATOM     38  C   UNL     1       1.418   8.334  20.257  0.00  0.00    +0.000 A 
ENDBRANCH  32  33
ENDBRANCH   6  32
TORSDOF 7
ENDMDL
MODEL 2
REMARK VINA RESULT:      -7.0      0.834      1.342
REMARK  Name = 
REMARK  7 active torsions:
REMARK  status: ('A' for Active; 'I' for Inactive)
REMARK    1  A    between atoms: N_1  and  C_2
REMARK    2  A    between atoms: C_7  and  C_8
REMARK    3  A    between atoms: C_13  and  S_14
REMARK    4  A    between atoms: S_14  and  C_15
REMARK    5  A    between atoms: N_23  and  C_24
REMARK    6  A    between atoms: C_27  and  C_28
REMARK    7  A    between atoms: C_28  and  N_29
REMARK                            x       y       z     vdW  Elec       q    Type
REMARK                         _______ _______ _______ _____ _____    ______ ____
ROOT
ATOM      1  C   UNL     1      -4.260  11.902  19.119  0.00  0.00    +0.000 A 
ATOM      2  N   UNL     1      -4.029  11.129  18.061  0.00  0.00    +0.000 NA
ATOM      3  C   UNL     1      -2.709  10.807  18.094  0.00  0.00    +0.000 A 
ATOM      4  C   UNL     1      -1.953  10.012  17.227  0.00  0.00    +0.000 A 
ATOM      5  C   UNL     1      -0.589   9.885  17.498  0.00  0.00    +0.000 A 
ATOM      6  C   UNL     1      -0.045  10.542  18.601  0.00  0.00    +0.000 A 
ATOM      7  N   UNL     1      -0.748  11.320  19.461  0.00  0.00    +0.000 NA
ATOM      8  C   UNL     1      -2.068  11.405  19.167  0.00  0.00    +0.000 A 
ATOM      9  N   UNL     1      -3.049  12.160  19.802  0.00  0.00    +0.000 N 
ENDROOT
BRANCH   1  15
ATOM     10  C   UNL     1      -6.334  13.226  18.582  0.00  0.00    +0.000 A 
ATOM     11  N   UNL     1      -7.459  13.885  18.936  0.00  0.00    +0.000 NA
ATOM     12  C   UNL     1      -7.916  13.724  20.195  0.00  0.00    +0.000 A 
ATOM     13  C   UNL     1      -7.335  12.877  21.114  0.00  0.00    +0.000 A 
ATOM     14  C   UNL     1      -6.189  12.184  20.729  0.00  0.00    +0.000 A 
ATOM     15  C   UNL     1      -5.607  12.413  19.470  0.00  0.00    +0.000 A 
BRANCH  10  16
ATOM     16  N   UNL     1      -6.010  13.339  17.238  0.00  0.00    +0.000 N 
ATOM     17  H   UNL     1      -5.585  12.486  16.902  0.00  0.00    +0.000 HD
ATOM     18  H   UNL     1      -6.734  13.749  16.661  0.00  0.00    +0.000 HD
ENDBRANCH  10  16
ENDBRANCH   1  15
BRANCH   9  19
ATOM     19  C   UNL     1      -2.838  13.003  20.935  0.00  0.00    +0.000 A 
ATOM     20  C   UNL     1      -2.722  14.385  20.787  0.00  0.00    +0.000 A 
ATOM     21  C   UNL     1      -2.741  15.214  21.909  0.00  0.00    +0.000 A 
ATOM     22  C   UNL     1      -2.778  14.706  23.219  0.00  0.00    +0.000 A 
ATOM     23  C   UNL     1      -2.803  13.302  23.335  0.00  0.00    +0.000 A 
ATOM     24  C   UNL     1      -2.826  12.457  22.219  0.00  0.00    +0.000 A 
BRANCH  22  25
ATOM     25  C   UNL     1      -2.762  15.657  24.473  0.00  0.00    +0.000 C 
ATOM     26  C   UNL     1      -1.886  15.310  25.712  0.00  0.00    +0.000 C 
ATOM     27  C   UNL     1      -0.824  16.263  25.124  0.00  0.00    +0.000 C 
ATOM     28  C   UNL     1      -1.983  17.005  24.423  0.00  0.00    +0.000 C 
BRANCH  25  29
ATOM     29  N   UNL     1      -4.122  15.938  24.936  0.00  0.00    +0.000 NA
ATOM     30  H   UNL     1      -4.206  16.833  25.417  0.00  0.00    +0.000 HD
ATOM     31  H   UNL     1      -4.474  15.243  25.592  0.00  0.00    +0.000 HD
ENDBRANCH  25  29
ENDBRANCH  22  25
ENDBRANCH   9  19
BRANCH   6  32
ATOM     32  S   UNL     1       1.720  10.444  18.870  0.00  0.00    +0.000 S 
BRANCH  32  33
ATOM     33  C   UNL     1       1.953   8.696  19.133  0.00  0.00    +0.000 A 
ATOM     34  C   UNL     1       1.555   8.124  20.348  0.00  0.00    +0.000 A 
ATOM     35  C   UNL     1       1.659   6.745  20.549  0.00  0.00    +0.000 A 
ATOM     36  C   UNL     1       2.159   5.929  19.537  0.00  0.00    +0.000 A 
ATOM     37  C   UNL     1       2.559   6.489  18.325  0.00  0.00    +0.000 A 
ATOM     38  C   UNL     1       2.452   7.868  18.123  0.00  0.00    +0.000 A 
ENDBRANCH  32  33
ENDBRANCH   6  32
TORSDOF 7
ENDMDL
MODEL 3
REMARK VINA RESULT:      -6.9      4.113      7.896
REMARK  Name = 
REMARK  7 active torsions:
REMARK  status: ('A' for Active; 'I' for Inactive)
REMARK    1  A    between atoms: N_1  and  C_2
REMARK    2  A    between atoms: C_7  and  C_8
REMARK    3  A    between atoms: C_13  and  S_14
REMARK    4  A    between atoms: S_14  and  C_15
REMARK    5  A    between atoms: N_23  and  C_24
REMARK    6  A    between atoms: C_27  and  C_28
REMARK    7  A    between atoms: C_28  and  N_29
REMARK                            x       y       z     vdW  Elec       q    Type
REMARK                         _______ _______ _______ _____ _____    ______ ____
ROOT
ATOM      1  C   UNL     1      -0.686  12.381  18.832  0.00  0.00    +0.000 A 
ATOM      2  N   UNL     1      -0.864  13.687  19.025  0.00  0.00    +0.000 NA
ATOM      3  C   UNL     1       0.286  14.160  19.574  0.00  0.00    +0.000 A 
ATOM      4  C   UNL     1       0.633  15.458  19.959  0.00  0.00    +0.000 A 
ATOM      5  C   UNL     1       1.892  15.642  20.535  0.00  0.00    +0.000 A 
ATOM      6  C   UNL     1       2.738  14.546  20.699  0.00  0.00    +0.000 A 
ATOM      7  N   UNL     1       2.434  13.275  20.337  0.00  0.00    +0.000 NA
ATOM      8  C   UNL     1       1.209  13.145  19.772  0.00  0.00    +0.000 A 
ATOM      9  N   UNL     1       0.569  11.984  19.350  0.00  0.00    +0.000 N 
ENDROOT
BRANCH   1  15
ATOM     10  C   UNL     1      -3.051  11.555  18.578  0.00  0.00    +0.000 A 
ATOM     11  N   UNL     1      -3.964  10.644  18.177  0.00  0.00    +0.000 NA
ATOM     12  C   UNL     1      -3.558   9.668  17.340  0.00  0.00    +0.000 A 
ATOM     13  C   UNL     1      -2.282   9.589  16.824  0.00  0.00    +0.000 A 
ATOM     14  C   UNL     1      -1.356  10.550  17.224  0.00  0.00    +0.000 A 
ATOM     15  C   UNL     1      -1.700  11.513  18.189  0.00  0.00    +0.000 A 
BRANCH  10  16
ATOM     16  N   UNL     1      -3.580  12.597  19.325  0.00  0.00    +0.000 N 
ATOM     17  H   UNL     1      -2.862  13.271  19.555  0.00  0.00    +0.000 HD
ATOM     18  H   UNL     1      -4.459  12.963  18.980  0.00  0.00    +0.000 HD
ENDBRANCH  10  16
ENDBRANCH   1  15
BRANCH   9  19
ATOM     19  C   UNL     1       1.115  10.668  19.421  0.00  0.00    +0.000 A 
ATOM     20  C   UNL     1       0.954   9.886  20.564  0.00  0.00    +0.000 A 
ATOM     21  C   UNL     1       1.292   8.533  20.543  0.00  0.00    +0.000 A 
ATOM     22  C   UNL     1       1.893   7.925  19.426  0.00  0.00    +0.000 A 
ATOM     23  C   UNL     1       2.126   8.765  18.319  0.00  0.00    +0.000 A 
ATOM     24  C   UNL     1       1.754  10.115  18.309  0.00  0.00    +0.000 A 
BRANCH  22  25
ATOM     25  C   UNL     1       2.301   6.405  19.434  0.00  0.00    +0.000 C 
ATOM     26  C   UNL     1       1.981   5.499  18.209  0.00  0.00    +0.000 C 
ATOM     27  C   UNL     1       3.428   5.764  17.742  0.00  0.00    +0.000 C 
ATOM     28  C   UNL     1       3.788   5.994  19.225  0.00  0.00    +0.000 C 
BRANCH  25  29
ATOM     29  N   UNL     1       1.811   5.737  20.640  0.00  0.00    +0.000 NA
ATOM     30  H   UNL     1       0.973   6.169  21.028  0.00  0.00    +0.000 HD
ATOM     31  H   UNL     1       2.490   5.732  21.400  0.00  0.00    +0.000 HD
ENDBRANCH  25  29
ENDBRANCH  22  25
ENDBRANCH   9  19
BRANCH   6  32
ATOM     32  S   UNL     1       4.303  14.790  21.527  0.00  0.00    +0.000 S 
BRANCH  32  33
ATOM     33  C   UNL     1       5.427  14.930  20.150  0.00  0.00    +0.000 A 
ATOM     34  C   UNL     1       6.805  14.985  20.390  0.00  0.00    +0.000 A 
ATOM     35  C   UNL     1       7.709  15.022  19.324  0.00  0.00    +0.000 A 
ATOM     36  C   UNL     1       7.240  14.999  18.013  0.00  0.00    +0.000 A 
ATOM     37  C   UNL     1       5.870  14.946  17.764  0.00  0.00    +0.000 A 
ATOM     38  C   UNL     1       4.967  14.908  18.830  0.00  0.00    +0.000 A 
ENDBRANCH  32  33
ENDBRANCH   6  32
TORSDOF 7
ENDMDL
MODEL 4
REMARK VINA RESULT:      -6.9      4.264      7.995
REMARK  Name = 
REMARK  7 active torsions:
REMARK  status: ('A' for Active; 'I' for Inactive)
REMARK    1  A    between atoms: N_1  and  C_2
REMARK    2  A    between atoms: C_7  and  C_8
REMARK    3  A    between atoms: C_13  and  S_14
REMARK    4  A    between atoms: S_14  and  C_15
REMARK    5  A    between atoms: N_23  and  C_24
REMARK    6  A    between atoms: C_27  and  C_28
REMARK    7  A    between atoms: C_28  and  N_29
REMARK                            x       y       z     vdW  Elec       q    Type
REMARK                         _______ _______ _______ _____ _____    ______ ____
ROOT
ATOM      1  C   UNL     1      -0.835  12.401  18.835  0.00  0.00    +0.000 A 
ATOM      2  N   UNL     1      -0.876  13.707  19.090  0.00  0.00    +0.000 NA
ATOM      3  C   UNL     1       0.314  14.030  19.662  0.00  0.00    +0.000 A 
ATOM      4  C   UNL     1       0.792  15.265  20.108  0.00  0.00    +0.000 A 
ATOM      5  C   UNL     1       2.061  15.289  20.693  0.00  0.00    +0.000 A 
ATOM      6  C   UNL     1       2.787  14.104  20.803  0.00  0.00    +0.000 A 
ATOM      7  N   UNL     1       2.354  12.890  20.380  0.00  0.00    +0.000 NA
ATOM      8  C   UNL     1       1.125  12.916  19.810  0.00  0.00    +0.000 A 
ATOM      9  N   UNL     1       0.370  11.850  19.333  0.00  0.00    +0.000 N 
ENDROOT
BRANCH   1  15
ATOM     10  C   UNL     1      -3.257  11.748  18.614  0.00  0.00    +0.000 A 
ATOM     11  N   UNL     1      -4.244  10.946  18.160  0.00  0.00    +0.000 NA
ATOM     12  C   UNL     1      -3.940  10.054  17.195  0.00  0.00    +0.000 A 
ATOM     13  C   UNL     1      -2.697   9.963  16.606  0.00  0.00    +0.000 A 
ATOM     14  C   UNL     1      -1.693  10.814  17.064  0.00  0.00    +0.000 A 
ATOM     15  C   UNL     1      -1.930  11.674  18.151  0.00  0.00    +0.000 A 
BRANCH  10  16
ATOM     16  N   UNL     1      -3.683  12.723  19.503  0.00  0.00    +0.000 N 
ATOM     17  H   UNL     1      -3.000  12.862  20.235  0.00  0.00    +0.000 HD
ATOM     18  H   UNL     1      -4.066  13.555  19.070  0.00  0.00    +0.000 HD
ENDBRANCH  10  16
ENDBRANCH   1  15
BRANCH   9  19
ATOM     19  C   UNL     1       0.775  10.482  19.340  0.00  0.00    +0.000 A 
ATOM     20  C   UNL     1       1.372   9.906  18.219  0.00  0.00    +0.000 A 
ATOM     21  C   UNL     1       1.964   8.646  18.308  0.00  0.00    +0.000 A 
ATOM     22  C   UNL     1       1.903   7.867  19.478  0.00  0.00    +0.000 A 
ATOM     23  C   UNL     1       1.214   8.442  20.564  0.00  0.00    +0.000 A 
ATOM     24  C   UNL     1       0.650   9.722  20.505  0.00  0.00    +0.000 A 
BRANCH  22  25
ATOM     25  C   UNL     1       2.545   6.433  19.548  0.00  0.00    +0.000 C 
ATOM     26  C   UNL     1       2.202   5.364  18.469  0.00  0.00    +0.000 C 
ATOM     27  C   UNL     1       3.506   5.785  17.759  0.00  0.00    +0.000 C 
ATOM     28  C   UNL     1       4.034   6.222  19.142  0.00  0.00    +0.000 C 
BRANCH  25  29
ATOM     29  N   UNL     1       2.347   5.833  20.868  0.00  0.00    +0.000 NA
ATOM     30  H   UNL     1       1.914   6.468  21.538  0.00  0.00    +0.000 HD
ATOM     31  H   UNL     1       3.215   5.528  21.305  0.00  0.00    +0.000 HD
ENDBRANCH  25  29
ENDBRANCH  22  25
ENDBRANCH   9  19
BRANCH   6  32
ATOM     32  S   UNL     1       4.365  14.143  21.642  0.00  0.00    +0.000 S 
BRANCH  32  33
ATOM     33  C   UNL     1       5.270  15.326  20.663  0.00  0.00    +0.000 A 
ATOM     34  C   UNL     1       5.634  14.999  19.351  0.00  0.00    +0.000 A 
ATOM     35  C   UNL     1       6.279  15.937  18.540  0.00  0.00    +0.000 A 
ATOM     36  C   UNL     1       6.560  17.209  19.034  0.00  0.00    +0.000 A 
ATOM     37  C   UNL     1       6.203  17.544  20.339  0.00  0.00    +0.000 A 
ATOM     38  C   UNL     1       5.557  16.606  21.148  0.00  0.00    +0.000 A 
ENDBRANCH  32  33
ENDBRANCH   6  32
TORSDOF 7
ENDMDL
MODEL 5
REMARK VINA RESULT:      -6.8      6.370      8.768
REMARK  Name = 
REMARK  7 active torsions:
REMARK  status: ('A' for Active; 'I' for Inactive)
REMARK    1  A    between atoms: N_1  and  C_2
REMARK    2  A    between atoms: C_7  and  C_8
REMARK    3  A    between atoms: C_13  and  S_14
REMARK    4  A    between atoms: S_14  and  C_15
REMARK    5  A    between atoms: N_23  and  C_24
REMARK    6  A    between atoms: C_27  and  C_28
REMARK    7  A    between atoms: C_28  and  N_29
REMARK                            x       y       z     vdW  Elec       q    Type
REMARK                         _______ _______ _______ _____ _____    ______ ____
ROOT
ATOM      1  C   UNL     1       2.996  16.797  19.389  0.00  0.00    +0.000 A 
ATOM      2  N   UNL     1       3.826  17.765  19.771  0.00  0.00    +0.000 NA
ATOM      3  C   UNL     1       4.952  17.155  20.230  0.00  0.00    +0.000 A 
ATOM      4  C   UNL     1       6.133  17.705  20.735  0.00  0.00    +0.000 A 
ATOM      5  C   UNL     1       7.121  16.818  21.167  0.00  0.00    +0.000 A 
ATOM      6  C   UNL     1       6.896  15.445  21.078  0.00  0.00    +0.000 A 
ATOM      7  N   UNL     1       5.763  14.878  20.593  0.00  0.00    +0.000 NA
ATOM      8  C   UNL     1       4.838  15.775  20.175  0.00  0.00    +0.000 A 
ATOM      9  N   UNL     1       3.558  15.533  19.688  0.00  0.00    +0.000 N 
ENDROOT
BRANCH   1  15
ATOM     10  C   UNL     1       1.570  17.545  17.453  0.00  0.00    +0.000 A 
ATOM     11  N   UNL     1       0.413  17.999  16.923  0.00  0.00    +0.000 NA
ATOM     12  C   UNL     1      -0.695  17.953  17.691  0.00  0.00    +0.000 A 
ATOM     13  C   UNL     1      -0.721  17.412  18.959  0.00  0.00    +0.000 A 
ATOM     14  C   UNL     1       0.473  16.923  19.485  0.00  0.00    +0.000 A 
ATOM     15  C   UNL     1       1.676  17.061  18.769  0.00  0.00    +0.000 A 
BRANCH  10  16
ATOM     16  N   UNL     1       2.626  17.501  16.555  0.00  0.00    +0.000 N 
ATOM     17  H   UNL     1       2.818  16.548  16.277  0.00  0.00    +0.000 HD
ATOM     18  H   UNL     1       2.585  18.194  15.817  0.00  0.00    +0.000 HD
ENDBRANCH  10  16
ENDBRANCH   1  15
BRANCH   9  19
ATOM     19  C   UNL     1       2.968  14.245  19.516  0.00  0.00    +0.000 A 
ATOM     20  C   UNL     1       2.176  13.681  20.515  0.00  0.00    +0.000 A 
ATOM     21  C   UNL     1       1.427  12.533  20.254  0.00  0.00    +0.000 A 
ATOM     22  C   UNL     1       1.509  11.845  19.030  0.00  0.00    +0.000 A 
ATOM     23  C   UNL     1       2.389  12.391  18.074  0.00  0.00    +0.000 A 
ATOM     24  C   UNL     1       3.115  13.565  18.306  0.00  0.00    +0.000 A 
BRANCH  22  25
ATOM     25  C   UNL     1       0.685  10.531  18.767  0.00  0.00    +0.000 C 
ATOM     26  C   UNL     1       1.362   9.299  18.097  0.00  0.00    +0.000 C 
ATOM     27  C   UNL     1       1.567   8.744  19.523  0.00  0.00    +0.000 C 
ATOM     28  C   UNL     1       0.338   9.575  19.947  0.00  0.00    +0.000 C 
BRANCH  25  29
ATOM     29  N   UNL     1      -0.553  10.824  18.043  0.00  0.00    +0.000 NA
ATOM     30  H   UNL     1      -1.263  11.269  18.624  0.00  0.00    +0.000 HD
ATOM     31  H   UNL     1      -1.000   9.994  17.658  0.00  0.00    +0.000 HD
ENDBRANCH  25  29
ENDBRANCH  22  25
ENDBRANCH   9  19
BRANCH   6  32
ATOM     32  S   UNL     1       8.135  14.331  21.728  0.00  0.00    +0.000 S 
BRANCH  32  33
ATOM     33  C   UNL     1       8.726  13.537  20.245  0.00  0.00    +0.000 A 
ATOM     34  C   UNL     1       9.229  12.233  20.318  0.00  0.00    +0.000 A 
ATOM     35  C   UNL     1       9.630  11.563  19.158  0.00  0.00    +0.000 A 
ATOM     36  C   UNL     1       9.526  12.191  17.919  0.00  0.00    +0.000 A 
ATOM     37  C   UNL     1       9.027  13.490  17.837  0.00  0.00    +0.000 A 
ATOM     38  C   UNL     1       8.625  14.158  18.997  0.00  0.00    +0.000 A 
ENDBRANCH  32  33
ENDBRANCH   6  32
TORSDOF 7
ENDMDL
MODEL 6
REMARK VINA RESULT:      -6.8      0.573      1.005
REMARK  Name = 
REMARK  7 active torsions:
REMARK  status: ('A' for Active; 'I' for Inactive)
REMARK    1  A    between atoms: N_1  and  C_2
REMARK    2  A    between atoms: C_7  and  C_8
REMARK    3  A    between atoms: C_13  and  S_14
REMARK    4  A    between atoms: S_14  and  C_15
REMARK    5  A    between atoms: N_23  and  C_24
REMARK    6  A    between atoms: C_27  and  C_28
REMARK    7  A    between atoms: C_28  and  N_29
REMARK                            x       y       z     vdW  Elec       q    Type
REMARK                         _______ _______ _______ _____ _____    ______ ____
ROOT
ATOM      1  C   UNL     1      -4.038  12.288  19.676  0.00  0.00    +0.000 A 
ATOM      2  N   UNL     1      -4.100  11.447  18.646  0.00  0.00    +0.000 NA
ATOM      3  C   UNL     1      -2.829  11.027  18.409  0.00  0.00    +0.000 A 
ATOM      4  C   UNL     1      -2.339  10.133  17.452  0.00  0.00    +0.000 A 
ATOM      5  C   UNL     1      -0.960   9.915  17.423  0.00  0.00    +0.000 A 
ATOM      6  C   UNL     1      -0.142  10.582  18.334  0.00  0.00    +0.000 A 
ATOM      7  N   UNL     1      -0.583  11.454  19.275  0.00  0.00    +0.000 NA
ATOM      8  C   UNL     1      -1.927  11.626  19.274  0.00  0.00    +0.000 A 
ATOM      9  N   UNL     1      -2.690  12.486  20.057  0.00  0.00    +0.000 N 
ENDROOT
BRANCH   1  15
ATOM     10  C   UNL     1      -6.058  13.785  19.537  0.00  0.00    +0.000 A 
ATOM     11  N   UNL     1      -7.027  14.543  20.095  0.00  0.00    +0.000 NA
ATOM     12  C   UNL     1      -7.229  14.433  21.424  0.00  0.00    +0.000 A 
ATOM     13  C   UNL     1      -6.545  13.547  22.228  0.00  0.00    +0.000 A 
ATOM     14  C   UNL     1      -5.565  12.752  21.637  0.00  0.00    +0.000 A 
ATOM     15  C   UNL     1      -5.236  12.918  20.280  0.00  0.00    +0.000 A 
BRANCH  10  16
ATOM     16  N   UNL     1      -6.009  13.857  18.153  0.00  0.00    +0.000 N 
ATOM     17  H   UNL     1      -5.914  12.934  17.752  0.00  0.00    +0.000 HD
ATOM     18  H   UNL     1      -6.697  14.471  17.735  0.00  0.00    +0.000 HD
ENDBRANCH  10  16
ENDBRANCH   1  15
BRANCH   9  19
ATOM     19  C   UNL     1      -2.178  13.365  21.058  0.00  0.00    +0.000 A 
ATOM     20  C   UNL     1      -2.108  14.740  20.835  0.00  0.00    +0.000 A 
ATOM     21  C   UNL     1      -1.820  15.608  21.889  0.00  0.00    +0.000 A 
ATOM     22  C   UNL     1      -1.494  15.145  23.176  0.00  0.00    +0.000 A 
ATOM     23  C   UNL     1      -1.483  13.746  23.344  0.00  0.00    +0.000 A 
ATOM     24  C   UNL     1      -1.811  12.863  22.308  0.00  0.00    +0.000 A 
BRANCH  22  25
ATOM     25  C   UNL     1      -1.135  16.139  24.343  0.00  0.00    +0.000 C 
ATOM     26  C   UNL     1      -1.708  17.586  24.346  0.00  0.00    +0.000 C 
ATOM     27  C   UNL     1      -2.808  17.059  25.291  0.00  0.00    +0.000 C 
ATOM     28  C   UNL     1      -1.804  15.977  25.741  0.00  0.00    +0.000 C 
BRANCH  25  29
ATOM     29  N   UNL     1       0.312  16.217  24.540  0.00  0.00    +0.000 NA
ATOM     30  H   UNL     1       0.587  16.196  25.521  0.00  0.00    +0.000 HD
ATOM     31  H   UNL     1       0.724  17.069  24.161  0.00  0.00    +0.000 HD
ENDBRANCH  25  29
ENDBRANCH  22  25
ENDBRANCH   9  19
BRANCH   6  32
ATOM     32  S   UNL     1       1.628  10.362  18.214  0.00  0.00    +0.000 S 
BRANCH  32  33
ATOM     33  C   UNL     1       1.845   8.747  18.939  0.00  0.00    +0.000 A 
ATOM     34  C   UNL     1       1.395   8.513  20.244  0.00  0.00    +0.000 A 
ATOM     35  C   UNL     1       1.488   7.237  20.807  0.00  0.00    +0.000 A 
ATOM     36  C   UNL     1       2.027   6.187  20.068  0.00  0.00    +0.000 A 
ATOM     37  C   UNL     1       2.479   6.411  18.769  0.00  0.00    +0.000 A 
ATOM     38  C   UNL     1       2.384   7.686  18.206  0.00  0.00    +0.000 A 
ENDBRANCH  32  33
ENDBRANCH   6  32
TORSDOF 7
ENDMDL
MODEL 7
REMARK VINA RESULT:      -6.8      3.360      5.023
REMARK  Name = 
REMARK  7 active torsions:
REMARK  status: ('A' for Active; 'I' for Inactive)
REMARK    1  A    between atoms: N_1  and  C_2
REMARK    2  A    between atoms: C_7  and  C_8
REMARK    3  A    between atoms: C_13  and  S_14
REMARK    4  A    between atoms: S_14  and  C_15
REMARK    5  A    between atoms: N_23  and  C_24
REMARK    6  A    between atoms: C_27  and  C_28
REMARK    7  A    between atoms: C_28  and  N_29
REMARK                            x       y       z     vdW  Elec       q    Type
REMARK                         _______ _______ _______ _____ _____    ______ ____
ROOT
ATOM      1  C   UNL     1      -0.598  12.028  22.120  0.00  0.00    +0.000 A 
ATOM      2  N   UNL     1      -0.717  10.751  22.476  0.00  0.00    +0.000 NA
ATOM      3  C   UNL     1      -0.006  10.027  21.571  0.00  0.00    +0.000 A 
ATOM      4  C   UNL     1       0.209   8.648  21.489  0.00  0.00    +0.000 A 
ATOM      5  C   UNL     1       0.967   8.179  20.414  0.00  0.00    +0.000 A 
ATOM      6  C   UNL     1       1.472   9.087  19.483  0.00  0.00    +0.000 A 
ATOM      7  N   UNL     1       1.283  10.429  19.533  0.00  0.00    +0.000 NA
ATOM      8  C   UNL     1       0.553  10.840  20.598  0.00  0.00    +0.000 A 
ATOM      9  N   UNL     1       0.128  12.127  20.911  0.00  0.00    +0.000 N 
ENDROOT
BRANCH   1  15
ATOM     10  C   UNL     1      -2.490  13.063  23.420  0.00  0.00    +0.000 A 
ATOM     11  N   UNL     1      -3.142  14.122  23.948  0.00  0.00    +0.000 NA
ATOM     12  C   UNL     1      -2.490  15.302  24.003  0.00  0.00    +0.000 A 
ATOM     13  C   UNL     1      -1.180  15.467  23.609  0.00  0.00    +0.000 A 
ATOM     14  C   UNL     1      -0.509  14.362  23.090  0.00  0.00    +0.000 A 
ATOM     15  C   UNL     1      -1.186  13.143  22.900  0.00  0.00    +0.000 A 
BRANCH  10  16
ATOM     16  N   UNL     1      -3.179  11.864  23.527  0.00  0.00    +0.000 N 
ATOM     17  H   UNL     1      -2.912  11.374  24.369  0.00  0.00    +0.000 HD
ATOM     18  H   UNL     1      -4.170  11.924  23.325  0.00  0.00    +0.000 HD
ENDBRANCH  10  16
ENDBRANCH   1  15
BRANCH   9  19
ATOM     19  C   UNL     1       0.411  13.299  20.147  0.00  0.00    +0.000 A 
ATOM     20  C   UNL     1      -0.547  13.845  19.292  0.00  0.00    +0.000 A 
ATOM     21  C   UNL     1      -0.346  15.104  18.726  0.00  0.00    +0.000 A 
ATOM     22  C   UNL     1       0.848  15.826  18.901  0.00  0.00    +0.000 A 
ATOM     23  C   UNL     1       1.832  15.204  19.696  0.00  0.00    +0.000 A 
ATOM     24  C   UNL     1       1.630  13.960  20.306  0.00  0.00    +0.000 A 
BRANCH  22  25
ATOM     25  C   UNL     1       1.071  17.228  18.224  0.00  0.00    +0.000 C 
ATOM     26  C   UNL     1      -0.016  17.829  17.285  0.00  0.00    +0.000 C 
ATOM     27  C   UNL     1      -0.509  18.630  18.509  0.00  0.00    +0.000 C 
ATOM     28  C   UNL     1       0.929  18.533  19.062  0.00  0.00    +0.000 C 
BRANCH  25  29
ATOM     29  N   UNL     1       2.357  17.276  17.527  0.00  0.00    +0.000 NA
ATOM     30  H   UNL     1       2.425  18.044  16.860  0.00  0.00    +0.000 HD
ATOM     31  H   UNL     1       2.555  16.433  16.991  0.00  0.00    +0.000 HD
ENDBRANCH  25  29
ENDBRANCH  22  25
ENDBRANCH   9  19
BRANCH   6  32
ATOM     32  S   UNL     1       2.355   8.454  18.064  0.00  0.00    +0.000 S 
BRANCH  32  33
ATOM     33  C   UNL     1       2.536   6.731  18.485  0.00  0.00    +0.000 A 
ATOM     34  C   UNL     1       1.699   5.784  17.884  0.00  0.00    +0.000 A 
ATOM     35  C   UNL     1       1.870   4.421  18.142  0.00  0.00    +0.000 A 
ATOM     36  C   UNL     1       2.882   3.997  19.000  0.00  0.00    +0.000 A 
ATOM     37  C   UNL     1       3.720   4.932  19.604  0.00  0.00    +0.000 A 
ATOM     38  C   UNL     1       3.549   6.294  19.344  0.00  0.00    +0.000 A 
ENDBRANCH  32  33
ENDBRANCH   6  32
TORSDOF 7
ENDMDL
MODEL 8
REMARK VINA RESULT:      -6.7      4.601      6.120
REMARK  Name = 
REMARK  7 active torsions:
REMARK  status: ('A' for Active; 'I' for Inactive)
REMARK    1  A    between atoms: N_1  and  C_2
REMARK    2  A    between atoms: C_7  and  C_8
REMARK    3  A    between atoms: C_13  and  S_14
REMARK    4  A    between atoms: S_14  and  C_15
REMARK    5  A    between atoms: N_23  and  C_24
REMARK    6  A    between atoms: C_27  and  C_28
REMARK    7  A    between atoms: C_28  and  N_29
REMARK                            x       y       z     vdW  Elec       q    Type
REMARK                         _______ _______ _______ _____ _____    ______ ____
ROOT
ATOM      1  C   UNL     1      -0.065  13.410  18.985  0.00  0.00    +0.000 A 
ATOM      2  N   UNL     1      -0.922  12.437  18.682  0.00  0.00    +0.000 NA
ATOM      3  C   UNL     1      -0.179  11.323  18.445  0.00  0.00    +0.000 A 
ATOM      4  C   UNL     1      -0.579  10.029  18.101  0.00  0.00    +0.000 A 
ATOM      5  C   UNL     1       0.424   9.082  17.885  0.00  0.00    +0.000 A 
ATOM      6  C   UNL     1       1.761   9.457  18.019  0.00  0.00    +0.000 A 
ATOM      7  N   UNL     1       2.184  10.702  18.351  0.00  0.00    +0.000 NA
ATOM      8  C   UNL     1       1.177  11.584  18.563  0.00  0.00    +0.000 A 
ATOM      9  N   UNL     1       1.263  12.941  18.854  0.00  0.00    +0.000 N 
ENDROOT
BRANCH   1  15
ATOM     10  C   UNL     1      -1.323  14.993  20.486  0.00  0.00    +0.000 A 
ATOM     11  N   UNL     1      -1.909  16.181  20.750  0.00  0.00    +0.000 NA
ATOM     12  C   UNL     1      -1.658  17.210  19.915  0.00  0.00    +0.000 A 
ATOM     13  C   UNL     1      -0.789  17.130  18.848  0.00  0.00    +0.000 A 
ATOM     14  C   UNL     1      -0.169  15.906  18.601  0.00  0.00    +0.000 A 
ATOM     15  C   UNL     1      -0.494  14.775  19.370  0.00  0.00    +0.000 A 
BRANCH  10  16
ATOM     16  N   UNL     1      -1.525  14.031  21.464  0.00  0.00    +0.000 N 
ATOM     17  H   UNL     1      -2.506  13.961  21.698  0.00  0.00    +0.000 HD
ATOM     18  H   UNL     1      -1.025  13.163  21.316  0.00  0.00    +0.000 HD
ENDBRANCH  10  16
ENDBRANCH   1  15
BRANCH   9  19
ATOM     19  C   UNL     1       2.476  13.678  19.007  0.00  0.00    +0.000 A 
ATOM     20  C   UNL     1       3.132  14.215  17.900  0.00  0.00    +0.000 A 
ATOM     21  C   UNL     1       4.183  15.115  18.074  0.00  0.00    +0.000 A 
ATOM     22  C   UNL     1       4.689  15.443  19.345  0.00  0.00    +0.000 A 
ATOM     23  C   UNL     1       4.063  14.812  20.438  0.00  0.00    +0.000 A 
ATOM     24  C   UNL     1       2.979  13.939  20.282  0.00  0.00    +0.000 A 
BRANCH  22  25
ATOM     25  C   UNL     1       5.900  16.433  19.521  0.00  0.00    +0.000 C 
ATOM     26  C   UNL     1       6.938  16.210  20.659  0.00  0.00    +0.000 C 
ATOM     27  C   UNL     1       7.818  15.507  19.604  0.00  0.00    +0.000 C 
ATOM     28  C   UNL     1       7.108  16.371  18.540  0.00  0.00    +0.000 C 
BRANCH  25  29
ATOM     29  N   UNL     1       5.439  17.820  19.584  0.00  0.00    +0.000 NA
ATOM     30  H   UNL     1       6.158  18.469  19.900  0.00  0.00    +0.000 HD
ATOM     31  H   UNL     1       4.655  17.954  20.220  0.00  0.00    +0.000 HD
ENDBRANCH  25  29
ENDBRANCH  22  25
ENDBRANCH   9  19
BRANCH   6  32
ATOM     32  S   UNL     1       3.029   8.254  17.641  0.00  0.00    +0.000 S 
BRANCH  32  33
ATOM     33  C   UNL     1       2.502   6.853  18.609  0.00  0.00    +0.000 A 
ATOM     34  C   UNL     1       2.200   7.027  19.965  0.00  0.00    +0.000 A 
ATOM     35  C   UNL     1       1.715   5.959  20.726  0.00  0.00    +0.000 A 
ATOM     36  C   UNL     1       1.525   4.713  20.135  0.00  0.00    +0.000 A 
ATOM     37  C   UNL     1       1.825   4.529  18.786  0.00  0.00    +0.000 A 
ATOM     38  C   UNL     1       2.308   5.597  18.026  0.00  0.00    +0.000 A 
ENDBRANCH  32  33
ENDBRANCH   6  32
TORSDOF 7
ENDMDL
MODEL 9
REMARK VINA RESULT:      -6.7      2.799      7.429
REMARK  Name = 
REMARK  7 active torsions:
REMARK  status: ('A' for Active; 'I' for Inactive)
REMARK    1  A    between atoms: N_1  and  C_2
REMARK    2  A    between atoms: C_7  and  C_8
REMARK    3  A    between atoms: C_13  and  S_14
REMARK    4  A    between atoms: S_14  and  C_15
REMARK    5  A    between atoms: N_23  and  C_24
REMARK    6  A    between atoms: C_27  and  C_28
REMARK    7  A    between atoms: C_28  and  N_29
REMARK                            x       y       z     vdW  Elec       q    Type
REMARK                         _______ _______ _______ _____ _____    ______ ____
ROOT
ATOM      1  C   UNL     1      -4.025  14.892  23.916  0.00  0.00    +0.000 A 
ATOM      2  N   UNL     1      -5.302  15.200  24.129  0.00  0.00    +0.000 NA
ATOM      3  C   UNL     1      -6.042  14.280  23.456  0.00  0.00    +0.000 A 
ATOM      4  C   UNL     1      -7.429  14.137  23.356  0.00  0.00    +0.000 A 
ATOM      5  C   UNL     1      -7.912  13.100  22.554  0.00  0.00    +0.000 A 
ATOM      6  C   UNL     1      -7.009  12.264  21.898  0.00  0.00    +0.000 A 
ATOM      7  N   UNL     1      -5.659  12.374  21.973  0.00  0.00    +0.000 NA
ATOM      8  C   UNL     1      -5.236  13.384  22.771  0.00  0.00    +0.000 A 
ATOM      9  N   UNL     1      -3.934  13.806  23.015  0.00  0.00    +0.000 N 
ENDROOT
BRANCH   1  15
ATOM     10  C   UNL     1      -2.241  16.668  23.853  0.00  0.00    +0.000 A 
ATOM     11  N   UNL     1      -1.087  17.223  24.286  0.00  0.00    +0.000 NA
ATOM     12  C   UNL     1      -0.566  16.773  25.446  0.00  0.00    +0.000 A 
ATOM     13  C   UNL     1      -1.179  15.829  26.241  0.00  0.00    +0.000 A 
ATOM     14  C   UNL     1      -2.382  15.283  25.798  0.00  0.00    +0.000 A 
ATOM     15  C   UNL     1      -2.900  15.631  24.538  0.00  0.00    +0.000 A 
BRANCH  10  16
ATOM     16  N   UNL     1      -2.776  17.279  22.730  0.00  0.00    +0.000 N 
ATOM     17  H   UNL     1      -3.526  17.907  22.988  0.00  0.00    +0.000 HD
ATOM     18  H   UNL     1      -2.092  17.630  22.070  0.00  0.00    +0.000 HD
ENDBRANCH  10  16
ENDBRANCH   1  15
BRANCH   9  19
ATOM     19  C   UNL     1      -2.757  13.217  22.462  0.00  0.00    +0.000 A 
ATOM     20  C   UNL     1      -1.909  12.438  23.248  0.00  0.00    +0.000 A 
ATOM     21  C   UNL     1      -0.893  11.688  22.655  0.00  0.00    +0.000 A 
ATOM     22  C   UNL     1      -0.614  11.756  21.278  0.00  0.00    +0.000 A 
ATOM     23  C   UNL     1      -1.432  12.624  20.527  0.00  0.00    +0.000 A 
ATOM     24  C   UNL     1      -2.482  13.351  21.100  0.00  0.00    +0.000 A 
BRANCH  22  25
ATOM     25  C   UNL     1       0.560  10.931  20.633  0.00  0.00    +0.000 C 
ATOM     26  C   UNL     1       1.283   9.822  21.451  0.00  0.00    +0.000 C 
ATOM     27  C   UNL     1       0.347   8.813  20.752  0.00  0.00    +0.000 C 
ATOM     28  C   UNL     1       0.251   9.820  19.586  0.00  0.00    +0.000 C 
BRANCH  25  29
ATOM     29  N   UNL     1       1.574  11.819  20.064  0.00  0.00    +0.000 NA
ATOM     30  H   UNL     1       1.907  12.523  20.722  0.00  0.00    +0.000 HD
ATOM     31  H   UNL     1       1.244  12.339  19.253  0.00  0.00    +0.000 HD
ENDBRANCH  25  29
ENDBRANCH  22  25
ENDBRANCH   9  19
BRANCH   6  32
ATOM     32  S   UNL     1      -7.650  11.007  20.800  0.00  0.00    +0.000 S 
BRANCH  32  33
ATOM     33  C   UNL     1      -6.874  11.440  19.255  0.00  0.00    +0.000 A 
ATOM     34  C   UNL     1      -7.318  12.568  18.554  0.00  0.00    +0.000 A 
ATOM     35  C   UNL     1      -6.676  12.970  17.379  0.00  0.00    +0.000 A 
ATOM     36  C   UNL     1      -5.585  12.249  16.899  0.00  0.00    +0.000 A 
ATOM     37  C   UNL     1      -5.137  11.124  17.589  0.00  0.00    +0.000 A 
ATOM     38  C   UNL     1      -5.778  10.724  18.765  0.00  0.00    +0.000 A 
ENDBRANCH  32  33
ENDBRANCH   6  32
TORSDOF 7
ENDMDL
