MODEL 1
REMARK VINA RESULT:      -6.9      0.000      0.000
REMARK  Name = 
REMARK  6 active torsions:
REMARK  status: ('A' for Active; 'I' for Inactive)
REMARK    1  A    between atoms: C_1  and  O_2
REMARK    2  A    between atoms: O_2  and  C_3
REMARK    3  A    between atoms: C_7  and  O_8
REMARK    4  A    between atoms: O_8  and  C_9
REMARK    5  A    between atoms: C_10  and  N_11
REMARK    6  A    between atoms: C_12  and  C_14
REMARK                            x       y       z     vdW  Elec       q    Type
REMARK                         _______ _______ _______ _____ _____    ______ ____
ROOT
ATOM      1  N   UNL     1       4.030   6.840  17.419  0.00  0.00    +0.000 N 
ATOM      2  C   UNL     1       3.332   6.724  18.610  0.00  0.00    +0.000 C 
ATOM      3  O   UNL     1       3.537   5.890  19.484  0.00  0.00    +0.000 OA
ATOM      4  H   UNL     1       4.028   7.741  16.956  0.00  0.00    +0.000 HD
ENDROOT
BRANCH   2   5
ATOM      5  C   UNL     1       2.328   7.796  18.904  0.00  0.00    +0.000 A 
ATOM      6  C   UNL     1       1.834   8.679  17.934  0.00  0.00    +0.000 A 
ATOM      7  C   UNL     1       0.898   9.661  18.296  0.00  0.00    +0.000 A 
ATOM      8  C   UNL     1       0.459   9.749  19.615  0.00  0.00    +0.000 A 
ATOM      9  F   UNL     1      -0.426  10.696  19.955  0.00  0.00    +0.000 F 
ATOM     10  C   UNL     1       0.917   8.866  20.580  0.00  0.00    +0.000 A 
ATOM     11  C   UNL     1       1.847   7.885  20.222  0.00  0.00    +0.000 A 
ENDBRANCH   2   5
BRANCH   1  17
ATOM     12  C   UNL     1       6.293   6.394  16.654  0.00  0.00    +0.000 A 
ATOM     13  N   UNL     1       7.300   5.660  16.140  0.00  0.00    +0.000 NA
ATOM     14  C   UNL     1       7.017   4.380  15.908  0.00  0.00    +0.000 A 
ATOM     15  N   UNL     1       5.840   3.793  16.125  0.00  0.00    +0.000 NA
ATOM     16  C   UNL     1       4.851   4.575  16.625  0.00  0.00    +0.000 A 
ATOM     17  C   UNL     1       5.008   5.924  16.921  0.00  0.00    +0.000 A 
BRANCH  12  19
ATOM     18  C   UNL     1       7.792   7.879  17.647  0.00  0.00    +0.000 C 
ATOM     19  O   UNL     1       6.556   7.729  16.945  0.00  0.00    +0.000 OA
ENDBRANCH  12  19
BRANCH  16  20
ATOM     20  O   UNL     1       3.601   4.003  16.697  0.00  0.00    +0.000 OA
ATOM     21  C   UNL     1       3.516   2.929  17.628  0.00  0.00    +0.000 C 
ENDBRANCH  16  20
ENDBRANCH   1  17
TORSDOF 4
ENDMDL
MODEL 2
REMARK VINA RESULT:      -6.7      4.048      6.621
REMARK  Name = 
REMARK  6 active torsions:
REMARK  status: ('A' for Active; 'I' for Inactive)
REMARK    1  A    between atoms: C_1  and  O_2
REMARK    2  A    between atoms: O_2  and  C_3
REMARK    3  A    between atoms: C_7  and  O_8
REMARK    4  A    between atoms: O_8  and  C_9
REMARK    5  A    between atoms: C_10  and  N_11
REMARK    6  A    between atoms: C_12  and  C_14
REMARK                            x       y       z     vdW  Elec       q    Type
REMARK                         _______ _______ _______ _____ _____    ______ ____
ROOT
ATOM      1  N   UNL     1       4.236   3.692  18.354  0.00  0.00    +0.000 N 
ATOM      2  C   UNL     1       5.470   4.310  18.227  0.00  0.00    +0.000 C 
ATOM      3  O   UNL     1       6.211   4.629  19.149  0.00  0.00    +0.000 OA
ATOM      4  H   UNL     1       3.888   3.165  17.563  0.00  0.00    +0.000 HD
ENDROOT
BRANCH   2   5
ATOM      5  C   UNL     1       5.992   4.481  16.833  0.00  0.00    +0.000 A 
ATOM      6  C   UNL     1       7.165   5.183  16.528  0.00  0.00    +0.000 A 
ATOM      7  C   UNL     1       7.580   5.301  15.192  0.00  0.00    +0.000 A 
ATOM      8  C   UNL     1       6.829   4.713  14.177  0.00  0.00    +0.000 A 
ATOM      9  F   UNL     1       7.225   4.839  12.903  0.00  0.00    +0.000 F 
ATOM     10  C   UNL     1       5.681   3.992  14.465  0.00  0.00    +0.000 A 
ATOM     11  C   UNL     1       5.266   3.871  15.795  0.00  0.00    +0.000 A 
ENDBRANCH   2   5
BRANCH   1  17
ATOM     12  C   UNL     1       2.457   4.273  19.905  0.00  0.00    +0.000 A 
ATOM     13  N   UNL     1       1.736   4.195  21.041  0.00  0.00    +0.000 NA
ATOM     14  C   UNL     1       2.090   3.223  21.880  0.00  0.00    +0.000 A 
ATOM     15  N   UNL     1       3.087   2.359  21.691  0.00  0.00    +0.000 NA
ATOM     16  C   UNL     1       3.798   2.488  20.544  0.00  0.00    +0.000 A 
ATOM     17  C   UNL     1       3.534   3.451  19.576  0.00  0.00    +0.000 A 
BRANCH  12  19
ATOM     18  C   UNL     1       2.431   6.560  19.455  0.00  0.00    +0.000 C 
ATOM     19  O   UNL     1       2.099   5.252  18.984  0.00  0.00    +0.000 OA
ENDBRANCH  12  19
BRANCH  16  20
ATOM     20  O   UNL     1       4.919   1.698  20.431  0.00  0.00    +0.000 OA
ATOM     21  C   UNL     1       5.228   0.970  21.615  0.00  0.00    +0.000 C 
ENDBRANCH  16  20
ENDBRANCH   1  17
TORSDOF 4
ENDMDL
MODEL 3
REMARK VINA RESULT:      -6.6      3.709      6.856
REMARK  Name = 
REMARK  6 active torsions:
REMARK  status: ('A' for Active; 'I' for Inactive)
REMARK    1  A    between atoms: C_1  and  O_2
REMARK    2  A    between atoms: O_2  and  C_3
REMARK    3  A    between atoms: C_7  and  O_8
REMARK    4  A    between atoms: O_8  and  C_9
REMARK    5  A    between atoms: C_10  and  N_11
REMARK    6  A    between atoms: C_12  and  C_14
REMARK                            x       y       z     vdW  Elec       q    Type
REMARK                         _______ _______ _______ _____ _____    ______ ____
ROOT
ATOM      1  N   UNL     1       3.813   4.319  17.686  0.00  0.00    +0.000 N 
ATOM      2  C   UNL     1       5.199   4.329  17.692  0.00  0.00    +0.000 C 
ATOM      3  O   UNL     1       5.914   4.098  18.660  0.00  0.00    +0.000 OA
ATOM      4  H   UNL     1       3.345   4.168  16.801  0.00  0.00    +0.000 HD
ENDROOT
BRANCH   2   5
ATOM      5  C   UNL     1       5.872   4.513  16.366  0.00  0.00    +0.000 A 
ATOM      6  C   UNL     1       7.080   5.203  16.202  0.00  0.00    +0.000 A 
ATOM      7  C   UNL     1       7.640   5.334  14.921  0.00  0.00    +0.000 A 
ATOM      8  C   UNL     1       6.996   4.773  13.821  0.00  0.00    +0.000 A 
ATOM      9  F   UNL     1       7.530   4.912  12.600  0.00  0.00    +0.000 F 
ATOM     10  C   UNL     1       5.814   4.065  13.970  0.00  0.00    +0.000 A 
ATOM     11  C   UNL     1       5.256   3.930  15.245  0.00  0.00    +0.000 A 
ENDBRANCH   2   5
BRANCH   1  17
ATOM     12  C   UNL     1       2.310   2.976  19.044  0.00  0.00    +0.000 A 
ATOM     13  N   UNL     1       1.447   2.724  20.048  0.00  0.00    +0.000 NA
ATOM     14  C   UNL     1       1.251   3.727  20.902  0.00  0.00    +0.000 A 
ATOM     15  N   UNL     1       1.817   4.932  20.829  0.00  0.00    +0.000 NA
ATOM     16  C   UNL     1       2.663   5.146  19.790  0.00  0.00    +0.000 A 
ATOM     17  C   UNL     1       2.965   4.188  18.829  0.00  0.00    +0.000 A 
BRANCH  12  19
ATOM     18  C   UNL     1       3.666   1.137  18.584  0.00  0.00    +0.000 C 
ATOM     19  O   UNL     1       2.570   1.944  18.148  0.00  0.00    +0.000 OA
ENDBRANCH  12  19
BRANCH  16  20
ATOM     20  O   UNL     1       3.117   6.436  19.632  0.00  0.00    +0.000 OA
ATOM     21  C   UNL     1       2.106   7.424  19.803  0.00  0.00    +0.000 C 
ENDBRANCH  16  20
ENDBRANCH   1  17
TORSDOF 4
ENDMDL
MODEL 4
REMARK VINA RESULT:      -6.6      3.985      6.734
REMARK  Name = 
REMARK  6 active torsions:
REMARK  status: ('A' for Active; 'I' for Inactive)
REMARK    1  A    between atoms: C_1  and  O_2
REMARK    2  A    between atoms: O_2  and  C_3
REMARK    3  A    between atoms: C_7  and  O_8
REMARK    4  A    between atoms: O_8  and  C_9
REMARK    5  A    between atoms: C_10  and  N_11
REMARK    6  A    between atoms: C_12  and  C_14
REMARK                            x       y       z     vdW  Elec       q    Type
REMARK                         _______ _______ _______ _____ _____    ______ ____
ROOT
ATOM      1  N   UNL     1       4.191   3.865  18.321  0.00  0.00    +0.000 N 
ATOM      2  C   UNL     1       5.226   4.755  18.083  0.00  0.00    +0.000 C 
ATOM      3  O   UNL     1       5.760   5.474  18.918  0.00  0.00    +0.000 OA
ATOM      4  H   UNL     1       4.075   3.092  17.677  0.00  0.00    +0.000 HD
ENDROOT
BRANCH   2   5
ATOM      5  C   UNL     1       5.823   4.734  16.709  0.00  0.00    +0.000 A 
ATOM      6  C   UNL     1       7.136   5.134  16.431  0.00  0.00    +0.000 A 
ATOM      7  C   UNL     1       7.615   5.089  15.111  0.00  0.00    +0.000 A 
ATOM      8  C   UNL     1       6.786   4.640  14.087  0.00  0.00    +0.000 A 
ATOM      9  F   UNL     1       7.246   4.610  12.829  0.00  0.00    +0.000 F 
ATOM     10  C   UNL     1       5.493   4.215  14.349  0.00  0.00    +0.000 A 
ATOM     11  C   UNL     1       5.014   4.256  15.662  0.00  0.00    +0.000 A 
ENDBRANCH   2   5
BRANCH   1  17
ATOM     12  C   UNL     1       3.745   2.656  20.381  0.00  0.00    +0.000 A 
ATOM     13  N   UNL     1       3.104   2.377  21.535  0.00  0.00    +0.000 NA
ATOM     14  C   UNL     1       2.146   3.234  21.881  0.00  0.00    +0.000 A 
ATOM     15  N   UNL     1       1.773   4.306  21.183  0.00  0.00    +0.000 NA
ATOM     16  C   UNL     1       2.431   4.537  20.020  0.00  0.00    +0.000 A 
ATOM     17  C   UNL     1       3.457   3.730  19.540  0.00  0.00    +0.000 A 
BRANCH  12  19
ATOM     18  C   UNL     1       5.338   1.126  21.123  0.00  0.00    +0.000 C 
ATOM     19  O   UNL     1       4.777   1.806  19.999  0.00  0.00    +0.000 OA
ENDBRANCH  12  19
BRANCH  16  20
ATOM     20  O   UNL     1       1.936   5.550  19.231  0.00  0.00    +0.000 OA
ATOM     21  C   UNL     1       2.404   6.844  19.601  0.00  0.00    +0.000 C 
ENDBRANCH  16  20
ENDBRANCH   1  17
TORSDOF 4
ENDMDL
MODEL 5
REMARK VINA RESULT:      -6.5      3.675      6.501
REMARK  Name = 
REMARK  6 active torsions:
REMARK  status: ('A' for Active; 'I' for Inactive)
REMARK    1  A    between atoms: C_1  and  O_2
REMARK    2  A    between atoms: O_2  and  C_3
REMARK    3  A    between atoms: C_7  and  O_8
REMARK    4  A    between atoms: O_8  and  C_9
REMARK    5  A    between atoms: C_10  and  N_11
REMARK    6  A    between atoms: C_12  and  C_14
REMARK                            x       y       z     vdW  Elec       q    Type
REMARK                         _______ _______ _______ _____ _____    ______ ____
ROOT
ATOM      1  N   UNL     1       4.020   4.897  17.073  0.00  0.00    +0.000 N 
ATOM      2  C   UNL     1       5.396   4.759  16.976  0.00  0.00    +0.000 C 
ATOM      3  O   UNL     1       6.171   4.617  17.914  0.00  0.00    +0.000 OA
ATOM      4  H   UNL     1       3.462   4.651  16.265  0.00  0.00    +0.000 HD
ENDROOT
BRANCH   2   5
ATOM      5  C   UNL     1       5.960   4.645  15.592  0.00  0.00    +0.000 A 
ATOM      6  C   UNL     1       7.171   5.232  15.201  0.00  0.00    +0.000 A 
ATOM      7  C   UNL     1       7.624   5.081  13.880  0.00  0.00    +0.000 A 
ATOM      8  C   UNL     1       6.873   4.343  12.968  0.00  0.00    +0.000 A 
ATOM      9  F   UNL     1       7.307   4.212  11.707  0.00  0.00    +0.000 F 
ATOM     10  C   UNL     1       5.688   3.734  13.347  0.00  0.00    +0.000 A 
ATOM     11  C   UNL     1       5.234   3.881  14.662  0.00  0.00    +0.000 A 
ENDBRANCH   2   5
BRANCH   1  17
ATOM     12  C   UNL     1       2.918   6.335  18.692  0.00  0.00    +0.000 A 
ATOM     13  N   UNL     1       2.256   6.635  19.828  0.00  0.00    +0.000 NA
ATOM     14  C   UNL     1       1.902   5.593  20.578  0.00  0.00    +0.000 A 
ATOM     15  N   UNL     1       2.161   4.315  20.304  0.00  0.00    +0.000 NA
ATOM     16  C   UNL     1       2.845   4.062  19.161  0.00  0.00    +0.000 A 
ATOM     17  C   UNL     1       3.271   5.051  18.281  0.00  0.00    +0.000 A 
BRANCH  12  19
ATOM     18  C   UNL     1       2.294   8.429  17.880  0.00  0.00    +0.000 C 
ATOM     19  O   UNL     1       3.277   7.391  17.861  0.00  0.00    +0.000 OA
ENDBRANCH  12  19
BRANCH  16  20
ATOM     20  O   UNL     1       3.245   2.759  18.966  0.00  0.00    +0.000 OA
ATOM     21  C   UNL     1       4.232   2.319  19.894  0.00  0.00    +0.000 C 
ENDBRANCH  16  20
ENDBRANCH   1  17
TORSDOF 4
ENDMDL
MODEL 6
REMARK VINA RESULT:      -6.5      3.697      6.519
REMARK  Name = 
REMARK  6 active torsions:
REMARK  status: ('A' for Active; 'I' for Inactive)
REMARK    1  A    between atoms: C_1  and  O_2
REMARK    2  A    between atoms: O_2  and  C_3
REMARK    3  A    between atoms: C_7  and  O_8
REMARK    4  A    between atoms: O_8  and  C_9
REMARK    5  A    between atoms: C_10  and  N_11
REMARK    6  A    between atoms: C_12  and  C_14
REMARK                            x       y       z     vdW  Elec       q    Type
REMARK                         _______ _______ _______ _____ _____    ______ ____
ROOT
ATOM      1  N   UNL     1       3.953   4.825  17.057  0.00  0.00    +0.000 N 
ATOM      2  C   UNL     1       5.319   4.644  16.910  0.00  0.00    +0.000 C 
ATOM      3  O   UNL     1       6.123   4.479  17.820  0.00  0.00    +0.000 OA
ATOM      4  H   UNL     1       3.359   4.595  16.270  0.00  0.00    +0.000 HD
ENDROOT
BRANCH   2   5
ATOM      5  C   UNL     1       5.829   4.508  15.507  0.00  0.00    +0.000 A 
ATOM      6  C   UNL     1       5.160   3.789  14.508  0.00  0.00    +0.000 A 
ATOM      7  C   UNL     1       5.711   3.707  13.220  0.00  0.00    +0.000 A 
ATOM      8  C   UNL     1       6.916   4.347  12.938  0.00  0.00    +0.000 A 
ATOM      9  F   UNL     1       7.441   4.255  11.709  0.00  0.00    +0.000 F 
ATOM     10  C   UNL     1       7.576   5.085  13.907  0.00  0.00    +0.000 A 
ATOM     11  C   UNL     1       7.028   5.170  15.191  0.00  0.00    +0.000 A 
ENDBRANCH   2   5
BRANCH   1  17
ATOM     12  C   UNL     1       2.934   6.300  18.697  0.00  0.00    +0.000 A 
ATOM     13  N   UNL     1       2.322   6.624  19.854  0.00  0.00    +0.000 NA
ATOM     14  C   UNL     1       1.982   5.597  20.631  0.00  0.00    +0.000 A 
ATOM     15  N   UNL     1       2.212   4.312  20.364  0.00  0.00    +0.000 NA
ATOM     16  C   UNL     1       2.849   4.034  19.199  0.00  0.00    +0.000 A 
ATOM     17  C   UNL     1       3.254   5.005  18.290  0.00  0.00    +0.000 A 
BRANCH  12  19
ATOM     18  C   UNL     1       2.278   8.363  17.835  0.00  0.00    +0.000 C 
ATOM     19  O   UNL     1       3.275   7.340  17.839  0.00  0.00    +0.000 OA
ENDBRANCH  12  19
BRANCH  16  20
ATOM     20  O   UNL     1       3.223   2.724  19.007  0.00  0.00    +0.000 OA
ATOM     21  C   UNL     1       4.253   2.287  19.888  0.00  0.00    +0.000 C 
ENDBRANCH  16  20
ENDBRANCH   1  17
TORSDOF 4
ENDMDL
MODEL 7
REMARK VINA RESULT:      -6.5      3.730      6.944
REMARK  Name = 
REMARK  6 active torsions:
REMARK  status: ('A' for Active; 'I' for Inactive)
REMARK    1  A    between atoms: C_1  and  O_2
REMARK    2  A    between atoms: O_2  and  C_3
REMARK    3  A    between atoms: C_7  and  O_8
REMARK    4  A    between atoms: O_8  and  C_9
REMARK    5  A    between atoms: C_10  and  N_11
REMARK    6  A    between atoms: C_12  and  C_14
REMARK                            x       y       z     vdW  Elec       q    Type
REMARK                         _______ _______ _______ _____ _____    ______ ____
ROOT
ATOM      1  N   UNL     1       3.756   4.529  17.011  0.00  0.00    +0.000 N 
ATOM      2  C   UNL     1       5.137   4.488  16.910  0.00  0.00    +0.000 C 
ATOM      3  O   UNL     1       5.923   4.393  17.845  0.00  0.00    +0.000 OA
ATOM      4  H   UNL     1       3.214   4.251  16.201  0.00  0.00    +0.000 HD
ENDROOT
BRANCH   2   5
ATOM      5  C   UNL     1       5.705   4.423  15.525  0.00  0.00    +0.000 A 
ATOM      6  C   UNL     1       5.071   3.769  14.460  0.00  0.00    +0.000 A 
ATOM      7  C   UNL     1       5.676   3.750  13.193  0.00  0.00    +0.000 A 
ATOM      8  C   UNL     1       6.899   4.388  12.998  0.00  0.00    +0.000 A 
ATOM      9  F   UNL     1       7.476   4.357  11.789  0.00  0.00    +0.000 F 
ATOM     10  C   UNL     1       7.525   5.062  14.034  0.00  0.00    +0.000 A 
ATOM     11  C   UNL     1       6.924   5.084  15.297  0.00  0.00    +0.000 A 
ENDBRANCH   2   5
BRANCH   1  17
ATOM     12  C   UNL     1       2.325   3.493  18.679  0.00  0.00    +0.000 A 
ATOM     13  N   UNL     1       1.539   3.445  19.773  0.00  0.00    +0.000 NA
ATOM     14  C   UNL     1       1.447   4.580  20.464  0.00  0.00    +0.000 A 
ATOM     15  N   UNL     1       2.044   5.730  20.152  0.00  0.00    +0.000 NA
ATOM     16  C   UNL     1       2.809   5.736  19.032  0.00  0.00    +0.000 A 
ATOM     17  C   UNL     1       3.000   4.623  18.220  0.00  0.00    +0.000 A 
BRANCH  12  19
ATOM     18  C   UNL     1       3.481   1.475  18.514  0.00  0.00    +0.000 C 
ATOM     19  O   UNL     1       2.477   2.319  17.947  0.00  0.00    +0.000 OA
ENDBRANCH  12  19
BRANCH  16  20
ATOM     20  O   UNL     1       3.292   6.961  18.631  0.00  0.00    +0.000 OA
ATOM     21  C   UNL     1       2.288   7.833  18.122  0.00  0.00    +0.000 C 
ENDBRANCH  16  20
ENDBRANCH   1  17
TORSDOF 4
ENDMDL
MODEL 8
REMARK VINA RESULT:      -6.5      3.750      7.007
REMARK  Name = 
REMARK  6 active torsions:
REMARK  status: ('A' for Active; 'I' for Inactive)
REMARK    1  A    between atoms: C_1  and  O_2
REMARK    2  A    between atoms: O_2  and  C_3
REMARK    3  A    between atoms: C_7  and  O_8
REMARK    4  A    between atoms: O_8  and  C_9
REMARK    5  A    between atoms: C_10  and  N_11
REMARK    6  A    between atoms: C_12  and  C_14
REMARK                            x       y       z     vdW  Elec       q    Type
REMARK                         _______ _______ _______ _____ _____    ______ ____
ROOT
ATOM      1  N   UNL     1       3.948   4.583  16.772  0.00  0.00    +0.000 N 
ATOM      2  C   UNL     1       5.331   4.524  16.705  0.00  0.00    +0.000 C 
ATOM      3  O   UNL     1       6.091   4.408  17.659  0.00  0.00    +0.000 OA
ATOM      4  H   UNL     1       3.423   4.321  15.946  0.00  0.00    +0.000 HD
ENDROOT
BRANCH   2   5
ATOM      5  C   UNL     1       5.932   4.469  15.334  0.00  0.00    +0.000 A 
ATOM      6  C   UNL     1       7.147   5.080  14.998  0.00  0.00    +0.000 A 
ATOM      7  C   UNL     1       7.637   4.984  13.685  0.00  0.00    +0.000 A 
ATOM      8  C   UNL     1       6.917   4.276  12.726  0.00  0.00    +0.000 A 
ATOM      9  F   UNL     1       7.385   4.198  11.473  0.00  0.00    +0.000 F 
ATOM     10  C   UNL     1       5.728   3.643  13.049  0.00  0.00    +0.000 A 
ATOM     11  C   UNL     1       5.239   3.734  14.356  0.00  0.00    +0.000 A 
ENDBRANCH   2   5
BRANCH   1  17
ATOM     12  C   UNL     1       2.547   3.519  18.448  0.00  0.00    +0.000 A 
ATOM     13  N   UNL     1       1.742   3.461  19.529  0.00  0.00    +0.000 NA
ATOM     14  C   UNL     1       1.570   4.611  20.178  0.00  0.00    +0.000 A 
ATOM     15  N   UNL     1       2.104   5.783  19.837  0.00  0.00    +0.000 NA
ATOM     16  C   UNL     1       2.890   5.798  18.732  0.00  0.00    +0.000 A 
ATOM     17  C   UNL     1       3.163   4.671  17.964  0.00  0.00    +0.000 A 
BRANCH  12  19
ATOM     18  C   UNL     1       3.590   1.435  18.527  0.00  0.00    +0.000 C 
ATOM     19  O   UNL     1       2.783   2.333  17.761  0.00  0.00    +0.000 OA
ENDBRANCH  12  19
BRANCH  16  20
ATOM     20  O   UNL     1       3.308   7.035  18.298  0.00  0.00    +0.000 OA
ATOM     21  C   UNL     1       2.294   8.034  18.356  0.00  0.00    +0.000 C 
ENDBRANCH  16  20
ENDBRANCH   1  17
TORSDOF 4
ENDMDL
MODEL 9
REMARK VINA RESULT:      -6.4      3.995      6.720
REMARK  Name = 
REMARK  6 active torsions:
REMARK  status: ('A' for Active; 'I' for Inactive)
REMARK    1  A    between atoms: C_1  and  O_2
REMARK    2  A    between atoms: O_2  and  C_3
REMARK    3  A    between atoms: C_7  and  O_8
REMARK    4  A    between atoms: O_8  and  C_9
REMARK    5  A    between atoms: C_10  and  N_11
REMARK    6  A    between atoms: C_12  and  C_14
REMARK                            x       y       z     vdW  Elec       q    Type
REMARK                         _______ _______ _______ _____ _____    ______ ____
ROOT
ATOM      1  N   UNL     1       4.129   3.846  18.288  0.00  0.00    +0.000 N 
ATOM      2  C   UNL     1       5.166   4.724  18.017  0.00  0.00    +0.000 C 
ATOM      3  O   UNL     1       5.739   5.434  18.836  0.00  0.00    +0.000 OA
ATOM      4  H   UNL     1       3.981   3.077  17.646  0.00  0.00    +0.000 HD
ENDROOT
BRANCH   2   5
ATOM      5  C   UNL     1       5.715   4.701  16.623  0.00  0.00    +0.000 A 
ATOM      6  C   UNL     1       4.998   4.221  15.519  0.00  0.00    +0.000 A 
ATOM      7  C   UNL     1       5.591   4.229  14.246  0.00  0.00    +0.000 A 
ATOM      8  C   UNL     1       6.884   4.722  14.084  0.00  0.00    +0.000 A 
ATOM      9  F   UNL     1       7.447   4.717  12.869  0.00  0.00    +0.000 F 
ATOM     10  C   UNL     1       7.595   5.225  15.162  0.00  0.00    +0.000 A 
ATOM     11  C   UNL     1       7.007   5.220  16.431  0.00  0.00    +0.000 A 
ENDBRANCH   2   5
BRANCH   1  17
ATOM     12  C   UNL     1       3.758   2.650  20.371  0.00  0.00    +0.000 A 
ATOM     13  N   UNL     1       3.158   2.375  21.546  0.00  0.00    +0.000 NA
ATOM     14  C   UNL     1       2.206   3.229  21.918  0.00  0.00    +0.000 A 
ATOM     15  N   UNL     1       1.804   4.294  21.225  0.00  0.00    +0.000 NA
ATOM     16  C   UNL     1       2.422   4.520  20.039  0.00  0.00    +0.000 A 
ATOM     17  C   UNL     1       3.437   3.716  19.532  0.00  0.00    +0.000 A 
BRANCH  12  19
ATOM     18  C   UNL     1       5.315   1.056  21.056  0.00  0.00    +0.000 C 
ATOM     19  O   UNL     1       4.783   1.804  19.960  0.00  0.00    +0.000 OA
ENDBRANCH  12  19
BRANCH  16  20
ATOM     20  O   UNL     1       1.895   5.525  19.260  0.00  0.00    +0.000 OA
ATOM     21  C   UNL     1       2.408   6.817  19.567  0.00  0.00    +0.000 C 
ENDBRANCH  16  20
ENDBRANCH   1  17
TORSDOF 4
ENDMDL
