MODEL 1
REMARK VINA RESULT:      -7.9      0.000      0.000
REMARK  Name = 
REMARK  9 active torsions:
REMARK  status: ('A' for Active; 'I' for Inactive)
REMARK    1  A    between atoms: C_2  and  C_4
REMARK    2  A    between atoms: C_4  and  C_5
REMARK    3  A    between atoms: C_4  and  N_12
REMARK    4  A    between atoms: C_5  and  C_6
REMARK    5  A    between atoms: C_13  and  C_15
REMARK    6  A    between atoms: C_15  and  N_16
REMARK    7  A    between atoms: C_17  and  O_19
REMARK    8  A    between atoms: O_19  and  C_20
REMARK    9  A    between atoms: C_20  and  C_21
REMARK                            x       y       z     vdW  Elec       q    Type
REMARK                         _______ _______ _______ _____ _____    ______ ____
ROOT
ATOM      1  N   UNL     1       5.256   4.624  17.894  0.00  0.00    +0.000 N 
ATOM      2  C   UNL     1       6.295   4.934  18.734  0.00  0.00    +0.000 C 
ATOM      3  O   UNL     1       6.225   4.854  19.959  0.00  0.00    +0.000 OA
ATOM      4  H   UNL     1       5.286   4.963  16.933  0.00  0.00    +0.000 HD
ENDROOT
BRANCH   1   5
ATOM      5  C   UNL     1       3.934   4.214  18.363  0.00  0.00    +0.000 C 
BRANCH   5   7
ATOM      6  N   UNL     1       4.745   2.271  19.688  0.00  0.00    +0.000 N 
ATOM      7  C   UNL     1       4.002   2.695  18.626  0.00  0.00    +0.000 C 
ATOM      8  O   UNL     1       3.365   1.875  17.965  0.00  0.00    +0.000 OA
ATOM      9  H   UNL     1       4.770   1.273  19.862  0.00  0.00    +0.000 HD
ATOM     10  H   UNL     1       5.295   2.877  20.279  0.00  0.00    +0.000 HD
ENDBRANCH   5   7
BRANCH   5  11
ATOM     11  C   UNL     1       3.420   5.018  19.569  0.00  0.00    +0.000 C 
BRANCH  11  12
ATOM     12  C   UNL     1       2.883   6.405  19.287  0.00  0.00    +0.000 A 
ATOM     13  C   UNL     1       3.094   7.008  18.039  0.00  0.00    +0.000 A 
ATOM     14  C   UNL     1       2.520   8.245  17.742  0.00  0.00    +0.000 A 
ATOM     15  C   UNL     1       1.732   8.895  18.689  0.00  0.00    +0.000 A 
ATOM     16  C   UNL     1       1.537   8.317  19.942  0.00  0.00    +0.000 A 
ATOM     17  C   UNL     1       2.112   7.081  20.242  0.00  0.00    +0.000 A 
ENDBRANCH  11  12
ENDBRANCH   5  11
ENDBRANCH   1   5
BRANCH   2  18
ATOM     18  C   UNL     1       7.579   5.337  18.010  0.00  0.00    +0.000 C 
BRANCH  18  19
ATOM     19  N   UNL     1       7.847   6.745  18.173  0.00  0.00    +0.000 N 
ATOM     20  C   UNL     1       7.241   7.679  17.388  0.00  0.00    +0.000 C 
ATOM     21  O   UNL     1       6.432   7.424  16.512  0.00  0.00    +0.000 OA
ATOM     22  H   UNL     1       8.388   7.077  18.958  0.00  0.00    +0.000 HD
BRANCH  20  23
ATOM     23  O   UNL     1       7.733   8.904  17.685  0.00  0.00    +0.000 OA
BRANCH  23  24
ATOM     24  C   UNL     1       8.739   8.921  18.703  0.00  0.00    +0.000 C 
BRANCH  24  25
ATOM     25  C   UNL     1       9.154  10.331  19.029  0.00  0.00    +0.000 A 
ATOM     26  C   UNL     1       9.470  10.697  20.344  0.00  0.00    +0.000 A 
ATOM     27  C   UNL     1       9.879  11.999  20.637  0.00  0.00    +0.000 A 
ATOM     28  C   UNL     1       9.968  12.948  19.621  0.00  0.00    +0.000 A 
ATOM     29  C   UNL     1       9.647  12.598  18.311  0.00  0.00    +0.000 A 
ATOM     30  C   UNL     1       9.237  11.295  18.015  0.00  0.00    +0.000 A 
ENDBRANCH  24  25
ENDBRANCH  23  24
ENDBRANCH  20  23
ENDBRANCH  18  19
ENDBRANCH   2  18
TORSDOF 9
ENDMDL
MODEL 2
REMARK VINA RESULT:      -7.9      4.180      7.787
REMARK  Name = 
REMARK  9 active torsions:
REMARK  status: ('A' for Active; 'I' for Inactive)
REMARK    1  A    between atoms: C_2  and  C_4
REMARK    2  A    between atoms: C_4  and  C_5
REMARK    3  A    between atoms: C_4  and  N_12
REMARK    4  A    between atoms: C_5  and  C_6
REMARK    5  A    between atoms: C_13  and  C_15
REMARK    6  A    between atoms: C_15  and  N_16
REMARK    7  A    between atoms: C_17  and  O_19
REMARK    8  A    between atoms: O_19  and  C_20
REMARK    9  A    between atoms: C_20  and  C_21
REMARK                            x       y       z     vdW  Elec       q    Type
REMARK                         _______ _______ _______ _____ _____    ______ ____
ROOT
ATOM      1  N   UNL     1       4.830   5.811  17.581  0.00  0.00    +0.000 N 
ATOM      2  C   UNL     1       4.222   6.953  17.121  0.00  0.00    +0.000 C 
ATOM      3  O   UNL     1       4.559   7.533  16.092  0.00  0.00    +0.000 OA
ATOM      4  H   UNL     1       4.690   5.541  18.555  0.00  0.00    +0.000 HD
ENDROOT
BRANCH   1   5
ATOM      5  C   UNL     1       5.978   5.189  16.927  0.00  0.00    +0.000 C 
BRANCH   5   7
ATOM      6  N   UNL     1       8.118   4.162  17.673  0.00  0.00    +0.000 N 
ATOM      7  C   UNL     1       6.922   4.700  18.046  0.00  0.00    +0.000 C 
ATOM      8  O   UNL     1       6.665   4.840  19.242  0.00  0.00    +0.000 OA
ATOM      9  H   UNL     1       8.737   3.859  18.415  0.00  0.00    +0.000 HD
ATOM     10  H   UNL     1       8.404   4.013  16.716  0.00  0.00    +0.000 HD
ENDBRANCH   5   7
BRANCH   5  11
ATOM     11  C   UNL     1       5.604   4.086  15.921  0.00  0.00    +0.000 C 
BRANCH  11  12
ATOM     12  C   UNL     1       6.155   4.225  14.519  0.00  0.00    +0.000 A 
ATOM     13  C   UNL     1       7.148   5.174  14.236  0.00  0.00    +0.000 A 
ATOM     14  C   UNL     1       7.726   5.241  12.967  0.00  0.00    +0.000 A 
ATOM     15  C   UNL     1       7.317   4.362  11.966  0.00  0.00    +0.000 A 
ATOM     16  C   UNL     1       6.312   3.433  12.228  0.00  0.00    +0.000 A 
ATOM     17  C   UNL     1       5.732   3.366  13.496  0.00  0.00    +0.000 A 
ENDBRANCH  11  12
ENDBRANCH   5  11
ENDBRANCH   1   5
BRANCH   2  18
ATOM     18  C   UNL     1       3.041   7.414  17.975  0.00  0.00    +0.000 C 
BRANCH  18  19
ATOM     19  N   UNL     1       2.648   6.390  18.912  0.00  0.00    +0.000 N 
ATOM     20  C   UNL     1       2.160   6.703  20.144  0.00  0.00    +0.000 C 
ATOM     21  O   UNL     1       2.003   7.841  20.555  0.00  0.00    +0.000 OA
ATOM     22  H   UNL     1       2.601   5.423  18.625  0.00  0.00    +0.000 HD
BRANCH  20  23
ATOM     23  O   UNL     1       1.956   5.567  20.850  0.00  0.00    +0.000 OA
BRANCH  23  24
ATOM     24  C   UNL     1       1.166   4.575  20.184  0.00  0.00    +0.000 C 
BRANCH  24  25
ATOM     25  C   UNL     1       2.040   3.565  19.489  0.00  0.00    +0.000 A 
ATOM     26  C   UNL     1       1.741   3.137  18.188  0.00  0.00    +0.000 A 
ATOM     27  C   UNL     1       2.569   2.220  17.538  0.00  0.00    +0.000 A 
ATOM     28  C   UNL     1       3.696   1.717  18.184  0.00  0.00    +0.000 A 
ATOM     29  C   UNL     1       3.997   2.129  19.481  0.00  0.00    +0.000 A 
ATOM     30  C   UNL     1       3.171   3.046  20.134  0.00  0.00    +0.000 A 
ENDBRANCH  24  25
ENDBRANCH  23  24
ENDBRANCH  20  23
ENDBRANCH  18  19
ENDBRANCH   2  18
TORSDOF 9
ENDMDL
MODEL 3
REMARK VINA RESULT:      -7.8      4.186      7.159
REMARK  Name = 
REMARK  9 active torsions:
REMARK  status: ('A' for Active; 'I' for Inactive)
REMARK    1  A    between atoms: C_2  and  C_4
REMARK    2  A    between atoms: C_4  and  C_5
REMARK    3  A    between atoms: C_4  and  N_12
REMARK    4  A    between atoms: C_5  and  C_6
REMARK    5  A    between atoms: C_13  and  C_15
REMARK    6  A    between atoms: C_15  and  N_16
REMARK    7  A    between atoms: C_17  and  O_19
REMARK    8  A    between atoms: O_19  and  C_20
REMARK    9  A    between atoms: C_20  and  C_21
REMARK                            x       y       z     vdW  Elec       q    Type
REMARK                         _______ _______ _______ _____ _____    ______ ____
ROOT
ATOM      1  N   UNL     1       4.419   6.774  17.852  0.00  0.00    +0.000 N 
ATOM      2  C   UNL     1       5.527   6.105  18.306  0.00  0.00    +0.000 C 
ATOM      3  O   UNL     1       5.512   5.342  19.270  0.00  0.00    +0.000 OA
ATOM      4  H   UNL     1       4.550   7.579  17.238  0.00  0.00    +0.000 HD
ENDROOT
BRANCH   1   5
ATOM      5  C   UNL     1       3.109   6.697  18.495  0.00  0.00    +0.000 C 
BRANCH   5   7
ATOM      6  N   UNL     1       1.723   8.587  19.329  0.00  0.00    +0.000 N 
ATOM      7  C   UNL     1       2.424   8.063  18.283  0.00  0.00    +0.000 C 
ATOM      8  O   UNL     1       2.543   8.714  17.245  0.00  0.00    +0.000 OA
ATOM      9  H   UNL     1       1.290   9.492  19.184  0.00  0.00    +0.000 HD
ATOM     10  H   UNL     1       1.579   8.119  20.211  0.00  0.00    +0.000 HD
ENDBRANCH   5   7
BRANCH   5  11
ATOM     11  C   UNL     1       2.252   5.507  18.030  0.00  0.00    +0.000 C 
BRANCH  11  12
ATOM     12  C   UNL     1       1.933   4.450  19.064  0.00  0.00    +0.000 A 
ATOM     13  C   UNL     1       1.578   3.153  18.668  0.00  0.00    +0.000 A 
ATOM     14  C   UNL     1       1.375   2.150  19.618  0.00  0.00    +0.000 A 
ATOM     15  C   UNL     1       1.522   2.433  20.974  0.00  0.00    +0.000 A 
ATOM     16  C   UNL     1       1.849   3.725  21.381  0.00  0.00    +0.000 A 
ATOM     17  C   UNL     1       2.050   4.729  20.433  0.00  0.00    +0.000 A 
ENDBRANCH  11  12
ENDBRANCH   5  11
ENDBRANCH   1   5
BRANCH   2  18
ATOM     18  C   UNL     1       6.783   6.344  17.468  0.00  0.00    +0.000 C 
BRANCH  18  19
ATOM     19  N   UNL     1       6.488   6.267  16.057  0.00  0.00    +0.000 N 
ATOM     20  C   UNL     1       6.980   5.263  15.281  0.00  0.00    +0.000 C 
ATOM     21  O   UNL     1       7.682   4.354  15.692  0.00  0.00    +0.000 OA
ATOM     22  H   UNL     1       5.803   6.883  15.643  0.00  0.00    +0.000 HD
BRANCH  20  23
ATOM     23  O   UNL     1       6.630   5.477  13.992  0.00  0.00    +0.000 OA
BRANCH  23  24
ATOM     24  C   UNL     1       7.504   4.890  13.022  0.00  0.00    +0.000 C 
BRANCH  24  25
ATOM     25  C   UNL     1       6.844   3.725  12.335  0.00  0.00    +0.000 A 
ATOM     26  C   UNL     1       5.448   3.606  12.316  0.00  0.00    +0.000 A 
ATOM     27  C   UNL     1       4.838   2.537  11.655  0.00  0.00    +0.000 A 
ATOM     28  C   UNL     1       5.618   1.576  11.016  0.00  0.00    +0.000 A 
ATOM     29  C   UNL     1       7.008   1.680  11.037  0.00  0.00    +0.000 A 
ATOM     30  C   UNL     1       7.620   2.747  11.698  0.00  0.00    +0.000 A 
ENDBRANCH  24  25
ENDBRANCH  23  24
ENDBRANCH  20  23
ENDBRANCH  18  19
ENDBRANCH   2  18
TORSDOF 9
ENDMDL
MODEL 4
REMARK VINA RESULT:      -7.8      0.972      1.025
REMARK  Name = 
REMARK  9 active torsions:
REMARK  status: ('A' for Active; 'I' for Inactive)
REMARK    1  A    between atoms: C_2  and  C_4
REMARK    2  A    between atoms: C_4  and  C_5
REMARK    3  A    between atoms: C_4  and  N_12
REMARK    4  A    between atoms: C_5  and  C_6
REMARK    5  A    between atoms: C_13  and  C_15
REMARK    6  A    between atoms: C_15  and  N_16
REMARK    7  A    between atoms: C_17  and  O_19
REMARK    8  A    between atoms: O_19  and  C_20
REMARK    9  A    between atoms: C_20  and  C_21
REMARK                            x       y       z     vdW  Elec       q    Type
REMARK                         _______ _______ _______ _____ _____    ______ ____
ROOT
ATOM      1  N   UNL     1       4.808   5.211  17.649  0.00  0.00    +0.000 N 
ATOM      2  C   UNL     1       5.781   4.903  18.566  0.00  0.00    +0.000 C 
ATOM      3  O   UNL     1       5.541   4.533  19.713  0.00  0.00    +0.000 OA
ATOM      4  H   UNL     1       5.065   5.759  16.828  0.00  0.00    +0.000 HD
ENDROOT
BRANCH   1   5
ATOM      5  C   UNL     1       3.378   5.182  17.949  0.00  0.00    +0.000 C 
BRANCH   5   7
ATOM      6  N   UNL     1       3.440   2.818  18.723  0.00  0.00    +0.000 N 
ATOM      7  C   UNL     1       2.924   3.712  17.831  0.00  0.00    +0.000 C 
ATOM      8  O   UNL     1       2.076   3.340  17.020  0.00  0.00    +0.000 OA
ATOM      9  H   UNL     1       3.123   1.859  18.647  0.00  0.00    +0.000 HD
ATOM     10  H   UNL     1       4.137   3.042  19.418  0.00  0.00    +0.000 HD
ENDBRANCH   5   7
BRANCH   5  11
ATOM     11  C   UNL     1       3.008   5.827  19.295  0.00  0.00    +0.000 C 
BRANCH  11  12
ATOM     12  C   UNL     1       2.368   7.197  19.243  0.00  0.00    +0.000 A 
ATOM     13  C   UNL     1       2.360   7.933  18.050  0.00  0.00    +0.000 A 
ATOM     14  C   UNL     1       1.689   9.155  17.972  0.00  0.00    +0.000 A 
ATOM     15  C   UNL     1       1.020   9.656  19.087  0.00  0.00    +0.000 A 
ATOM     16  C   UNL     1       1.043   8.946  20.286  0.00  0.00    +0.000 A 
ATOM     17  C   UNL     1       1.716   7.726  20.366  0.00  0.00    +0.000 A 
ENDBRANCH  11  12
ENDBRANCH   5  11
ENDBRANCH   1   5
BRANCH   2  18
ATOM     18  C   UNL     1       7.204   5.006  18.019  0.00  0.00    +0.000 C 
BRANCH  18  19
ATOM     19  N   UNL     1       7.845   6.220  18.464  0.00  0.00    +0.000 N 
ATOM     20  C   UNL     1       7.673   7.398  17.802  0.00  0.00    +0.000 C 
ATOM     21  O   UNL     1       6.975   7.538  16.812  0.00  0.00    +0.000 OA
ATOM     22  H   UNL     1       8.328   6.250  19.350  0.00  0.00    +0.000 HD
BRANCH  20  23
ATOM     23  O   UNL     1       8.450   8.350  18.370  0.00  0.00    +0.000 OA
BRANCH  23  24
ATOM     24  C   UNL     1       8.505   9.590  17.656  0.00  0.00    +0.000 C 
BRANCH  24  25
ATOM     25  C   UNL     1       9.014  10.699  18.538  0.00  0.00    +0.000 A 
ATOM     26  C   UNL     1       9.334  10.453  19.881  0.00  0.00    +0.000 A 
ATOM     27  C   UNL     1       9.829  11.478  20.689  0.00  0.00    +0.000 A 
ATOM     28  C   UNL     1      10.001  12.757  20.166  0.00  0.00    +0.000 A 
ATOM     29  C   UNL     1       9.677  13.015  18.835  0.00  0.00    +0.000 A 
ATOM     30  C   UNL     1       9.180  11.992  18.024  0.00  0.00    +0.000 A 
ENDBRANCH  24  25
ENDBRANCH  23  24
ENDBRANCH  20  23
ENDBRANCH  18  19
ENDBRANCH   2  18
TORSDOF 9
ENDMDL
MODEL 5
REMARK VINA RESULT:      -7.7      2.348      3.346
REMARK  Name = 
REMARK  9 active torsions:
REMARK  status: ('A' for Active; 'I' for Inactive)
REMARK    1  A    between atoms: C_2  and  C_4
REMARK    2  A    between atoms: C_4  and  C_5
REMARK    3  A    between atoms: C_4  and  N_12
REMARK    4  A    between atoms: C_5  and  C_6
REMARK    5  A    between atoms: C_13  and  C_15
REMARK    6  A    between atoms: C_15  and  N_16
REMARK    7  A    between atoms: C_17  and  O_19
REMARK    8  A    between atoms: O_19  and  C_20
REMARK    9  A    between atoms: C_20  and  C_21
REMARK                            x       y       z     vdW  Elec       q    Type
REMARK                         _______ _______ _______ _____ _____    ______ ____
ROOT
ATOM      1  N   UNL     1       5.836   5.661  17.898  0.00  0.00    +0.000 N 
ATOM      2  C   UNL     1       7.121   5.191  17.797  0.00  0.00    +0.000 C 
ATOM      3  O   UNL     1       7.504   4.449  16.895  0.00  0.00    +0.000 OA
ATOM      4  H   UNL     1       5.522   6.038  18.793  0.00  0.00    +0.000 HD
ENDROOT
BRANCH   1   5
ATOM      5  C   UNL     1       4.766   5.290  16.975  0.00  0.00    +0.000 C 
BRANCH   5   7
ATOM      6  N   UNL     1       5.528   4.730  14.673  0.00  0.00    +0.000 N 
ATOM      7  C   UNL     1       5.223   5.717  15.564  0.00  0.00    +0.000 C 
ATOM      8  O   UNL     1       5.253   6.893  15.202  0.00  0.00    +0.000 OA
ATOM      9  H   UNL     1       5.811   5.021  13.745  0.00  0.00    +0.000 HD
ATOM     10  H   UNL     1       5.527   3.744  14.891  0.00  0.00    +0.000 HD
ENDBRANCH   5   7
BRANCH   5  11
ATOM     11  C   UNL     1       4.351   3.811  17.059  0.00  0.00    +0.000 C 
BRANCH  11  12
ATOM     12  C   UNL     1       3.144   3.488  17.911  0.00  0.00    +0.000 A 
ATOM     13  C   UNL     1       2.807   2.155  18.189  0.00  0.00    +0.000 A 
ATOM     14  C   UNL     1       1.751   1.855  19.052  0.00  0.00    +0.000 A 
ATOM     15  C   UNL     1       1.019   2.882  19.644  0.00  0.00    +0.000 A 
ATOM     16  C   UNL     1       1.328   4.209  19.355  0.00  0.00    +0.000 A 
ATOM     17  C   UNL     1       2.382   4.511  18.491  0.00  0.00    +0.000 A 
ENDBRANCH  11  12
ENDBRANCH   5  11
ENDBRANCH   1   5
BRANCH   2  18
ATOM     18  C   UNL     1       8.062   5.720  18.879  0.00  0.00    +0.000 C 
BRANCH  18  19
ATOM     19  N   UNL     1       8.053   7.163  18.915  0.00  0.00    +0.000 N 
ATOM     20  C   UNL     1       8.053   7.902  17.772  0.00  0.00    +0.000 C 
ATOM     21  O   UNL     1       8.048   7.432  16.646  0.00  0.00    +0.000 OA
ATOM     22  H   UNL     1       7.913   7.653  19.786  0.00  0.00    +0.000 HD
BRANCH  20  23
ATOM     23  O   UNL     1       8.135   9.215  18.085  0.00  0.00    +0.000 OA
BRANCH  23  24
ATOM     24  C   UNL     1       9.015   9.524  19.172  0.00  0.00    +0.000 C 
BRANCH  24  25
ATOM     25  C   UNL     1       9.596  10.905  19.021  0.00  0.00    +0.000 A 
ATOM     26  C   UNL     1       9.341  11.665  17.871  0.00  0.00    +0.000 A 
ATOM     27  C   UNL     1       9.860  12.955  17.746  0.00  0.00    +0.000 A 
ATOM     28  C   UNL     1      10.645  13.493  18.764  0.00  0.00    +0.000 A 
ATOM     29  C   UNL     1      10.913  12.742  19.907  0.00  0.00    +0.000 A 
ATOM     30  C   UNL     1      10.395  11.451  20.034  0.00  0.00    +0.000 A 
ENDBRANCH  24  25
ENDBRANCH  23  24
ENDBRANCH  20  23
ENDBRANCH  18  19
ENDBRANCH   2  18
TORSDOF 9
ENDMDL
MODEL 6
REMARK VINA RESULT:      -7.7      2.417      4.149
REMARK  Name = 
REMARK  9 active torsions:
REMARK  status: ('A' for Active; 'I' for Inactive)
REMARK    1  A    between atoms: C_2  and  C_4
REMARK    2  A    between atoms: C_4  and  C_5
REMARK    3  A    between atoms: C_4  and  N_12
REMARK    4  A    between atoms: C_5  and  C_6
REMARK    5  A    between atoms: C_13  and  C_15
REMARK    6  A    between atoms: C_15  and  N_16
REMARK    7  A    between atoms: C_17  and  O_19
REMARK    8  A    between atoms: O_19  and  C_20
REMARK    9  A    between atoms: C_20  and  C_21
REMARK                            x       y       z     vdW  Elec       q    Type
REMARK                         _______ _______ _______ _____ _____    ______ ____
ROOT
ATOM      1  N   UNL     1       6.703   7.246  16.992  0.00  0.00    +0.000 N 
ATOM      2  C   UNL     1       7.684   7.651  17.861  0.00  0.00    +0.000 C 
ATOM      3  O   UNL     1       8.178   6.919  18.717  0.00  0.00    +0.000 OA
ATOM      4  H   UNL     1       6.158   7.956  16.504  0.00  0.00    +0.000 HD
ENDROOT
BRANCH   1   5
ATOM      5  C   UNL     1       6.099   5.916  17.020  0.00  0.00    +0.000 C 
BRANCH   5   7
ATOM      6  N   UNL     1       7.707   4.182  17.795  0.00  0.00    +0.000 N 
ATOM      7  C   UNL     1       7.229   4.903  16.740  0.00  0.00    +0.000 C 
ATOM      8  O   UNL     1       7.658   4.680  15.608  0.00  0.00    +0.000 OA
ATOM      9  H   UNL     1       8.438   3.509  17.597  0.00  0.00    +0.000 HD
ATOM     10  H   UNL     1       7.409   4.303  18.751  0.00  0.00    +0.000 HD
ENDBRANCH   5   7
BRANCH   5  11
ATOM     11  C   UNL     1       5.314   5.611  18.308  0.00  0.00    +0.000 C 
BRANCH  11  12
ATOM     12  C   UNL     1       4.098   4.722  18.172  0.00  0.00    +0.000 A 
ATOM     13  C   UNL     1       4.196   3.343  18.404  0.00  0.00    +0.000 A 
ATOM     14  C   UNL     1       3.059   2.534  18.373  0.00  0.00    +0.000 A 
ATOM     15  C   UNL     1       1.811   3.094  18.108  0.00  0.00    +0.000 A 
ATOM     16  C   UNL     1       1.704   4.460  17.851  0.00  0.00    +0.000 A 
ATOM     17  C   UNL     1       2.841   5.269  17.879  0.00  0.00    +0.000 A 
ENDBRANCH  11  12
ENDBRANCH   5  11
ENDBRANCH   1   5
BRANCH   2  18
ATOM     18  C   UNL     1       8.158   9.087  17.637  0.00  0.00    +0.000 C 
BRANCH  18  19
ATOM     19  N   UNL     1       8.770   9.623  18.828  0.00  0.00    +0.000 N 
ATOM     20  C   UNL     1       9.308  10.874  18.850  0.00  0.00    +0.000 C 
ATOM     21  O   UNL     1       9.311  11.640  17.900  0.00  0.00    +0.000 OA
ATOM     22  H   UNL     1       8.696   9.133  19.708  0.00  0.00    +0.000 HD
BRANCH  20  23
ATOM     23  O   UNL     1       9.892  11.092  20.050  0.00  0.00    +0.000 OA
BRANCH  23  24
ATOM     24  C   UNL     1       9.959  12.465  20.450  0.00  0.00    +0.000 C 
BRANCH  24  25
ATOM     25  C   UNL     1       9.266  12.678  21.770  0.00  0.00    +0.000 A 
ATOM     26  C   UNL     1       9.264  13.940  22.380  0.00  0.00    +0.000 A 
ATOM     27  C   UNL     1       8.599  14.139  23.591  0.00  0.00    +0.000 A 
ATOM     28  C   UNL     1       7.939  13.078  24.207  0.00  0.00    +0.000 A 
ATOM     29  C   UNL     1       7.943  11.816  23.614  0.00  0.00    +0.000 A 
ATOM     30  C   UNL     1       8.608  11.614  22.402  0.00  0.00    +0.000 A 
ENDBRANCH  24  25
ENDBRANCH  23  24
ENDBRANCH  20  23
ENDBRANCH  18  19
ENDBRANCH   2  18
TORSDOF 9
ENDMDL
MODEL 7
REMARK VINA RESULT:      -7.6      1.895      3.375
REMARK  Name = 
REMARK  9 active torsions:
REMARK  status: ('A' for Active; 'I' for Inactive)
REMARK    1  A    between atoms: C_2  and  C_4
REMARK    2  A    between atoms: C_4  and  C_5
REMARK    3  A    between atoms: C_4  and  N_12
REMARK    4  A    between atoms: C_5  and  C_6
REMARK    5  A    between atoms: C_13  and  C_15
REMARK    6  A    between atoms: C_15  and  N_16
REMARK    7  A    between atoms: C_17  and  O_19
REMARK    8  A    between atoms: O_19  and  C_20
REMARK    9  A    between atoms: C_20  and  C_21
REMARK                            x       y       z     vdW  Elec       q    Type
REMARK                         _______ _______ _______ _____ _____    ______ ____
ROOT
ATOM      1  N   UNL     1       5.507   5.796  18.776  0.00  0.00    +0.000 N 
ATOM      2  C   UNL     1       6.350   4.981  18.062  0.00  0.00    +0.000 C 
ATOM      3  O   UNL     1       5.986   4.299  17.106  0.00  0.00    +0.000 OA
ATOM      4  H   UNL     1       5.800   6.114  19.699  0.00  0.00    +0.000 HD
ENDROOT
BRANCH   1   5
ATOM      5  C   UNL     1       4.074   5.904  18.512  0.00  0.00    +0.000 C 
BRANCH   5   7
ATOM      6  N   UNL     1       4.648   6.887  16.300  0.00  0.00    +0.000 N 
ATOM      7  C   UNL     1       3.897   6.993  17.433  0.00  0.00    +0.000 C 
ATOM      8  O   UNL     1       3.067   7.897  17.530  0.00  0.00    +0.000 OA
ATOM      9  H   UNL     1       4.512   7.599  15.591  0.00  0.00    +0.000 HD
ATOM     10  H   UNL     1       5.348   6.178  16.143  0.00  0.00    +0.000 HD
ENDBRANCH   5   7
BRANCH   5  11
ATOM     11  C   UNL     1       3.402   4.570  18.146  0.00  0.00    +0.000 C 
BRANCH  11  12
ATOM     12  C   UNL     1       2.697   3.831  19.262  0.00  0.00    +0.000 A 
ATOM     13  C   UNL     1       3.435   3.140  20.234  0.00  0.00    +0.000 A 
ATOM     14  C   UNL     1       2.794   2.537  21.318  0.00  0.00    +0.000 A 
ATOM     15  C   UNL     1       1.408   2.616  21.441  0.00  0.00    +0.000 A 
ATOM     16  C   UNL     1       0.662   3.278  20.468  0.00  0.00    +0.000 A 
ATOM     17  C   UNL     1       1.302   3.878  19.382  0.00  0.00    +0.000 A 
ENDBRANCH  11  12
ENDBRANCH   5  11
ENDBRANCH   1   5
BRANCH   2  18
ATOM     18  C   UNL     1       7.805   5.037  18.524  0.00  0.00    +0.000 C 
BRANCH  18  19
ATOM     19  N   UNL     1       8.158   6.364  18.968  0.00  0.00    +0.000 N 
ATOM     20  C   UNL     1       8.070   7.439  18.137  0.00  0.00    +0.000 C 
ATOM     21  O   UNL     1       7.686   7.388  16.981  0.00  0.00    +0.000 OA
ATOM     22  H   UNL     1       8.351   6.544  19.943  0.00  0.00    +0.000 HD
BRANCH  20  23
ATOM     23  O   UNL     1       8.542   8.537  18.771  0.00  0.00    +0.000 OA
BRANCH  23  24
ATOM     24  C   UNL     1       8.535   9.737  17.989  0.00  0.00    +0.000 C 
BRANCH  24  25
ATOM     25  C   UNL     1       9.367  10.810  18.638  0.00  0.00    +0.000 A 
ATOM     26  C   UNL     1       9.840  11.897  17.891  0.00  0.00    +0.000 A 
ATOM     27  C   UNL     1      10.590  12.904  18.502  0.00  0.00    +0.000 A 
ATOM     28  C   UNL     1      10.880  12.828  19.863  0.00  0.00    +0.000 A 
ATOM     29  C   UNL     1      10.423  11.746  20.614  0.00  0.00    +0.000 A 
ATOM     30  C   UNL     1       9.673  10.738  20.004  0.00  0.00    +0.000 A 
ENDBRANCH  24  25
ENDBRANCH  23  24
ENDBRANCH  20  23
ENDBRANCH  18  19
ENDBRANCH   2  18
TORSDOF 9
ENDMDL
MODEL 8
REMARK VINA RESULT:      -7.6      1.266      1.433
REMARK  Name = 
REMARK  9 active torsions:
REMARK  status: ('A' for Active; 'I' for Inactive)
REMARK    1  A    between atoms: C_2  and  C_4
REMARK    2  A    between atoms: C_4  and  C_5
REMARK    3  A    between atoms: C_4  and  N_12
REMARK    4  A    between atoms: C_5  and  C_6
REMARK    5  A    between atoms: C_13  and  C_15
REMARK    6  A    between atoms: C_15  and  N_16
REMARK    7  A    between atoms: C_17  and  O_19
REMARK    8  A    between atoms: O_19  and  C_20
REMARK    9  A    between atoms: C_20  and  C_21
REMARK                            x       y       z     vdW  Elec       q    Type
REMARK                         _______ _______ _______ _____ _____    ______ ____
ROOT
ATOM      1  N   UNL     1       5.486   4.711  18.780  0.00  0.00    +0.000 N 
ATOM      2  C   UNL     1       6.816   4.869  18.485  0.00  0.00    +0.000 C 
ATOM      3  O   UNL     1       7.348   4.406  17.478  0.00  0.00    +0.000 OA
ATOM      4  H   UNL     1       5.173   4.878  19.736  0.00  0.00    +0.000 HD
ENDROOT
BRANCH   1   5
ATOM      5  C   UNL     1       4.564   3.930  17.958  0.00  0.00    +0.000 C 
BRANCH   5   7
ATOM      6  N   UNL     1       3.990   1.510  18.002  0.00  0.00    +0.000 N 
ATOM      7  C   UNL     1       4.263   2.629  18.731  0.00  0.00    +0.000 C 
ATOM      8  O   UNL     1       4.329   2.554  19.959  0.00  0.00    +0.000 OA
ATOM      9  H   UNL     1       3.810   0.658  18.520  0.00  0.00    +0.000 HD
ATOM     10  H   UNL     1       3.918   1.487  16.996  0.00  0.00    +0.000 HD
ENDBRANCH   5   7
BRANCH   5  11
ATOM     11  C   UNL     1       3.297   4.695  17.539  0.00  0.00    +0.000 C 
BRANCH  11  12
ATOM     12  C   UNL     1       2.800   5.765  18.486  0.00  0.00    +0.000 A 
ATOM     13  C   UNL     1       2.791   7.111  18.097  0.00  0.00    +0.000 A 
ATOM     14  C   UNL     1       2.245   8.089  18.931  0.00  0.00    +0.000 A 
ATOM     15  C   UNL     1       1.705   7.732  20.164  0.00  0.00    +0.000 A 
ATOM     16  C   UNL     1       1.731   6.400  20.573  0.00  0.00    +0.000 A 
ATOM     17  C   UNL     1       2.279   5.422  19.742  0.00  0.00    +0.000 A 
ENDBRANCH  11  12
ENDBRANCH   5  11
ENDBRANCH   1   5
BRANCH   2  18
ATOM     18  C   UNL     1       7.578   5.727  19.494  0.00  0.00    +0.000 C 
BRANCH  18  19
ATOM     19  N   UNL     1       8.226   6.840  18.844  0.00  0.00    +0.000 N 
ATOM     20  C   UNL     1       7.554   7.647  17.977  0.00  0.00    +0.000 C 
ATOM     21  O   UNL     1       6.376   7.519  17.688  0.00  0.00    +0.000 OA
ATOM     22  H   UNL     1       9.156   7.124  19.118  0.00  0.00    +0.000 HD
BRANCH  20  23
ATOM     23  O   UNL     1       8.411   8.548  17.445  0.00  0.00    +0.000 OA
BRANCH  23  24
ATOM     24  C   UNL     1       8.091   9.918  17.710  0.00  0.00    +0.000 C 
BRANCH  24  25
ATOM     25  C   UNL     1       9.218  10.607  18.432  0.00  0.00    +0.000 A 
ATOM     26  C   UNL     1       9.261  10.628  19.833  0.00  0.00    +0.000 A 
ATOM     27  C   UNL     1      10.322  11.245  20.499  0.00  0.00    +0.000 A 
ATOM     28  C   UNL     1      11.343  11.853  19.771  0.00  0.00    +0.000 A 
ATOM     29  C   UNL     1      11.305  11.846  18.378  0.00  0.00    +0.000 A 
ATOM     30  C   UNL     1      10.245  11.230  17.709  0.00  0.00    +0.000 A 
ENDBRANCH  24  25
ENDBRANCH  23  24
ENDBRANCH  20  23
ENDBRANCH  18  19
ENDBRANCH   2  18
TORSDOF 9
ENDMDL
MODEL 9
REMARK VINA RESULT:      -7.6      2.539      4.215
REMARK  Name = 
REMARK  9 active torsions:
REMARK  status: ('A' for Active; 'I' for Inactive)
REMARK    1  A    between atoms: C_2  and  C_4
REMARK    2  A    between atoms: C_4  and  C_5
REMARK    3  A    between atoms: C_4  and  N_12
REMARK    4  A    between atoms: C_5  and  C_6
REMARK    5  A    between atoms: C_13  and  C_15
REMARK    6  A    between atoms: C_15  and  N_16
REMARK    7  A    between atoms: C_17  and  O_19
REMARK    8  A    between atoms: O_19  and  C_20
REMARK    9  A    between atoms: C_20  and  C_21
REMARK                            x       y       z     vdW  Elec       q    Type
REMARK                         _______ _______ _______ _____ _____    ______ ____
ROOT
ATOM      1  N   UNL     1       6.797   7.398  16.830  0.00  0.00    +0.000 N 
ATOM      2  C   UNL     1       7.732   7.761  17.768  0.00  0.00    +0.000 C 
ATOM      3  O   UNL     1       8.186   6.988  18.608  0.00  0.00    +0.000 OA
ATOM      4  H   UNL     1       6.273   8.130  16.352  0.00  0.00    +0.000 HD
ENDROOT
BRANCH   1   5
ATOM      5  C   UNL     1       6.199   6.066  16.761  0.00  0.00    +0.000 C 
BRANCH   5   7
ATOM      6  N   UNL     1       7.559   5.255  14.841  0.00  0.00    +0.000 N 
ATOM      7  C   UNL     1       7.268   5.125  16.167  0.00  0.00    +0.000 C 
ATOM      8  O   UNL     1       7.904   4.323  16.853  0.00  0.00    +0.000 OA
ATOM      9  H   UNL     1       8.274   4.643  14.465  0.00  0.00    +0.000 HD
ATOM     10  H   UNL     1       7.086   5.887  14.212  0.00  0.00    +0.000 HD
ENDBRANCH   5   7
BRANCH   5  11
ATOM     11  C   UNL     1       5.623   5.567  18.097  0.00  0.00    +0.000 C 
BRANCH  11  12
ATOM     12  C   UNL     1       4.271   4.891  18.047  0.00  0.00    +0.000 A 
ATOM     13  C   UNL     1       3.109   5.599  18.386  0.00  0.00    +0.000 A 
ATOM     14  C   UNL     1       1.852   5.009  18.251  0.00  0.00    +0.000 A 
ATOM     15  C   UNL     1       1.741   3.703  17.778  0.00  0.00    +0.000 A 
ATOM     16  C   UNL     1       2.890   2.980  17.463  0.00  0.00    +0.000 A 
ATOM     17  C   UNL     1       4.148   3.568  17.600  0.00  0.00    +0.000 A 
ENDBRANCH  11  12
ENDBRANCH   5  11
ENDBRANCH   1   5
BRANCH   2  18
ATOM     18  C   UNL     1       8.208   9.207  17.640  0.00  0.00    +0.000 C 
BRANCH  18  19
ATOM     19  N   UNL     1       8.760   9.683  18.886  0.00  0.00    +0.000 N 
ATOM     20  C   UNL     1       9.534  10.802  18.939  0.00  0.00    +0.000 C 
ATOM     21  O   UNL     1       9.815  11.493  17.974  0.00  0.00    +0.000 OA
ATOM     22  H   UNL     1       8.476   9.271  19.763  0.00  0.00    +0.000 HD
BRANCH  20  23
ATOM     23  O   UNL     1       9.993  10.972  20.200  0.00  0.00    +0.000 OA
BRANCH  23  24
ATOM     24  C   UNL     1      10.747  12.171  20.413  0.00  0.00    +0.000 C 
BRANCH  24  25
ATOM     25  C   UNL     1      10.058  13.075  21.400  0.00  0.00    +0.000 A 
ATOM     26  C   UNL     1      10.334  14.448  21.423  0.00  0.00    +0.000 A 
ATOM     27  C   UNL     1       9.673  15.287  22.323  0.00  0.00    +0.000 A 
ATOM     28  C   UNL     1       8.739  14.760  23.211  0.00  0.00    +0.000 A 
ATOM     29  C   UNL     1       8.465  13.393  23.204  0.00  0.00    +0.000 A 
ATOM     30  C   UNL     1       9.125  12.552  22.305  0.00  0.00    +0.000 A 
ENDBRANCH  24  25
ENDBRANCH  23  24
ENDBRANCH  20  23
ENDBRANCH  18  19
ENDBRANCH   2  18
TORSDOF 9
ENDMDL
