MODEL 1
REMARK VINA RESULT:      -8.9      0.000      0.000
REMARK  Name = 
REMARK  8 active torsions:
REMARK  status: ('A' for Active; 'I' for Inactive)
REMARK    1  A    between atoms: C_1  and  O_2
REMARK    2  A    between atoms: O_2  and  N_3
REMARK    3  A    between atoms: C_4  and  C_6
REMARK    4  A    between atoms: C_6  and  C_7
REMARK    5  A    between atoms: C_7  and  C_8
REMARK    6  A    between atoms: C_12  and  N_13
REMARK    7  A    between atoms: C_22  and  O_23
REMARK    8  A    between atoms: O_23  and  C_24
REMARK                            x       y       z     vdW  Elec       q    Type
REMARK                         _______ _______ _______ _____ _____    ______ ____
ROOT
ATOM      1  C   UNL     1       2.558   5.249  19.176  0.00  0.00    +0.000 C 
ATOM      2  C   UNL     1       1.483   5.464  20.273  0.00  0.00    +0.000 C 
ATOM      3  C   UNL     1       1.601   6.818  20.970  0.00  0.00    +0.000 C 
ATOM      4  C   UNL     1       1.453   7.973  19.973  0.00  0.00    +0.000 C 
ATOM      5  C   UNL     1       2.425   7.813  18.798  0.00  0.00    +0.000 C 
ATOM      6  C   UNL     1       2.392   6.421  18.162  0.00  0.00    +0.000 C 
ENDROOT
BRANCH   1   8
ATOM      7  N   UNL     1       2.687   2.788  19.096  0.00  0.00    +0.000 N 
ATOM      8  C   UNL     1       2.283   3.928  18.419  0.00  0.00    +0.000 C 
ATOM      9  O   UNL     1       1.771   3.908  17.300  0.00  0.00    +0.000 OA
ATOM     10  H   UNL     1       3.482   2.822  19.722  0.00  0.00    +0.000 HD
BRANCH   7  12
ATOM     11  C   UNL     1       3.921   1.118  18.117  0.00  0.00    +0.000 C 
ATOM     12  O   UNL     1       2.595   1.584  18.357  0.00  0.00    +0.000 OA
ENDBRANCH   7  12
ENDBRANCH   1   8
BRANCH   1  13
ATOM     13  C   UNL     1       4.011   5.239  19.733  0.00  0.00    +0.000 C 
BRANCH  13  14
ATOM     14  C   UNL     1       5.197   5.100  18.796  0.00  0.00    +0.000 A 
ATOM     15  C   UNL     1       6.437   5.530  19.269  0.00  0.00    +0.000 A 
ATOM     16  C   UNL     1       7.561   5.327  18.489  0.00  0.00    +0.000 A 
ATOM     17  C   UNL     1       7.416   4.721  17.251  0.00  0.00    +0.000 A 
ATOM     18  C   UNL     1       6.150   4.368  16.794  0.00  0.00    +0.000 A 
ATOM     19  N   UNL     1       5.054   4.536  17.573  0.00  0.00    +0.000 NA
BRANCH  18  20
ATOM     20  N   UNL     1       5.949   3.810  15.526  0.00  0.00    +0.000 N 
ATOM     21  C   UNL     1       6.557   4.209  14.383  0.00  0.00    +0.000 A 
ATOM     22  N   UNL     1       7.491   5.135  14.278  0.00  0.00    +0.000 NA
ATOM     23  C   UNL     1       7.862   5.329  12.969  0.00  0.00    +0.000 A 
ATOM     24  C   UNL     1       7.223   4.530  12.056  0.00  0.00    +0.000 A 
ATOM     25  S   UNL     1       6.107   3.510  12.862  0.00  0.00    +0.000 S 
ATOM     26  H   UNL     1       5.028   3.392  15.463  0.00  0.00    +0.000 HD
ENDBRANCH  18  20
ENDBRANCH  13  14
ENDBRANCH   1  13
BRANCH   4  27
ATOM     27  O   UNL     1       1.732   9.191  20.677  0.00  0.00    +0.000 OA
BRANCH  27  28
ATOM     28  C   UNL     1       0.713   9.859  21.301  0.00  0.00    +0.000 A 
ATOM     29  C   UNL     1       0.237   9.596  22.587  0.00  0.00    +0.000 A 
ATOM     30  C   UNL     1      -0.814  10.344  23.127  0.00  0.00    +0.000 A 
ATOM     31  C   UNL     1      -1.401  11.367  22.385  0.00  0.00    +0.000 A 
ATOM     32  C   UNL     1      -0.939  11.638  21.100  0.00  0.00    +0.000 A 
ATOM     33 CL   UNL     1      -1.678  12.902  20.193  0.00  0.00    +0.000 Cl
ATOM     34  C   UNL     1       0.109  10.887  20.560  0.00  0.00    +0.000 A 
ATOM     35  F   UNL     1       0.544  11.150  19.316  0.00  0.00    +0.000 F 
ENDBRANCH  27  28
ENDBRANCH   4  27
TORSDOF 7
ENDMDL
MODEL 2
REMARK VINA RESULT:      -8.7      0.998      1.371
REMARK  Name = 
REMARK  8 active torsions:
REMARK  status: ('A' for Active; 'I' for Inactive)
REMARK    1  A    between atoms: C_1  and  O_2
REMARK    2  A    between atoms: O_2  and  N_3
REMARK    3  A    between atoms: C_4  and  C_6
REMARK    4  A    between atoms: C_6  and  C_7
REMARK    5  A    between atoms: C_7  and  C_8
REMARK    6  A    between atoms: C_12  and  N_13
REMARK    7  A    between atoms: C_22  and  O_23
REMARK    8  A    between atoms: O_23  and  C_24
REMARK                            x       y       z     vdW  Elec       q    Type
REMARK                         _______ _______ _______ _____ _____    ______ ____
ROOT
ATOM      1  C   UNL     1       2.563   5.429  19.126  0.00  0.00    +0.000 C 
ATOM      2  C   UNL     1       1.485   5.733  20.198  0.00  0.00    +0.000 C 
ATOM      3  C   UNL     1       1.593   7.144  20.773  0.00  0.00    +0.000 C 
ATOM      4  C   UNL     1       1.439   8.205  19.677  0.00  0.00    +0.000 C 
ATOM      5  C   UNL     1       2.415   7.949  18.523  0.00  0.00    +0.000 C 
ATOM      6  C   UNL     1       2.392   6.506  18.012  0.00  0.00    +0.000 C 
ENDROOT
BRANCH   1   8
ATOM      7  N   UNL     1       2.649   2.971  19.291  0.00  0.00    +0.000 N 
ATOM      8  C   UNL     1       2.298   4.045  18.488  0.00  0.00    +0.000 C 
ATOM      9  O   UNL     1       1.838   3.923  17.353  0.00  0.00    +0.000 OA
ATOM     10  H   UNL     1       3.415   3.054  19.948  0.00  0.00    +0.000 HD
BRANCH   7  12
ATOM     11  C   UNL     1       3.892   1.302  18.321  0.00  0.00    +0.000 C 
ATOM     12  O   UNL     1       2.568   1.702  18.668  0.00  0.00    +0.000 OA
ENDBRANCH   7  12
ENDBRANCH   1   8
BRANCH   1  13
ATOM     13  C   UNL     1       4.016   5.478  19.683  0.00  0.00    +0.000 C 
BRANCH  13  14
ATOM     14  C   UNL     1       5.203   5.238  18.769  0.00  0.00    +0.000 A 
ATOM     15  C   UNL     1       6.465   5.565  19.264  0.00  0.00    +0.000 A 
ATOM     16  C   UNL     1       7.583   5.267  18.507  0.00  0.00    +0.000 A 
ATOM     17  C   UNL     1       7.411   4.671  17.267  0.00  0.00    +0.000 A 
ATOM     18  C   UNL     1       6.129   4.422  16.786  0.00  0.00    +0.000 A 
ATOM     19  N   UNL     1       5.036   4.684  17.545  0.00  0.00    +0.000 NA
BRANCH  18  20
ATOM     20  N   UNL     1       5.905   3.879  15.516  0.00  0.00    +0.000 N 
ATOM     21  C   UNL     1       6.537   4.252  14.376  0.00  0.00    +0.000 A 
ATOM     22  N   UNL     1       7.516   5.131  14.278  0.00  0.00    +0.000 NA
ATOM     23  C   UNL     1       7.901   5.310  12.972  0.00  0.00    +0.000 A 
ATOM     24  C   UNL     1       7.228   4.547  12.053  0.00  0.00    +0.000 A 
ATOM     25  S   UNL     1       6.059   3.580  12.852  0.00  0.00    +0.000 S 
ATOM     26  H   UNL     1       4.966   3.506  15.449  0.00  0.00    +0.000 HD
ENDBRANCH  18  20
ENDBRANCH  13  14
ENDBRANCH   1  13
BRANCH   4  27
ATOM     27  O   UNL     1       1.710   9.482  20.272  0.00  0.00    +0.000 OA
BRANCH  27  28
ATOM     28  C   UNL     1       0.714  10.420  20.340  0.00  0.00    +0.000 A 
ATOM     29  C   UNL     1       0.328  11.270  19.301  0.00  0.00    +0.000 A 
ATOM     30  C   UNL     1      -0.707  12.194  19.481  0.00  0.00    +0.000 A 
ATOM     31  C   UNL     1      -1.367  12.278  20.704  0.00  0.00    +0.000 A 
ATOM     32  C   UNL     1      -0.990  11.439  21.750  0.00  0.00    +0.000 A 
ATOM     33 CL   UNL     1      -1.814  11.558  23.258  0.00  0.00    +0.000 Cl
ATOM     34  C   UNL     1       0.046  10.518  21.569  0.00  0.00    +0.000 A 
ATOM     35  F   UNL     1       0.409   9.717  22.586  0.00  0.00    +0.000 F 
ENDBRANCH  27  28
ENDBRANCH   4  27
TORSDOF 7
ENDMDL
MODEL 3
REMARK VINA RESULT:      -8.5      6.352     10.617
REMARK  Name = 
REMARK  8 active torsions:
REMARK  status: ('A' for Active; 'I' for Inactive)
REMARK    1  A    between atoms: C_1  and  O_2
REMARK    2  A    between atoms: O_2  and  N_3
REMARK    3  A    between atoms: C_4  and  C_6
REMARK    4  A    between atoms: C_6  and  C_7
REMARK    5  A    between atoms: C_7  and  C_8
REMARK    6  A    between atoms: C_12  and  N_13
REMARK    7  A    between atoms: C_22  and  O_23
REMARK    8  A    between atoms: O_23  and  C_24
REMARK                            x       y       z     vdW  Elec       q    Type
REMARK                         _______ _______ _______ _____ _____    ______ ____
ROOT
ATOM      1  C   UNL     1       0.295  10.415  19.370  0.00  0.00    +0.000 C 
ATOM      2  C   UNL     1       0.968  10.006  20.705  0.00  0.00    +0.000 C 
ATOM      3  C   UNL     1       1.206   8.501  20.820  0.00  0.00    +0.000 C 
ATOM      4  C   UNL     1       2.114   7.993  19.693  0.00  0.00    +0.000 C 
ATOM      5  C   UNL     1       1.574   8.415  18.321  0.00  0.00    +0.000 C 
ATOM      6  C   UNL     1       1.229   9.904  18.231  0.00  0.00    +0.000 C 
ENDROOT
BRANCH   1   8
ATOM      7  N   UNL     1       0.913  12.486  18.185  0.00  0.00    +0.000 N 
ATOM      8  C   UNL     1       0.224  11.956  19.265  0.00  0.00    +0.000 C 
ATOM      9  O   UNL     1      -0.376  12.644  20.091  0.00  0.00    +0.000 OA
ATOM     10  H   UNL     1       1.739  12.022  17.829  0.00  0.00    +0.000 HD
BRANCH   7  12
ATOM     11  C   UNL     1       2.343  14.260  18.463  0.00  0.00    +0.000 C 
ATOM     12  O   UNL     1       0.998  13.899  18.159  0.00  0.00    +0.000 OA
ENDBRANCH   7  12
ENDBRANCH   1   8
BRANCH   1  13
ATOM     13  C   UNL     1      -1.129   9.813  19.188  0.00  0.00    +0.000 C 
BRANCH  13  14
ATOM     14  C   UNL     1      -2.050  10.320  18.094  0.00  0.00    +0.000 A 
ATOM     15  C   UNL     1      -1.867   9.798  16.814  0.00  0.00    +0.000 A 
ATOM     16  C   UNL     1      -2.749  10.154  15.810  0.00  0.00    +0.000 A 
ATOM     17  C   UNL     1      -3.776  11.037  16.105  0.00  0.00    +0.000 A 
ATOM     18  C   UNL     1      -3.880  11.583  17.380  0.00  0.00    +0.000 A 
ATOM     19  N   UNL     1      -3.035  11.206  18.372  0.00  0.00    +0.000 NA
BRANCH  18  20
ATOM     20  N   UNL     1      -4.863  12.525  17.707  0.00  0.00    +0.000 N 
ATOM     21  C   UNL     1      -5.859  12.345  18.608  0.00  0.00    +0.000 A 
ATOM     22  N   UNL     1      -6.032  11.290  19.381  0.00  0.00    +0.000 NA
ATOM     23  C   UNL     1      -7.165  11.409  20.147  0.00  0.00    +0.000 A 
ATOM     24  C   UNL     1      -7.865  12.576  19.980  0.00  0.00    +0.000 A 
ATOM     25  S   UNL     1      -7.083  13.555  18.810  0.00  0.00    +0.000 S 
ATOM     26  H   UNL     1      -5.019  13.159  16.933  0.00  0.00    +0.000 HD
ENDBRANCH  18  20
ENDBRANCH  13  14
ENDBRANCH   1  13
BRANCH   4  27
ATOM     27  O   UNL     1       2.155   6.562  19.783  0.00  0.00    +0.000 OA
BRANCH  27  28
ATOM     28  C   UNL     1       2.856   5.847  18.849  0.00  0.00    +0.000 A 
ATOM     29  C   UNL     1       3.929   6.328  18.096  0.00  0.00    +0.000 A 
ATOM     30  C   UNL     1       4.575   5.506  17.166  0.00  0.00    +0.000 A 
ATOM     31  C   UNL     1       4.153   4.192  16.978  0.00  0.00    +0.000 A 
ATOM     32  C   UNL     1       3.081   3.701  17.720  0.00  0.00    +0.000 A 
ATOM     33 CL   UNL     1       2.568   2.075  17.474  0.00  0.00    +0.000 Cl
ATOM     34  C   UNL     1       2.435   4.524  18.647  0.00  0.00    +0.000 A 
ATOM     35  F   UNL     1       1.397   4.043  19.353  0.00  0.00    +0.000 F 
ENDBRANCH  27  28
ENDBRANCH   4  27
TORSDOF 7
ENDMDL
MODEL 4
REMARK VINA RESULT:      -8.5      1.239      1.418
REMARK  Name = 
REMARK  8 active torsions:
REMARK  status: ('A' for Active; 'I' for Inactive)
REMARK    1  A    between atoms: C_1  and  O_2
REMARK    2  A    between atoms: O_2  and  N_3
REMARK    3  A    between atoms: C_4  and  C_6
REMARK    4  A    between atoms: C_6  and  C_7
REMARK    5  A    between atoms: C_7  and  C_8
REMARK    6  A    between atoms: C_12  and  N_13
REMARK    7  A    between atoms: C_22  and  O_23
REMARK    8  A    between atoms: O_23  and  C_24
REMARK                            x       y       z     vdW  Elec       q    Type
REMARK                         _______ _______ _______ _____ _____    ______ ____
ROOT
ATOM      1  C   UNL     1       2.571   5.497  19.016  0.00  0.00    +0.000 C 
ATOM      2  C   UNL     1       1.493   5.986  20.016  0.00  0.00    +0.000 C 
ATOM      3  C   UNL     1       1.655   7.455  20.401  0.00  0.00    +0.000 C 
ATOM      4  C   UNL     1       1.564   8.367  19.172  0.00  0.00    +0.000 C 
ATOM      5  C   UNL     1       2.544   7.918  18.081  0.00  0.00    +0.000 C 
ATOM      6  C   UNL     1       2.464   6.421  17.766  0.00  0.00    +0.000 C 
ENDROOT
BRANCH   1   8
ATOM      7  N   UNL     1       2.703   3.070  19.431  0.00  0.00    +0.000 N 
ATOM      8  C   UNL     1       2.254   4.053  18.562  0.00  0.00    +0.000 C 
ATOM      9  O   UNL     1       1.673   3.810  17.504  0.00  0.00    +0.000 OA
ATOM     10  H   UNL     1       3.536   3.223  19.987  0.00  0.00    +0.000 HD
BRANCH   7  12
ATOM     11  C   UNL     1       3.830   1.339  18.429  0.00  0.00    +0.000 C 
ATOM     12  O   UNL     1       2.569   1.742  18.959  0.00  0.00    +0.000 OA
ENDBRANCH   7  12
ENDBRANCH   1   8
BRANCH   1  13
ATOM     13  C   UNL     1       4.016   5.558  19.591  0.00  0.00    +0.000 C 
BRANCH  13  14
ATOM     14  C   UNL     1       5.214   5.273  18.703  0.00  0.00    +0.000 A 
ATOM     15  C   UNL     1       6.475   5.579  19.217  0.00  0.00    +0.000 A 
ATOM     16  C   UNL     1       7.598   5.241  18.485  0.00  0.00    +0.000 A 
ATOM     17  C   UNL     1       7.435   4.627  17.253  0.00  0.00    +0.000 A 
ATOM     18  C   UNL     1       6.157   4.401  16.753  0.00  0.00    +0.000 A 
ATOM     19  N   UNL     1       5.056   4.701  17.487  0.00  0.00    +0.000 NA
BRANCH  18  20
ATOM     20  N   UNL     1       5.943   3.840  15.488  0.00  0.00    +0.000 N 
ATOM     21  C   UNL     1       6.555   4.225  14.342  0.00  0.00    +0.000 A 
ATOM     22  N   UNL     1       7.502   5.136  14.230  0.00  0.00    +0.000 NA
ATOM     23  C   UNL     1       7.873   5.318  12.920  0.00  0.00    +0.000 A 
ATOM     24  C   UNL     1       7.220   4.525  12.012  0.00  0.00    +0.000 A 
ATOM     25  S   UNL     1       6.090   3.526  12.826  0.00  0.00    +0.000 S 
ATOM     26  H   UNL     1       5.017   3.435  15.430  0.00  0.00    +0.000 HD
ENDBRANCH  18  20
ENDBRANCH  13  14
ENDBRANCH   1  13
BRANCH   4  27
ATOM     27  O   UNL     1       1.883   9.699  19.597  0.00  0.00    +0.000 OA
BRANCH  27  28
ATOM     28  C   UNL     1       0.902  10.654  19.617  0.00  0.00    +0.000 A 
ATOM     29  C   UNL     1      -0.424  10.448  20.004  0.00  0.00    +0.000 A 
ATOM     30  C   UNL     1      -1.345  11.501  19.985  0.00  0.00    +0.000 A 
ATOM     31  C   UNL     1      -0.950  12.773  19.578  0.00  0.00    +0.000 A 
ATOM     32  C   UNL     1       0.369  12.991  19.186  0.00  0.00    +0.000 A 
ATOM     33 CL   UNL     1       0.842  14.569  18.682  0.00  0.00    +0.000 Cl
ATOM     34  C   UNL     1       1.288  11.938  19.203  0.00  0.00    +0.000 A 
ATOM     35  F   UNL     1       2.556  12.157  18.816  0.00  0.00    +0.000 F 
ENDBRANCH  27  28
ENDBRANCH   4  27
TORSDOF 7
ENDMDL
MODEL 5
REMARK VINA RESULT:      -8.3      1.151      1.588
REMARK  Name = 
REMARK  8 active torsions:
REMARK  status: ('A' for Active; 'I' for Inactive)
REMARK    1  A    between atoms: C_1  and  O_2
REMARK    2  A    between atoms: O_2  and  N_3
REMARK    3  A    between atoms: C_4  and  C_6
REMARK    4  A    between atoms: C_6  and  C_7
REMARK    5  A    between atoms: C_7  and  C_8
REMARK    6  A    between atoms: C_12  and  N_13
REMARK    7  A    between atoms: C_22  and  O_23
REMARK    8  A    between atoms: O_23  and  C_24
REMARK                            x       y       z     vdW  Elec       q    Type
REMARK                         _______ _______ _______ _____ _____    ______ ____
ROOT
ATOM      1  C   UNL     1       2.883   5.426  19.355  0.00  0.00    +0.000 C 
ATOM      2  C   UNL     1       1.855   5.949  20.390  0.00  0.00    +0.000 C 
ATOM      3  C   UNL     1       1.798   7.474  20.461  0.00  0.00    +0.000 C 
ATOM      4  C   UNL     1       1.410   8.080  19.107  0.00  0.00    +0.000 C 
ATOM      5  C   UNL     1       2.324   7.562  17.991  0.00  0.00    +0.000 C 
ATOM      6  C   UNL     1       2.475   6.039  17.981  0.00  0.00    +0.000 C 
ENDROOT
BRANCH   1   8
ATOM      7  N   UNL     1       2.739   3.419  17.930  0.00  0.00    +0.000 N 
ATOM      8  C   UNL     1       2.776   3.888  19.235  0.00  0.00    +0.000 C 
ATOM      9  O   UNL     1       2.706   3.156  20.222  0.00  0.00    +0.000 OA
ATOM     10  H   UNL     1       2.329   3.984  17.197  0.00  0.00    +0.000 HD
BRANCH   7  12
ATOM     11  C   UNL     1       3.696   1.336  18.045  0.00  0.00    +0.000 C 
ATOM     12  O   UNL     1       2.479   2.034  17.795  0.00  0.00    +0.000 OA
ENDBRANCH   7  12
ENDBRANCH   1   8
BRANCH   1  13
ATOM     13  C   UNL     1       4.350   5.823  19.689  0.00  0.00    +0.000 C 
BRANCH  13  14
ATOM     14  C   UNL     1       5.491   5.410  18.778  0.00  0.00    +0.000 A 
ATOM     15  C   UNL     1       6.788   5.576  19.264  0.00  0.00    +0.000 A 
ATOM     16  C   UNL     1       7.852   5.118  18.509  0.00  0.00    +0.000 A 
ATOM     17  C   UNL     1       7.597   4.526  17.282  0.00  0.00    +0.000 A 
ATOM     18  C   UNL     1       6.291   4.441  16.810  0.00  0.00    +0.000 A 
ATOM     19  N   UNL     1       5.246   4.859  17.565  0.00  0.00    +0.000 NA
BRANCH  18  20
ATOM     20  N   UNL     1       5.991   3.907  15.550  0.00  0.00    +0.000 N 
ATOM     21  C   UNL     1       6.575   4.267  14.382  0.00  0.00    +0.000 A 
ATOM     22  N   UNL     1       7.571   5.120  14.237  0.00  0.00    +0.000 NA
ATOM     23  C   UNL     1       7.896   5.293  12.914  0.00  0.00    +0.000 A 
ATOM     24  C   UNL     1       7.159   4.550  12.029  0.00  0.00    +0.000 A 
ATOM     25  S   UNL     1       6.005   3.612  12.882  0.00  0.00    +0.000 S 
ATOM     26  H   UNL     1       5.040   3.559  15.529  0.00  0.00    +0.000 HD
ENDBRANCH  18  20
ENDBRANCH  13  14
ENDBRANCH   1  13
BRANCH   4  27
ATOM     27  O   UNL     1       1.535   9.505  19.220  0.00  0.00    +0.000 OA
BRANCH  27  28
ATOM     28  C   UNL     1       0.407  10.277  19.305  0.00  0.00    +0.000 A 
ATOM     29  C   UNL     1      -0.589  10.368  18.330  0.00  0.00    +0.000 A 
ATOM     30  C   UNL     1      -1.704  11.191  18.522  0.00  0.00    +0.000 A 
ATOM     31  C   UNL     1      -1.834  11.934  19.693  0.00  0.00    +0.000 A 
ATOM     32  C   UNL     1      -0.847  11.855  20.672  0.00  0.00    +0.000 A 
ATOM     33 CL   UNL     1      -1.020  12.782  22.113  0.00  0.00    +0.000 Cl
ATOM     34  C   UNL     1       0.268  11.034  20.477  0.00  0.00    +0.000 A 
ATOM     35  F   UNL     1       1.219  10.970  21.424  0.00  0.00    +0.000 F 
ENDBRANCH  27  28
ENDBRANCH   4  27
TORSDOF 7
ENDMDL
MODEL 6
REMARK VINA RESULT:      -8.3      6.077     10.678
REMARK  Name = 
REMARK  8 active torsions:
REMARK  status: ('A' for Active; 'I' for Inactive)
REMARK    1  A    between atoms: C_1  and  O_2
REMARK    2  A    between atoms: O_2  and  N_3
REMARK    3  A    between atoms: C_4  and  C_6
REMARK    4  A    between atoms: C_6  and  C_7
REMARK    5  A    between atoms: C_7  and  C_8
REMARK    6  A    between atoms: C_12  and  N_13
REMARK    7  A    between atoms: C_22  and  O_23
REMARK    8  A    between atoms: O_23  and  C_24
REMARK                            x       y       z     vdW  Elec       q    Type
REMARK                         _______ _______ _______ _____ _____    ______ ____
ROOT
ATOM      1  C   UNL     1       0.697   9.846  20.178  0.00  0.00    +0.000 C 
ATOM      2  C   UNL     1       1.565   8.720  20.796  0.00  0.00    +0.000 C 
ATOM      3  C   UNL     1       1.832   7.569  19.827  0.00  0.00    +0.000 C 
ATOM      4  C   UNL     1       2.567   8.057  18.573  0.00  0.00    +0.000 C 
ATOM      5  C   UNL     1       1.827   9.232  17.923  0.00  0.00    +0.000 C 
ATOM      6  C   UNL     1       1.457  10.342  18.910  0.00  0.00    +0.000 C 
ENDROOT
BRANCH   1   8
ATOM      7  N   UNL     1      -0.249  10.814  22.238  0.00  0.00    +0.000 N 
ATOM      8  C   UNL     1       0.596  11.035  21.162  0.00  0.00    +0.000 C 
ATOM      9  O   UNL     1       1.201  12.092  20.979  0.00  0.00    +0.000 OA
ATOM     10  H   UNL     1      -1.054  10.208  22.138  0.00  0.00    +0.000 HD
BRANCH   7  12
ATOM     11  C   UNL     1      -1.887  12.188  23.074  0.00  0.00    +0.000 C 
ATOM     12  O   UNL     1      -0.483  11.941  23.062  0.00  0.00    +0.000 OA
ENDBRANCH   7  12
ENDBRANCH   1   8
BRANCH   1  13
ATOM     13  C   UNL     1      -0.732   9.374  19.780  0.00  0.00    +0.000 C 
BRANCH  13  14
ATOM     14  C   UNL     1      -1.674  10.303  19.037  0.00  0.00    +0.000 A 
ATOM     15  C   UNL     1      -1.902  10.034  17.688  0.00  0.00    +0.000 A 
ATOM     16  C   UNL     1      -2.832  10.791  16.999  0.00  0.00    +0.000 A 
ATOM     17  C   UNL     1      -3.493  11.809  17.668  0.00  0.00    +0.000 A 
ATOM     18  C   UNL     1      -3.186  12.083  18.997  0.00  0.00    +0.000 A 
ATOM     19  N   UNL     1      -2.299  11.318  19.680  0.00  0.00    +0.000 NA
BRANCH  18  20
ATOM     20  N   UNL     1      -3.783  13.140  19.695  0.00  0.00    +0.000 N 
ATOM     21  C   UNL     1      -4.930  13.062  20.412  0.00  0.00    +0.000 A 
ATOM     22  N   UNL     1      -5.638  11.972  20.637  0.00  0.00    +0.000 NA
ATOM     23  C   UNL     1      -6.770  12.249  21.364  0.00  0.00    +0.000 A 
ATOM     24  C   UNL     1      -6.928  13.563  21.722  0.00  0.00    +0.000 A 
ATOM     25  S   UNL     1      -5.620  14.489  21.113  0.00  0.00    +0.000 S 
ATOM     26  H   UNL     1      -3.532  14.028  19.278  0.00  0.00    +0.000 HD
ENDBRANCH  18  20
ENDBRANCH  13  14
ENDBRANCH   1  13
BRANCH   4  27
ATOM     27  O   UNL     1       2.635   6.955  17.656  0.00  0.00    +0.000 OA
BRANCH  27  28
ATOM     28  C   UNL     1       3.388   5.856  17.976  0.00  0.00    +0.000 A 
ATOM     29  C   UNL     1       4.721   5.878  18.392  0.00  0.00    +0.000 A 
ATOM     30  C   UNL     1       5.394   4.690  18.694  0.00  0.00    +0.000 A 
ATOM     31  C   UNL     1       4.741   3.465  18.584  0.00  0.00    +0.000 A 
ATOM     32  C   UNL     1       3.412   3.429  18.167  0.00  0.00    +0.000 A 
ATOM     33 CL   UNL     1       2.619   1.906  18.032  0.00  0.00    +0.000 Cl
ATOM     34  C   UNL     1       2.741   4.616  17.863  0.00  0.00    +0.000 A 
ATOM     35  F   UNL     1       1.461   4.571  17.454  0.00  0.00    +0.000 F 
ENDBRANCH  27  28
ENDBRANCH   4  27
TORSDOF 7
ENDMDL
MODEL 7
REMARK VINA RESULT:      -8.2      6.159     10.660
REMARK  Name = 
REMARK  8 active torsions:
REMARK  status: ('A' for Active; 'I' for Inactive)
REMARK    1  A    between atoms: C_1  and  O_2
REMARK    2  A    between atoms: O_2  and  N_3
REMARK    3  A    between atoms: C_4  and  C_6
REMARK    4  A    between atoms: C_6  and  C_7
REMARK    5  A    between atoms: C_7  and  C_8
REMARK    6  A    between atoms: C_12  and  N_13
REMARK    7  A    between atoms: C_22  and  O_23
REMARK    8  A    between atoms: O_23  and  C_24
REMARK                            x       y       z     vdW  Elec       q    Type
REMARK                         _______ _______ _______ _____ _____    ______ ____
ROOT
ATOM      1  C   UNL     1       0.739  10.081  20.088  0.00  0.00    +0.000 C 
ATOM      2  C   UNL     1       1.647   9.006  20.737  0.00  0.00    +0.000 C 
ATOM      3  C   UNL     1       1.822   7.764  19.866  0.00  0.00    +0.000 C 
ATOM      4  C   UNL     1       2.452   8.116  18.513  0.00  0.00    +0.000 C 
ATOM      5  C   UNL     1       1.668   9.235  17.817  0.00  0.00    +0.000 C 
ATOM      6  C   UNL     1       1.393  10.441  18.719  0.00  0.00    +0.000 C 
ENDROOT
BRANCH   1   8
ATOM      7  N   UNL     1       1.608  12.346  20.528  0.00  0.00    +0.000 N 
ATOM      8  C   UNL     1       0.732  11.361  20.957  0.00  0.00    +0.000 C 
ATOM      9  O   UNL     1       0.022  11.472  21.956  0.00  0.00    +0.000 OA
ATOM     10  H   UNL     1       2.469  12.094  20.058  0.00  0.00    +0.000 HD
BRANCH   7  12
ATOM     11  C   UNL     1       1.666  14.640  20.604  0.00  0.00    +0.000 C 
ATOM     12  O   UNL     1       1.738  13.457  21.396  0.00  0.00    +0.000 OA
ENDBRANCH   7  12
ENDBRANCH   1   8
BRANCH   1  13
ATOM     13  C   UNL     1      -0.722   9.597  19.859  0.00  0.00    +0.000 C 
BRANCH  13  14
ATOM     14  C   UNL     1      -1.658  10.367  18.946  0.00  0.00    +0.000 A 
ATOM     15  C   UNL     1      -1.653  10.026  17.593  0.00  0.00    +0.000 A 
ATOM     16  C   UNL     1      -2.562  10.629  16.744  0.00  0.00    +0.000 A 
ATOM     17  C   UNL     1      -3.438  11.571  17.262  0.00  0.00    +0.000 A 
ATOM     18  C   UNL     1      -3.363  11.926  18.605  0.00  0.00    +0.000 A 
ATOM     19  N   UNL     1      -2.494  11.309  19.443  0.00  0.00    +0.000 NA
BRANCH  18  20
ATOM     20  N   UNL     1      -4.186  12.915  19.158  0.00  0.00    +0.000 N 
ATOM     21  C   UNL     1      -5.404  12.708  19.713  0.00  0.00    +0.000 A 
ATOM     22  N   UNL     1      -5.991  11.541  19.894  0.00  0.00    +0.000 NA
ATOM     23  C   UNL     1      -7.243  11.686  20.442  0.00  0.00    +0.000 A 
ATOM     24  C   UNL     1      -7.618  12.978  20.706  0.00  0.00    +0.000 A 
ATOM     25  S   UNL     1      -6.365  14.051  20.237  0.00  0.00    +0.000 S 
ATOM     26  H   UNL     1      -3.993  13.815  18.735  0.00  0.00    +0.000 HD
ENDBRANCH  18  20
ENDBRANCH  13  14
ENDBRANCH   1  13
BRANCH   4  27
ATOM     27  O   UNL     1       2.433   6.930  17.706  0.00  0.00    +0.000 OA
BRANCH  27  28
ATOM     28  C   UNL     1       3.199   5.855  18.068  0.00  0.00    +0.000 A 
ATOM     29  C   UNL     1       4.514   5.915  18.535  0.00  0.00    +0.000 A 
ATOM     30  C   UNL     1       5.204   4.748  18.877  0.00  0.00    +0.000 A 
ATOM     31  C   UNL     1       4.586   3.505  18.757  0.00  0.00    +0.000 A 
ATOM     32  C   UNL     1       3.276   3.430  18.290  0.00  0.00    +0.000 A 
ATOM     33 CL   UNL     1       2.527   1.886  18.142  0.00  0.00    +0.000 Cl
ATOM     34  C   UNL     1       2.588   4.597  17.945  0.00  0.00    +0.000 A 
ATOM     35  F   UNL     1       1.327   4.515  17.488  0.00  0.00    +0.000 F 
ENDBRANCH  27  28
ENDBRANCH   4  27
TORSDOF 7
ENDMDL
MODEL 8
REMARK VINA RESULT:      -8.0      6.328     10.713
REMARK  Name = 
REMARK  8 active torsions:
REMARK  status: ('A' for Active; 'I' for Inactive)
REMARK    1  A    between atoms: C_1  and  O_2
REMARK    2  A    between atoms: O_2  and  N_3
REMARK    3  A    between atoms: C_4  and  C_6
REMARK    4  A    between atoms: C_6  and  C_7
REMARK    5  A    between atoms: C_7  and  C_8
REMARK    6  A    between atoms: C_12  and  N_13
REMARK    7  A    between atoms: C_22  and  O_23
REMARK    8  A    between atoms: O_23  and  C_24
REMARK                            x       y       z     vdW  Elec       q    Type
REMARK                         _______ _______ _______ _____ _____    ______ ____
ROOT
ATOM      1  C   UNL     1       0.179  10.481  19.632  0.00  0.00    +0.000 C 
ATOM      2  C   UNL     1       0.772  10.225  21.040  0.00  0.00    +0.000 C 
ATOM      3  C   UNL     1       0.989   8.743  21.340  0.00  0.00    +0.000 C 
ATOM      4  C   UNL     1       1.953   8.107  20.331  0.00  0.00    +0.000 C 
ATOM      5  C   UNL     1       1.496   8.371  18.892  0.00  0.00    +0.000 C 
ATOM      6  C   UNL     1       1.170   9.841  18.613  0.00  0.00    +0.000 C 
ENDROOT
BRANCH   1   8
ATOM      7  N   UNL     1      -0.412  12.755  20.377  0.00  0.00    +0.000 N 
ATOM      8  C   UNL     1       0.129  12.000  19.347  0.00  0.00    +0.000 C 
ATOM      9  O   UNL     1       0.516  12.483  18.283  0.00  0.00    +0.000 OA
ATOM     10  H   UNL     1      -1.122  12.359  20.981  0.00  0.00    +0.000 HD
BRANCH   7  12
ATOM     11  C   UNL     1      -1.979  14.432  20.365  0.00  0.00    +0.000 C 
ATOM     12  O   UNL     1      -0.618  14.124  20.077  0.00  0.00    +0.000 OA
ENDBRANCH   7  12
ENDBRANCH   1   8
BRANCH   1  13
ATOM     13  C   UNL     1      -1.238   9.866  19.439  0.00  0.00    +0.000 C 
BRANCH  13  14
ATOM     14  C   UNL     1      -2.185  10.419  18.390  0.00  0.00    +0.000 A 
ATOM     15  C   UNL     1      -2.072   9.909  17.097  0.00  0.00    +0.000 A 
ATOM     16  C   UNL     1      -2.982  10.308  16.135  0.00  0.00    +0.000 A 
ATOM     17  C   UNL     1      -3.966  11.220  16.483  0.00  0.00    +0.000 A 
ATOM     18  C   UNL     1      -4.000  11.751  17.768  0.00  0.00    +0.000 A 
ATOM     19  N   UNL     1      -3.129  11.333  18.719  0.00  0.00    +0.000 NA
BRANCH  18  20
ATOM     20  N   UNL     1      -4.937  12.720  18.147  0.00  0.00    +0.000 N 
ATOM     21  C   UNL     1      -5.857  12.584  19.132  0.00  0.00    +0.000 A 
ATOM     22  N   UNL     1      -5.982  11.555  19.947  0.00  0.00    +0.000 NA
ATOM     23  C   UNL     1      -7.047  11.716  20.801  0.00  0.00    +0.000 A 
ATOM     24  C   UNL     1      -7.738  12.891  20.657  0.00  0.00    +0.000 A 
ATOM     25  S   UNL     1      -7.041  13.822  19.398  0.00  0.00    +0.000 S 
ATOM     26  H   UNL     1      -5.146  13.335  17.370  0.00  0.00    +0.000 HD
ENDBRANCH  18  20
ENDBRANCH  13  14
ENDBRANCH   1  13
BRANCH   4  27
ATOM     27  O   UNL     1       1.976   6.695  20.586  0.00  0.00    +0.000 OA
BRANCH  27  28
ATOM     28  C   UNL     1       2.298   5.831  19.573  0.00  0.00    +0.000 A 
ATOM     29  C   UNL     1       3.262   6.058  18.588  0.00  0.00    +0.000 A 
ATOM     30  C   UNL     1       3.509   5.103  17.597  0.00  0.00    +0.000 A 
ATOM     31  C   UNL     1       2.794   3.907  17.581  0.00  0.00    +0.000 A 
ATOM     32  C   UNL     1       1.827   3.669  18.556  0.00  0.00    +0.000 A 
ATOM     33 CL   UNL     1       0.949   2.188  18.520  0.00  0.00    +0.000 Cl
ATOM     34  C   UNL     1       1.579   4.627  19.544  0.00  0.00    +0.000 A 
ATOM     35  F   UNL     1       0.640   4.392  20.475  0.00  0.00    +0.000 F 
ENDBRANCH  27  28
ENDBRANCH   4  27
TORSDOF 7
ENDMDL
MODEL 9
REMARK VINA RESULT:      -8.0      6.402     10.728
REMARK  Name = 
REMARK  8 active torsions:
REMARK  status: ('A' for Active; 'I' for Inactive)
REMARK    1  A    between atoms: C_1  and  O_2
REMARK    2  A    between atoms: O_2  and  N_3
REMARK    3  A    between atoms: C_4  and  C_6
REMARK    4  A    between atoms: C_6  and  C_7
REMARK    5  A    between atoms: C_7  and  C_8
REMARK    6  A    between atoms: C_12  and  N_13
REMARK    7  A    between atoms: C_22  and  O_23
REMARK    8  A    between atoms: O_23  and  C_24
REMARK                            x       y       z     vdW  Elec       q    Type
REMARK                         _______ _______ _______ _____ _____    ______ ____
ROOT
ATOM      1  C   UNL     1       0.271  10.503  19.489  0.00  0.00    +0.000 C 
ATOM      2  C   UNL     1       0.993  10.022  20.773  0.00  0.00    +0.000 C 
ATOM      3  C   UNL     1       1.173   8.507  20.827  0.00  0.00    +0.000 C 
ATOM      4  C   UNL     1       2.001   8.002  19.639  0.00  0.00    +0.000 C 
ATOM      5  C   UNL     1       1.412   8.492  18.311  0.00  0.00    +0.000 C 
ATOM      6  C   UNL     1       1.125   9.995  18.287  0.00  0.00    +0.000 C 
ENDROOT
BRANCH   1   8
ATOM      7  N   UNL     1      -0.247  12.654  20.578  0.00  0.00    +0.000 N 
ATOM      8  C   UNL     1       0.259  12.049  19.437  0.00  0.00    +0.000 C 
ATOM      9  O   UNL     1       0.646  12.676  18.451  0.00  0.00    +0.000 OA
ATOM     10  H   UNL     1      -0.959  12.190  21.127  0.00  0.00    +0.000 HD
BRANCH   7  12
ATOM     11  C   UNL     1       0.399  14.658  21.491  0.00  0.00    +0.000 C 
ATOM     12  O   UNL     1      -0.418  14.057  20.490  0.00  0.00    +0.000 OA
ENDBRANCH   7  12
ENDBRANCH   1   8
BRANCH   1  13
ATOM     13  C   UNL     1      -1.184   9.966  19.362  0.00  0.00    +0.000 C 
BRANCH  13  14
ATOM     14  C   UNL     1      -2.081  10.422  18.226  0.00  0.00    +0.000 A 
ATOM     15  C   UNL     1      -1.838   9.879  16.964  0.00  0.00    +0.000 A 
ATOM     16  C   UNL     1      -2.694  10.187  15.923  0.00  0.00    +0.000 A 
ATOM     17  C   UNL     1      -3.757  11.043  16.163  0.00  0.00    +0.000 A 
ATOM     18  C   UNL     1      -3.923  11.611  17.422  0.00  0.00    +0.000 A 
ATOM     19  N   UNL     1      -3.102  11.282  18.450  0.00  0.00    +0.000 NA
BRANCH  18  20
ATOM     20  N   UNL     1      -4.944  12.529  17.694  0.00  0.00    +0.000 N 
ATOM     21  C   UNL     1      -5.867  12.413  18.680  0.00  0.00    +0.000 A 
ATOM     22  N   UNL     1      -5.918  11.462  19.593  0.00  0.00    +0.000 NA
ATOM     23  C   UNL     1      -7.006  11.614  20.417  0.00  0.00    +0.000 A 
ATOM     24  C   UNL     1      -7.793  12.705  20.151  0.00  0.00    +0.000 A 
ATOM     25  S   UNL     1      -7.155  13.564  18.812  0.00  0.00    +0.000 S 
ATOM     26  H   UNL     1      -5.192  13.044  16.858  0.00  0.00    +0.000 HD
ENDBRANCH  18  20
ENDBRANCH  13  14
ENDBRANCH   1  13
BRANCH   4  27
ATOM     27  O   UNL     1       1.987   6.568  19.681  0.00  0.00    +0.000 OA
BRANCH  27  28
ATOM     28  C   UNL     1       3.070   5.868  19.219  0.00  0.00    +0.000 A 
ATOM     29  C   UNL     1       3.971   6.315  18.250  0.00  0.00    +0.000 A 
ATOM     30  C   UNL     1       5.046   5.514  17.851  0.00  0.00    +0.000 A 
ATOM     31  C   UNL     1       5.232   4.255  18.418  0.00  0.00    +0.000 A 
ATOM     32  C   UNL     1       4.338   3.796  19.382  0.00  0.00    +0.000 A 
ATOM     33 CL   UNL     1       4.578   2.235  20.071  0.00  0.00    +0.000 Cl
ATOM     34  C   UNL     1       3.263   4.596  19.778  0.00  0.00    +0.000 A 
ATOM     35  F   UNL     1       2.401   4.142  20.704  0.00  0.00    +0.000 F 
ENDBRANCH  27  28
ENDBRANCH   4  27
TORSDOF 7
ENDMDL
