MODEL 1
REMARK VINA RESULT:      -7.5      0.000      0.000
REMARK  Name = 
REMARK  5 active torsions:
REMARK  status: ('A' for Active; 'I' for Inactive)
REMARK    1  A    between atoms: S_2  and  N_4
REMARK    2  A    between atoms: S_2  and  C_22
REMARK    3  A    between atoms: N_4  and  C_5
REMARK    4  A    between atoms: C_7  and  C_8
REMARK    5  A    between atoms: N_14  and  C_15
REMARK                            x       y       z     vdW  Elec       q    Type
REMARK                         _______ _______ _______ _____ _____    ______ ____
ROOT
ATOM      1  C   UNL     1       2.396   6.312  20.566  0.00  0.00    +0.000 A 
ATOM      2  C   UNL     1       1.487   7.296  20.857  0.00  0.00    +0.000 A 
ATOM      3  C   UNL     1       1.568   8.206  19.783  0.00  0.00    +0.000 A 
ATOM      4  N   UNL     1       2.465   7.811  18.871  0.00  0.00    +0.000 NA
ATOM      5  N   UNL     1       2.985   6.655  19.354  0.00  0.00    +0.000 N 
ENDROOT
BRANCH   5   6
ATOM      6  C   UNL     1       3.963   5.946  18.604  0.00  0.00    +0.000 A 
ATOM      7  C   UNL     1       3.849   5.776  17.216  0.00  0.00    +0.000 A 
ATOM      8  C   UNL     1       4.846   5.090  16.516  0.00  0.00    +0.000 A 
ATOM      9  C   UNL     1       5.948   4.584  17.194  0.00  0.00    +0.000 A 
ATOM     10  F   UNL     1       6.898   3.933  16.512  0.00  0.00    +0.000 F 
ATOM     11  C   UNL     1       6.070   4.735  18.568  0.00  0.00    +0.000 A 
ATOM     12  C   UNL     1       5.072   5.405  19.279  0.00  0.00    +0.000 A 
ENDBRANCH   5   6
BRANCH   3  13
ATOM     13  C   UNL     1       0.753   9.454  19.622  0.00  0.00    +0.000 A 
ATOM     14  C   UNL     1       0.371   9.989  18.408  0.00  0.00    +0.000 A 
ATOM     15  C   UNL     1      -0.402  11.178  18.563  0.00  0.00    +0.000 A 
ATOM     16  C   UNL     1      -0.583  11.506  19.889  0.00  0.00    +0.000 A 
ATOM     17  S   UNL     1       0.177  10.388  20.934  0.00  0.00    +0.000 S 
ENDBRANCH   3  13
BRANCH   1  18
ATOM     18  N   UNL     1       2.502   5.147  21.312  0.00  0.00    +0.000 N 
ATOM     19  H   UNL     1       3.418   4.840  21.596  0.00  0.00    +0.000 HD
BRANCH  18  21
ATOM     20  O   UNL     1       1.315   3.041  22.142  0.00  0.00    +0.000 OA
ATOM     21  S   UNL     1       1.516   3.878  20.978  0.00  0.00    +0.000 S 
ATOM     22  O   UNL     1       0.380   4.384  20.240  0.00  0.00    +0.000 OA
BRANCH  21  23
ATOM     23  C   UNL     1       2.500   2.942  19.824  0.00  0.00    +0.000 A 
ATOM     24  C   UNL     1       2.106   2.865  18.480  0.00  0.00    +0.000 A 
ATOM     25  C   UNL     1       2.831   2.064  17.595  0.00  0.00    +0.000 A 
ATOM     26  C   UNL     1       3.934   1.344  18.053  0.00  0.00    +0.000 A 
ATOM     27  C   UNL     1       4.311   1.431  19.391  0.00  0.00    +0.000 A 
ATOM     28  F   UNL     1       5.364   0.730  19.825  0.00  0.00    +0.000 F 
ATOM     29  C   UNL     1       3.605   2.224  20.287  0.00  0.00    +0.000 A 
ENDBRANCH  21  23
ENDBRANCH  18  21
ENDBRANCH   1  18
TORSDOF 5
ENDMDL
MODEL 2
REMARK VINA RESULT:      -7.5      4.898      6.693
REMARK  Name = 
REMARK  5 active torsions:
REMARK  status: ('A' for Active; 'I' for Inactive)
REMARK    1  A    between atoms: S_2  and  N_4
REMARK    2  A    between atoms: S_2  and  C_22
REMARK    3  A    between atoms: N_4  and  C_5
REMARK    4  A    between atoms: C_7  and  C_8
REMARK    5  A    between atoms: N_14  and  C_15
REMARK                            x       y       z     vdW  Elec       q    Type
REMARK                         _______ _______ _______ _____ _____    ______ ____
ROOT
ATOM      1  C   UNL     1       5.806   4.128  16.867  0.00  0.00    +0.000 A 
ATOM      2  C   UNL     1       4.702   3.342  17.074  0.00  0.00    +0.000 A 
ATOM      3  C   UNL     1       4.035   3.920  18.175  0.00  0.00    +0.000 A 
ATOM      4  N   UNL     1       4.678   5.006  18.622  0.00  0.00    +0.000 NA
ATOM      5  N   UNL     1       5.772   5.130  17.831  0.00  0.00    +0.000 N 
ENDROOT
BRANCH   5   6
ATOM      6  C   UNL     1       6.671   6.215  18.022  0.00  0.00    +0.000 A 
ATOM      7  C   UNL     1       6.551   7.410  17.297  0.00  0.00    +0.000 A 
ATOM      8  C   UNL     1       7.445   8.459  17.533  0.00  0.00    +0.000 A 
ATOM      9  C   UNL     1       8.445   8.317  18.488  0.00  0.00    +0.000 A 
ATOM     10  F   UNL     1       9.291   9.330  18.708  0.00  0.00    +0.000 F 
ATOM     11  C   UNL     1       8.583   7.138  19.205  0.00  0.00    +0.000 A 
ATOM     12  C   UNL     1       7.705   6.078  18.965  0.00  0.00    +0.000 A 
ENDBRANCH   5   6
BRANCH   3  13
ATOM     13  C   UNL     1       2.753   3.436  18.782  0.00  0.00    +0.000 A 
ATOM     14  C   UNL     1       1.726   2.844  18.075  0.00  0.00    +0.000 A 
ATOM     15  C   UNL     1       0.632   2.482  18.916  0.00  0.00    +0.000 A 
ATOM     16  C   UNL     1       0.865   2.810  20.234  0.00  0.00    +0.000 A 
ATOM     17  S   UNL     1       2.390   3.549  20.450  0.00  0.00    +0.000 S 
ENDBRANCH   3  13
BRANCH   1  18
ATOM     18  N   UNL     1       6.638   3.973  15.768  0.00  0.00    +0.000 N 
ATOM     19  H   UNL     1       7.581   3.658  15.919  0.00  0.00    +0.000 HD
BRANCH  18  21
ATOM     20  O   UNL     1       5.442   5.964  14.697  0.00  0.00    +0.000 OA
ATOM     21  S   UNL     1       6.552   5.048  14.530  0.00  0.00    +0.000 S 
ATOM     22  O   UNL     1       7.884   5.554  14.291  0.00  0.00    +0.000 OA
BRANCH  21  23
ATOM     23  C   UNL     1       6.152   3.990  13.152  0.00  0.00    +0.000 A 
ATOM     24  C   UNL     1       4.810   3.775  12.809  0.00  0.00    +0.000 A 
ATOM     25  C   UNL     1       4.495   2.882  11.783  0.00  0.00    +0.000 A 
ATOM     26  C   UNL     1       5.515   2.206  11.113  0.00  0.00    +0.000 A 
ATOM     27  C   UNL     1       6.843   2.430  11.467  0.00  0.00    +0.000 A 
ATOM     28  F   UNL     1       7.815   1.771  10.826  0.00  0.00    +0.000 F 
ATOM     29  C   UNL     1       7.177   3.317  12.483  0.00  0.00    +0.000 A 
ENDBRANCH  21  23
ENDBRANCH  18  21
ENDBRANCH   1  18
TORSDOF 5
ENDMDL
MODEL 3
REMARK VINA RESULT:      -7.5      4.839      6.714
REMARK  Name = 
REMARK  5 active torsions:
REMARK  status: ('A' for Active; 'I' for Inactive)
REMARK    1  A    between atoms: S_2  and  N_4
REMARK    2  A    between atoms: S_2  and  C_22
REMARK    3  A    between atoms: N_4  and  C_5
REMARK    4  A    between atoms: C_7  and  C_8
REMARK    5  A    between atoms: N_14  and  C_15
REMARK                            x       y       z     vdW  Elec       q    Type
REMARK                         _______ _______ _______ _____ _____    ______ ____
ROOT
ATOM      1  C   UNL     1       5.785   4.124  16.839  0.00  0.00    +0.000 A 
ATOM      2  C   UNL     1       4.663   3.357  17.023  0.00  0.00    +0.000 A 
ATOM      3  C   UNL     1       3.974   3.959  18.097  0.00  0.00    +0.000 A 
ATOM      4  N   UNL     1       4.620   5.040  18.551  0.00  0.00    +0.000 NA
ATOM      5  N   UNL     1       5.739   5.137  17.790  0.00  0.00    +0.000 N 
ENDROOT
BRANCH   5   6
ATOM      6  C   UNL     1       6.649   6.211  17.995  0.00  0.00    +0.000 A 
ATOM      7  C   UNL     1       6.550   7.410  17.274  0.00  0.00    +0.000 A 
ATOM      8  C   UNL     1       7.454   8.447  17.523  0.00  0.00    +0.000 A 
ATOM      9  C   UNL     1       8.442   8.290  18.487  0.00  0.00    +0.000 A 
ATOM     10  F   UNL     1       9.298   9.292  18.721  0.00  0.00    +0.000 F 
ATOM     11  C   UNL     1       8.559   7.106  19.202  0.00  0.00    +0.000 A 
ATOM     12  C   UNL     1       7.671   6.058  18.948  0.00  0.00    +0.000 A 
ENDBRANCH   5   6
BRANCH   3  13
ATOM     13  C   UNL     1       2.668   3.502  18.673  0.00  0.00    +0.000 A 
ATOM     14  C   UNL     1       1.890   2.490  18.145  0.00  0.00    +0.000 A 
ATOM     15  C   UNL     1       0.703   2.271  18.905  0.00  0.00    +0.000 A 
ATOM     16  C   UNL     1       0.619   3.120  19.987  0.00  0.00    +0.000 A 
ATOM     17  S   UNL     1       1.962   4.174  20.078  0.00  0.00    +0.000 S 
ENDBRANCH   3  13
BRANCH   1  18
ATOM     18  N   UNL     1       6.645   3.944  15.766  0.00  0.00    +0.000 N 
ATOM     19  H   UNL     1       7.593   3.661  15.952  0.00  0.00    +0.000 HD
BRANCH  18  21
ATOM     20  O   UNL     1       5.456   5.890  14.610  0.00  0.00    +0.000 OA
ATOM     21  S   UNL     1       6.559   4.960  14.480  0.00  0.00    +0.000 S 
ATOM     22  O   UNL     1       7.894   5.446  14.211  0.00  0.00    +0.000 OA
BRANCH  21  23
ATOM     23  C   UNL     1       6.146   3.842  13.155  0.00  0.00    +0.000 A 
ATOM     24  C   UNL     1       7.163   3.117  12.517  0.00  0.00    +0.000 A 
ATOM     25  C   UNL     1       6.849   2.305  11.425  0.00  0.00    +0.000 A 
ATOM     26  C   UNL     1       5.531   2.224  10.974  0.00  0.00    +0.000 A 
ATOM     27  C   UNL     1       4.534   2.951  11.620  0.00  0.00    +0.000 A 
ATOM     28  F   UNL     1       3.273   2.876  11.176  0.00  0.00    +0.000 F 
ATOM     29  C   UNL     1       4.825   3.763  12.709  0.00  0.00    +0.000 A 
ENDBRANCH  21  23
ENDBRANCH  18  21
ENDBRANCH   1  18
TORSDOF 5
ENDMDL
MODEL 4
REMARK VINA RESULT:      -7.3      0.996      1.371
REMARK  Name = 
REMARK  5 active torsions:
REMARK  status: ('A' for Active; 'I' for Inactive)
REMARK    1  A    between atoms: S_2  and  N_4
REMARK    2  A    between atoms: S_2  and  C_22
REMARK    3  A    between atoms: N_4  and  C_5
REMARK    4  A    between atoms: C_7  and  C_8
REMARK    5  A    between atoms: N_14  and  C_15
REMARK                            x       y       z     vdW  Elec       q    Type
REMARK                         _______ _______ _______ _____ _____    ______ ____
ROOT
ATOM      1  C   UNL     1       2.466   6.305  20.541  0.00  0.00    +0.000 A 
ATOM      2  C   UNL     1       1.520   7.250  20.844  0.00  0.00    +0.000 A 
ATOM      3  C   UNL     1       1.564   8.175  19.781  0.00  0.00    +0.000 A 
ATOM      4  N   UNL     1       2.474   7.826  18.863  0.00  0.00    +0.000 NA
ATOM      5  N   UNL     1       3.040   6.686  19.332  0.00  0.00    +0.000 N 
ENDROOT
BRANCH   5   6
ATOM      6  C   UNL     1       4.044   6.024  18.573  0.00  0.00    +0.000 A 
ATOM      7  C   UNL     1       4.034   6.030  17.171  0.00  0.00    +0.000 A 
ATOM      8  C   UNL     1       5.053   5.384  16.465  0.00  0.00    +0.000 A 
ATOM      9  C   UNL     1       6.076   4.743  17.154  0.00  0.00    +0.000 A 
ATOM     10  F   UNL     1       7.049   4.133  16.468  0.00  0.00    +0.000 F 
ATOM     11  C   UNL     1       6.094   4.719  18.542  0.00  0.00    +0.000 A 
ATOM     12  C   UNL     1       5.071   5.348  19.255  0.00  0.00    +0.000 A 
ENDBRANCH   5   6
BRANCH   3  13
ATOM     13  C   UNL     1       0.701   9.392  19.635  0.00  0.00    +0.000 A 
ATOM     14  C   UNL     1       0.439  10.028  18.438  0.00  0.00    +0.000 A 
ATOM     15  C   UNL     1      -0.417  11.157  18.604  0.00  0.00    +0.000 A 
ATOM     16  C   UNL     1      -0.780  11.339  19.920  0.00  0.00    +0.000 A 
ATOM     17  S   UNL     1      -0.089  10.159  20.944  0.00  0.00    +0.000 S 
ENDBRANCH   3  13
BRANCH   1  18
ATOM     18  N   UNL     1       2.618   5.137  21.273  0.00  0.00    +0.000 N 
ATOM     19  H   UNL     1       3.550   4.818  21.481  0.00  0.00    +0.000 HD
BRANCH  18  21
ATOM     20  O   UNL     1       1.556   2.986  22.156  0.00  0.00    +0.000 OA
ATOM     21  S   UNL     1       1.593   3.882  21.018  0.00  0.00    +0.000 S 
ATOM     22  O   UNL     1       0.365   4.417  20.474  0.00  0.00    +0.000 OA
BRANCH  21  23
ATOM     23  C   UNL     1       2.402   3.009  19.692  0.00  0.00    +0.000 A 
ATOM     24  C   UNL     1       3.463   2.139  19.980  0.00  0.00    +0.000 A 
ATOM     25  C   UNL     1       4.150   1.520  18.934  0.00  0.00    +0.000 A 
ATOM     26  C   UNL     1       3.783   1.776  17.613  0.00  0.00    +0.000 A 
ATOM     27  C   UNL     1       2.727   2.643  17.345  0.00  0.00    +0.000 A 
ATOM     28  F   UNL     1       2.386   2.892  16.074  0.00  0.00    +0.000 F 
ATOM     29  C   UNL     1       2.029   3.267  18.371  0.00  0.00    +0.000 A 
ENDBRANCH  21  23
ENDBRANCH  18  21
ENDBRANCH   1  18
TORSDOF 5
ENDMDL
MODEL 5
REMARK VINA RESULT:      -7.3      4.737      6.696
REMARK  Name = 
REMARK  5 active torsions:
REMARK  status: ('A' for Active; 'I' for Inactive)
REMARK    1  A    between atoms: S_2  and  N_4
REMARK    2  A    between atoms: S_2  and  C_22
REMARK    3  A    between atoms: N_4  and  C_5
REMARK    4  A    between atoms: C_7  and  C_8
REMARK    5  A    between atoms: N_14  and  C_15
REMARK                            x       y       z     vdW  Elec       q    Type
REMARK                         _______ _______ _______ _____ _____    ______ ____
ROOT
ATOM      1  C   UNL     1       5.683   4.166  16.920  0.00  0.00    +0.000 A 
ATOM      2  C   UNL     1       4.562   3.403  17.129  0.00  0.00    +0.000 A 
ATOM      3  C   UNL     1       3.894   4.014  18.211  0.00  0.00    +0.000 A 
ATOM      4  N   UNL     1       4.551   5.097  18.645  0.00  0.00    +0.000 NA
ATOM      5  N   UNL     1       5.656   5.186  17.864  0.00  0.00    +0.000 N 
ENDROOT
BRANCH   5   6
ATOM      6  C   UNL     1       6.572   6.259  18.045  0.00  0.00    +0.000 A 
ATOM      7  C   UNL     1       7.674   6.151  18.906  0.00  0.00    +0.000 A 
ATOM      8  C   UNL     1       8.561   7.224  19.037  0.00  0.00    +0.000 A 
ATOM      9  C   UNL     1       8.351   8.390  18.311  0.00  0.00    +0.000 A 
ATOM     10  F   UNL     1       9.210   9.409  18.442  0.00  0.00    +0.000 F 
ATOM     11  C   UNL     1       7.260   8.516  17.464  0.00  0.00    +0.000 A 
ATOM     12  C   UNL     1       6.360   7.456  17.338  0.00  0.00    +0.000 A 
ENDBRANCH   5   6
BRANCH   3  13
ATOM     13  C   UNL     1       2.597   3.564  18.813  0.00  0.00    +0.000 A 
ATOM     14  C   UNL     1       1.859   4.297  19.721  0.00  0.00    +0.000 A 
ATOM     15  C   UNL     1       0.668   3.620  20.117  0.00  0.00    +0.000 A 
ATOM     16  C   UNL     1       0.539   2.397  19.497  0.00  0.00    +0.000 A 
ATOM     17  S   UNL     1       1.848   2.071  18.448  0.00  0.00    +0.000 S 
ENDBRANCH   3  13
BRANCH   1  18
ATOM     18  N   UNL     1       6.523   3.976  15.833  0.00  0.00    +0.000 N 
ATOM     19  H   UNL     1       7.449   3.617  15.998  0.00  0.00    +0.000 HD
BRANCH  18  21
ATOM     20  O   UNL     1       5.410   5.994  14.726  0.00  0.00    +0.000 OA
ATOM     21  S   UNL     1       6.505   5.055  14.596  0.00  0.00    +0.000 S 
ATOM     22  O   UNL     1       7.856   5.535  14.409  0.00  0.00    +0.000 OA
BRANCH  21  23
ATOM     23  C   UNL     1       6.135   4.010  13.201  0.00  0.00    +0.000 A 
ATOM     24  C   UNL     1       4.800   3.785  12.838  0.00  0.00    +0.000 A 
ATOM     25  C   UNL     1       4.508   2.901  11.797  0.00  0.00    +0.000 A 
ATOM     26  C   UNL     1       5.544   2.245  11.132  0.00  0.00    +0.000 A 
ATOM     27  C   UNL     1       6.865   2.480  11.506  0.00  0.00    +0.000 A 
ATOM     28  F   UNL     1       7.852   1.839  10.869  0.00  0.00    +0.000 F 
ATOM     29  C   UNL     1       7.176   3.357  12.536  0.00  0.00    +0.000 A 
ENDBRANCH  21  23
ENDBRANCH  18  21
ENDBRANCH   1  18
TORSDOF 5
ENDMDL
MODEL 6
REMARK VINA RESULT:      -7.2      1.170      1.825
REMARK  Name = 
REMARK  5 active torsions:
REMARK  status: ('A' for Active; 'I' for Inactive)
REMARK    1  A    between atoms: S_2  and  N_4
REMARK    2  A    between atoms: S_2  and  C_22
REMARK    3  A    between atoms: N_4  and  C_5
REMARK    4  A    between atoms: C_7  and  C_8
REMARK    5  A    between atoms: N_14  and  C_15
REMARK                            x       y       z     vdW  Elec       q    Type
REMARK                         _______ _______ _______ _____ _____    ______ ____
ROOT
ATOM      1  C   UNL     1       2.456   6.269  20.591  0.00  0.00    +0.000 A 
ATOM      2  C   UNL     1       1.511   7.211  20.905  0.00  0.00    +0.000 A 
ATOM      3  C   UNL     1       1.573   8.161  19.864  0.00  0.00    +0.000 A 
ATOM      4  N   UNL     1       2.494   7.829  18.950  0.00  0.00    +0.000 NA
ATOM      5  N   UNL     1       3.048   6.675  19.400  0.00  0.00    +0.000 N 
ENDROOT
BRANCH   5   6
ATOM      6  C   UNL     1       4.058   6.026  18.638  0.00  0.00    +0.000 A 
ATOM      7  C   UNL     1       5.103   5.318  19.250  0.00  0.00    +0.000 A 
ATOM      8  C   UNL     1       6.064   4.677  18.461  0.00  0.00    +0.000 A 
ATOM      9  C   UNL     1       5.978   4.739  17.076  0.00  0.00    +0.000 A 
ATOM     10  F   UNL     1       6.900   4.118  16.331  0.00  0.00    +0.000 F 
ATOM     11  C   UNL     1       4.956   5.445  16.456  0.00  0.00    +0.000 A 
ATOM     12  C   UNL     1       4.001   6.101  17.235  0.00  0.00    +0.000 A 
ENDBRANCH   5   6
BRANCH   3  13
ATOM     13  C   UNL     1       0.718   9.385  19.736  0.00  0.00    +0.000 A 
ATOM     14  C   UNL     1       0.209  10.100  20.801  0.00  0.00    +0.000 A 
ATOM     15  C   UNL     1      -0.566  11.220  20.377  0.00  0.00    +0.000 A 
ATOM     16  C   UNL     1      -0.618  11.321  19.004  0.00  0.00    +0.000 A 
ATOM     17  S   UNL     1       0.260  10.071  18.238  0.00  0.00    +0.000 S 
ENDBRANCH   3  13
BRANCH   1  18
ATOM     18  N   UNL     1       2.593   5.083  21.298  0.00  0.00    +0.000 N 
ATOM     19  H   UNL     1       3.520   4.751  21.506  0.00  0.00    +0.000 HD
BRANCH  18  21
ATOM     20  O   UNL     1       1.500   2.925  22.125  0.00  0.00    +0.000 OA
ATOM     21  S   UNL     1       1.559   3.842  21.006  0.00  0.00    +0.000 S 
ATOM     22  O   UNL     1       0.343   4.400  20.457  0.00  0.00    +0.000 OA
BRANCH  21  23
ATOM     23  C   UNL     1       2.377   2.988  19.673  0.00  0.00    +0.000 A 
ATOM     24  C   UNL     1       3.436   2.113  19.956  0.00  0.00    +0.000 A 
ATOM     25  C   UNL     1       4.130   1.509  18.906  0.00  0.00    +0.000 A 
ATOM     26  C   UNL     1       3.771   1.783  17.586  0.00  0.00    +0.000 A 
ATOM     27  C   UNL     1       2.717   2.655  17.323  0.00  0.00    +0.000 A 
ATOM     28  F   UNL     1       2.385   2.921  16.054  0.00  0.00    +0.000 F 
ATOM     29  C   UNL     1       2.013   3.264  18.353  0.00  0.00    +0.000 A 
ENDBRANCH  21  23
ENDBRANCH  18  21
ENDBRANCH   1  18
TORSDOF 5
ENDMDL
MODEL 7
REMARK VINA RESULT:      -7.1      3.761      7.298
REMARK  Name = 
REMARK  5 active torsions:
REMARK  status: ('A' for Active; 'I' for Inactive)
REMARK    1  A    between atoms: S_2  and  N_4
REMARK    2  A    between atoms: S_2  and  C_22
REMARK    3  A    between atoms: N_4  and  C_5
REMARK    4  A    between atoms: C_7  and  C_8
REMARK    5  A    between atoms: N_14  and  C_15
REMARK                            x       y       z     vdW  Elec       q    Type
REMARK                         _______ _______ _______ _____ _____    ______ ____
ROOT
ATOM      1  C   UNL     1       3.965   6.291  17.951  0.00  0.00    +0.000 A 
ATOM      2  C   UNL     1       4.687   6.404  16.791  0.00  0.00    +0.000 A 
ATOM      3  C   UNL     1       4.852   5.082  16.326  0.00  0.00    +0.000 A 
ATOM      4  N   UNL     1       4.260   4.199  17.140  0.00  0.00    +0.000 NA
ATOM      5  N   UNL     1       3.726   4.935  18.146  0.00  0.00    +0.000 N 
ENDROOT
BRANCH   5   6
ATOM      6  C   UNL     1       2.992   4.298  19.183  0.00  0.00    +0.000 A 
ATOM      7  C   UNL     1       1.630   4.561  19.394  0.00  0.00    +0.000 A 
ATOM      8  C   UNL     1       0.943   3.896  20.413  0.00  0.00    +0.000 A 
ATOM      9  C   UNL     1       1.607   2.972  21.210  0.00  0.00    +0.000 A 
ATOM     10  F   UNL     1       0.937   2.337  22.179  0.00  0.00    +0.000 F 
ATOM     11  C   UNL     1       2.957   2.708  21.021  0.00  0.00    +0.000 A 
ATOM     12  C   UNL     1       3.656   3.380  20.016  0.00  0.00    +0.000 A 
ENDBRANCH   5   6
BRANCH   3  13
ATOM     13  C   UNL     1       5.562   4.672  15.072  0.00  0.00    +0.000 A 
ATOM     14  C   UNL     1       4.986   3.949  14.046  0.00  0.00    +0.000 A 
ATOM     15  C   UNL     1       5.900   3.708  12.979  0.00  0.00    +0.000 A 
ATOM     16  C   UNL     1       7.140   4.255  13.227  0.00  0.00    +0.000 A 
ATOM     17  S   UNL     1       7.196   5.051  14.738  0.00  0.00    +0.000 S 
ENDBRANCH   3  13
BRANCH   1  18
ATOM     18  N   UNL     1       3.464   7.393  18.630  0.00  0.00    +0.000 N 
ATOM     19  H   UNL     1       3.443   7.369  19.636  0.00  0.00    +0.000 HD
BRANCH  18  21
ATOM     20  O   UNL     1       2.589   9.375  17.273  0.00  0.00    +0.000 OA
ATOM     21  S   UNL     1       2.175   8.204  18.018  0.00  0.00    +0.000 S 
ATOM     22  O   UNL     1       1.288   7.234  17.416  0.00  0.00    +0.000 OA
BRANCH  21  23
ATOM     23  C   UNL     1       1.369   8.783  19.498  0.00  0.00    +0.000 A 
ATOM     24  C   UNL     1       1.560   8.097  20.706  0.00  0.00    +0.000 A 
ATOM     25  C   UNL     1       0.863   8.502  21.846  0.00  0.00    +0.000 A 
ATOM     26  C   UNL     1      -0.019   9.579  21.776  0.00  0.00    +0.000 A 
ATOM     27  C   UNL     1      -0.197  10.250  20.568  0.00  0.00    +0.000 A 
ATOM     28  F   UNL     1      -1.053  11.277  20.506  0.00  0.00    +0.000 F 
ATOM     29  C   UNL     1       0.488   9.864  19.423  0.00  0.00    +0.000 A 
ENDBRANCH  21  23
ENDBRANCH  18  21
ENDBRANCH   1  18
TORSDOF 5
ENDMDL
MODEL 8
REMARK VINA RESULT:      -7.0      2.519      3.741
REMARK  Name = 
REMARK  5 active torsions:
REMARK  status: ('A' for Active; 'I' for Inactive)
REMARK    1  A    between atoms: S_2  and  N_4
REMARK    2  A    between atoms: S_2  and  C_22
REMARK    3  A    between atoms: N_4  and  C_5
REMARK    4  A    between atoms: C_7  and  C_8
REMARK    5  A    between atoms: N_14  and  C_15
REMARK                            x       y       z     vdW  Elec       q    Type
REMARK                         _______ _______ _______ _____ _____    ______ ____
ROOT
ATOM      1  C   UNL     1       2.685   6.897  18.069  0.00  0.00    +0.000 A 
ATOM      2  C   UNL     1       2.589   8.246  17.840  0.00  0.00    +0.000 A 
ATOM      3  C   UNL     1       1.878   8.760  18.945  0.00  0.00    +0.000 A 
ATOM      4  N   UNL     1       1.558   7.795  19.815  0.00  0.00    +0.000 NA
ATOM      5  N   UNL     1       2.040   6.648  19.275  0.00  0.00    +0.000 N 
ENDROOT
BRANCH   5   6
ATOM      6  C   UNL     1       1.892   5.416  19.969  0.00  0.00    +0.000 A 
ATOM      7  C   UNL     1       2.532   5.177  21.194  0.00  0.00    +0.000 A 
ATOM      8  C   UNL     1       2.341   3.958  21.852  0.00  0.00    +0.000 A 
ATOM      9  C   UNL     1       1.513   2.991  21.295  0.00  0.00    +0.000 A 
ATOM     10  F   UNL     1       1.334   1.830  21.937  0.00  0.00    +0.000 F 
ATOM     11  C   UNL     1       0.881   3.208  20.079  0.00  0.00    +0.000 A 
ATOM     12  C   UNL     1       1.079   4.415  19.406  0.00  0.00    +0.000 A 
ENDBRANCH   5   6
BRANCH   3  13
ATOM     13  C   UNL     1       1.529  10.199  19.175  0.00  0.00    +0.000 A 
ATOM     14  C   UNL     1       1.914  11.241  18.355  0.00  0.00    +0.000 A 
ATOM     15  C   UNL     1       1.434  12.500  18.820  0.00  0.00    +0.000 A 
ATOM     16  C   UNL     1       0.697  12.375  19.978  0.00  0.00    +0.000 A 
ATOM     17  S   UNL     1       0.592  10.750  20.496  0.00  0.00    +0.000 S 
ENDBRANCH   3  13
BRANCH   1  18
ATOM     18  N   UNL     1       3.456   6.059  17.277  0.00  0.00    +0.000 N 
ATOM     19  H   UNL     1       2.990   5.361  16.720  0.00  0.00    +0.000 HD
BRANCH  18  21
ATOM     20  O   UNL     1       5.900   5.489  16.788  0.00  0.00    +0.000 OA
ATOM     21  S   UNL     1       4.901   5.518  17.837  0.00  0.00    +0.000 S 
ATOM     22  O   UNL     1       5.174   6.197  19.083  0.00  0.00    +0.000 OA
BRANCH  21  23
ATOM     23  C   UNL     1       4.525   3.825  18.248  0.00  0.00    +0.000 A 
ATOM     24  C   UNL     1       3.717   3.066  17.390  0.00  0.00    +0.000 A 
ATOM     25  C   UNL     1       3.356   1.767  17.754  0.00  0.00    +0.000 A 
ATOM     26  C   UNL     1       3.794   1.237  18.968  0.00  0.00    +0.000 A 
ATOM     27  C   UNL     1       4.596   2.006  19.808  0.00  0.00    +0.000 A 
ATOM     28  F   UNL     1       5.005   1.494  20.976  0.00  0.00    +0.000 F 
ATOM     29  C   UNL     1       4.968   3.298  19.463  0.00  0.00    +0.000 A 
ENDBRANCH  21  23
ENDBRANCH  18  21
ENDBRANCH   1  18
TORSDOF 5
ENDMDL
MODEL 9
REMARK VINA RESULT:      -6.9      2.654      3.423
REMARK  Name = 
REMARK  5 active torsions:
REMARK  status: ('A' for Active; 'I' for Inactive)
REMARK    1  A    between atoms: S_2  and  N_4
REMARK    2  A    between atoms: S_2  and  C_22
REMARK    3  A    between atoms: N_4  and  C_5
REMARK    4  A    between atoms: C_7  and  C_8
REMARK    5  A    between atoms: N_14  and  C_15
REMARK                            x       y       z     vdW  Elec       q    Type
REMARK                         _______ _______ _______ _____ _____    ______ ____
ROOT
ATOM      1  C   UNL     1       4.716   4.905  18.815  0.00  0.00    +0.000 A 
ATOM      2  C   UNL     1       3.872   5.623  19.623  0.00  0.00    +0.000 A 
ATOM      3  C   UNL     1       3.337   6.633  18.796  0.00  0.00    +0.000 A 
ATOM      4  N   UNL     1       3.811   6.547  17.547  0.00  0.00    +0.000 NA
ATOM      5  N   UNL     1       4.667   5.495  17.557  0.00  0.00    +0.000 N 
ENDROOT
BRANCH   5   6
ATOM      6  C   UNL     1       5.333   5.107  16.362  0.00  0.00    +0.000 A 
ATOM      7  C   UNL     1       4.653   4.478  15.309  0.00  0.00    +0.000 A 
ATOM      8  C   UNL     1       5.343   4.133  14.144  0.00  0.00    +0.000 A 
ATOM      9  C   UNL     1       6.699   4.417  14.030  0.00  0.00    +0.000 A 
ATOM     10  F   UNL     1       7.348   4.086  12.907  0.00  0.00    +0.000 F 
ATOM     11  C   UNL     1       7.388   5.029  15.067  0.00  0.00    +0.000 A 
ATOM     12  C   UNL     1       6.711   5.363  16.242  0.00  0.00    +0.000 A 
ENDBRANCH   5   6
BRANCH   3  13
ATOM     13  C   UNL     1       2.341   7.674  19.209  0.00  0.00    +0.000 A 
ATOM     14  C   UNL     1       1.752   7.744  20.456  0.00  0.00    +0.000 A 
ATOM     15  C   UNL     1       0.847   8.841  20.563  0.00  0.00    +0.000 A 
ATOM     16  C   UNL     1       0.779   9.569  19.396  0.00  0.00    +0.000 A 
ATOM     17  S   UNL     1       1.799   8.930  18.183  0.00  0.00    +0.000 S 
ENDBRANCH   3  13
BRANCH   1  18
ATOM     18  N   UNL     1       5.318   3.724  19.225  0.00  0.00    +0.000 N 
ATOM     19  H   UNL     1       6.321   3.652  19.173  0.00  0.00    +0.000 HD
BRANCH  18  21
ATOM     20  O   UNL     1       4.559   2.020  17.477  0.00  0.00    +0.000 OA
ATOM     21  S   UNL     1       4.592   2.289  18.900  0.00  0.00    +0.000 S 
ATOM     22  O   UNL     1       5.127   1.305  19.814  0.00  0.00    +0.000 OA
BRANCH  21  23
ATOM     23  C   UNL     1       2.914   2.602  19.412  0.00  0.00    +0.000 A 
ATOM     24  C   UNL     1       1.962   3.000  18.462  0.00  0.00    +0.000 A 
ATOM     25  C   UNL     1       0.669   3.325  18.878  0.00  0.00    +0.000 A 
ATOM     26  C   UNL     1       0.335   3.258  20.230  0.00  0.00    +0.000 A 
ATOM     27  C   UNL     1       1.293   2.860  21.160  0.00  0.00    +0.000 A 
ATOM     28  F   UNL     1       0.968   2.807  22.457  0.00  0.00    +0.000 F 
ATOM     29  C   UNL     1       2.584   2.531  20.767  0.00  0.00    +0.000 A 
ENDBRANCH  21  23
ENDBRANCH  18  21
ENDBRANCH   1  18
TORSDOF 5
ENDMDL
