MODEL 1
REMARK VINA RESULT:      -7.0      0.000      0.000
REMARK  Name = 
REMARK  6 active torsions:
REMARK  status: ('A' for Active; 'I' for Inactive)
REMARK    1  A    between atoms: C_1  and  C_2
REMARK    2  A    between atoms: C_5  and  C_6
REMARK    3  A    between atoms: C_6  and  N_7
REMARK    4  A    between atoms: N_7  and  C_8
REMARK    5  A    between atoms: C_9  and  C_11
REMARK    6  A    between atoms: N_17  and  C_18
REMARK                            x       y       z     vdW  Elec       q    Type
REMARK                         _______ _______ _______ _____ _____    ______ ____
ROOT
ATOM      1  N   UNL     1       5.807   5.307  17.485  0.00  0.00    +0.000 N 
ATOM      2  C   UNL     1       6.798   4.402  18.042  0.00  0.00    +0.000 C 
ATOM      3  C   UNL     1       4.453   5.364  17.834  0.00  0.00    +0.000 C 
ATOM      4  O   UNL     1       3.703   6.060  17.138  0.00  0.00    +0.000 OA
ENDROOT
BRANCH   3   5
ATOM      5  C   UNL     1       3.925   4.584  19.109  0.00  0.00    +0.000 C 
ATOM      6  C   UNL     1       2.947   5.548  19.850  0.00  0.00    +0.000 C 
ATOM      7  C   UNL     1       2.056   5.003  20.982  0.00  0.00    +0.000 C 
ATOM      8  C   UNL     1       1.014   3.984  20.516  0.00  0.00    +0.000 C 
ATOM      9  C   UNL     1       1.552   2.557  20.421  0.00  0.00    +0.000 C 
ATOM     10  C   UNL     1       3.019   2.487  20.015  0.00  0.00    +0.000 C 
ATOM     11  N   UNL     1       3.205   3.306  18.808  0.00  0.00    +0.000 NA
ATOM     12  C   UNL     1       3.664   2.468  17.710  0.00  0.00    +0.000 C 
ENDBRANCH   3   5
BRANCH   1  13
ATOM     13  C   UNL     1       6.282   6.131  16.355  0.00  0.00    +0.000 C 
BRANCH  13  18
ATOM     14  C   UNL     1       5.626   3.192  12.379  0.00  0.00    +0.000 C 
ATOM     15  C   UNL     1       6.283   4.107  13.340  0.00  0.00    +0.000 A 
ATOM     16  C   UNL     1       7.528   4.691  13.240  0.00  0.00    +0.000 A 
ATOM     17  N   UNL     1       7.634   5.483  14.349  0.00  0.00    +0.000 N 
ATOM     18  C   UNL     1       6.494   5.334  15.102  0.00  0.00    +0.000 A 
ATOM     19  N   UNL     1       5.656   4.508  14.498  0.00  0.00    +0.000 NA
ATOM     20  H   UNL     1       8.412   6.080  14.611  0.00  0.00    +0.000 HD
ENDBRANCH  13  18
ENDBRANCH   1  13
TORSDOF 3
ENDMDL
MODEL 2
REMARK VINA RESULT:      -6.8      1.649      2.561
REMARK  Name = 
REMARK  6 active torsions:
REMARK  status: ('A' for Active; 'I' for Inactive)
REMARK    1  A    between atoms: C_1  and  C_2
REMARK    2  A    between atoms: C_5  and  C_6
REMARK    3  A    between atoms: C_6  and  N_7
REMARK    4  A    between atoms: N_7  and  C_8
REMARK    5  A    between atoms: C_9  and  C_11
REMARK    6  A    between atoms: N_17  and  C_18
REMARK                            x       y       z     vdW  Elec       q    Type
REMARK                         _______ _______ _______ _____ _____    ______ ____
ROOT
ATOM      1  N   UNL     1       5.439   5.014  15.774  0.00  0.00    +0.000 N 
ATOM      2  C   UNL     1       5.241   6.449  15.661  0.00  0.00    +0.000 C 
ATOM      3  C   UNL     1       4.795   4.162  16.678  0.00  0.00    +0.000 C 
ATOM      4  O   UNL     1       5.208   2.999  16.775  0.00  0.00    +0.000 OA
ENDROOT
BRANCH   3   5
ATOM      5  C   UNL     1       3.552   4.679  17.515  0.00  0.00    +0.000 C 
ATOM      6  C   UNL     1       2.442   3.590  17.387  0.00  0.00    +0.000 C 
ATOM      7  C   UNL     1       1.203   3.658  18.299  0.00  0.00    +0.000 C 
ATOM      8  C   UNL     1       1.512   3.451  19.783  0.00  0.00    +0.000 C 
ATOM      9  C   UNL     1       1.955   4.727  20.500  0.00  0.00    +0.000 C 
ATOM     10  C   UNL     1       2.749   5.677  19.613  0.00  0.00    +0.000 C 
ATOM     11  N   UNL     1       3.829   4.915  18.968  0.00  0.00    +0.000 NA
ATOM     12  C   UNL     1       5.120   5.453  19.372  0.00  0.00    +0.000 C 
ENDBRANCH   3   5
BRANCH   1  13
ATOM     13  C   UNL     1       6.523   4.467  14.935  0.00  0.00    +0.000 C 
BRANCH  13  18
ATOM     14  C   UNL     1       3.746   3.229  10.981  0.00  0.00    +0.000 C 
ATOM     15  C   UNL     1       4.899   3.287  11.909  0.00  0.00    +0.000 A 
ATOM     16  C   UNL     1       6.152   2.737  11.742  0.00  0.00    +0.000 A 
ATOM     17  N   UNL     1       6.855   3.122  12.848  0.00  0.00    +0.000 N 
ATOM     18  C   UNL     1       6.020   3.846  13.665  0.00  0.00    +0.000 A 
ATOM     19  N   UNL     1       4.828   3.966  13.104  0.00  0.00    +0.000 NA
ATOM     20  H   UNL     1       7.824   2.915  13.069  0.00  0.00    +0.000 HD
ENDBRANCH  13  18
ENDBRANCH   1  13
TORSDOF 3
ENDMDL
MODEL 3
REMARK VINA RESULT:      -6.7      1.215      1.440
REMARK  Name = 
REMARK  6 active torsions:
REMARK  status: ('A' for Active; 'I' for Inactive)
REMARK    1  A    between atoms: C_1  and  C_2
REMARK    2  A    between atoms: C_5  and  C_6
REMARK    3  A    between atoms: C_6  and  N_7
REMARK    4  A    between atoms: N_7  and  C_8
REMARK    5  A    between atoms: C_9  and  C_11
REMARK    6  A    between atoms: N_17  and  C_18
REMARK                            x       y       z     vdW  Elec       q    Type
REMARK                         _______ _______ _______ _____ _____    ______ ____
ROOT
ATOM      1  N   UNL     1       4.835   5.581  17.865  0.00  0.00    +0.000 N 
ATOM      2  C   UNL     1       3.526   6.197  17.732  0.00  0.00    +0.000 C 
ATOM      3  C   UNL     1       5.178   4.556  18.754  0.00  0.00    +0.000 C 
ATOM      4  O   UNL     1       6.376   4.270  18.875  0.00  0.00    +0.000 OA
ENDROOT
BRANCH   3   5
ATOM      5  C   UNL     1       4.047   3.773  19.541  0.00  0.00    +0.000 C 
ATOM      6  C   UNL     1       3.272   4.832  20.383  0.00  0.00    +0.000 C 
ATOM      7  C   UNL     1       1.943   4.442  21.057  0.00  0.00    +0.000 C 
ATOM      8  C   UNL     1       0.820   4.114  20.070  0.00  0.00    +0.000 C 
ATOM      9  C   UNL     1       0.846   2.670  19.571  0.00  0.00    +0.000 C 
ATOM     10  C   UNL     1       2.252   2.097  19.447  0.00  0.00    +0.000 C 
ATOM     11  N   UNL     1       3.071   3.040  18.672  0.00  0.00    +0.000 NA
ATOM     12  C   UNL     1       3.539   2.400  17.452  0.00  0.00    +0.000 C 
ENDBRANCH   3   5
BRANCH   1  13
ATOM     13  C   UNL     1       5.905   6.216  17.069  0.00  0.00    +0.000 C 
BRANCH  13  18
ATOM     14  C   UNL     1       5.561   3.483  12.910  0.00  0.00    +0.000 C 
ATOM     15  C   UNL     1       6.148   4.322  13.980  0.00  0.00    +0.000 A 
ATOM     16  C   UNL     1       7.423   4.845  14.045  0.00  0.00    +0.000 A 
ATOM     17  N   UNL     1       7.441   5.583  15.194  0.00  0.00    +0.000 N 
ATOM     18  C   UNL     1       6.218   5.462  15.810  0.00  0.00    +0.000 A 
ATOM     19  N   UNL     1       5.415   4.706  15.079  0.00  0.00    +0.000 NA
ATOM     20  H   UNL     1       8.211   6.128  15.568  0.00  0.00    +0.000 HD
ENDBRANCH  13  18
ENDBRANCH   1  13
TORSDOF 3
ENDMDL
MODEL 4
REMARK VINA RESULT:      -6.7      2.291      3.909
REMARK  Name = 
REMARK  6 active torsions:
REMARK  status: ('A' for Active; 'I' for Inactive)
REMARK    1  A    between atoms: C_1  and  C_2
REMARK    2  A    between atoms: C_5  and  C_6
REMARK    3  A    between atoms: C_6  and  N_7
REMARK    4  A    between atoms: N_7  and  C_8
REMARK    5  A    between atoms: C_9  and  C_11
REMARK    6  A    between atoms: N_17  and  C_18
REMARK                            x       y       z     vdW  Elec       q    Type
REMARK                         _______ _______ _______ _____ _____    ______ ____
ROOT
ATOM      1  N   UNL     1       6.023   4.422  17.584  0.00  0.00    +0.000 N 
ATOM      2  C   UNL     1       5.397   4.214  16.289  0.00  0.00    +0.000 C 
ATOM      3  C   UNL     1       5.389   4.340  18.828  0.00  0.00    +0.000 C 
ATOM      4  O   UNL     1       6.014   4.726  19.825  0.00  0.00    +0.000 OA
ENDROOT
BRANCH   3   5
ATOM      5  C   UNL     1       3.929   3.733  18.941  0.00  0.00    +0.000 C 
ATOM      6  C   UNL     1       3.941   2.764  20.164  0.00  0.00    +0.000 C 
ATOM      7  C   UNL     1       2.610   2.214  20.710  0.00  0.00    +0.000 C 
ATOM      8  C   UNL     1       1.698   3.283  21.315  0.00  0.00    +0.000 C 
ATOM      9  C   UNL     1       0.832   4.006  20.283  0.00  0.00    +0.000 C 
ATOM     10  C   UNL     1       1.510   4.164  18.927  0.00  0.00    +0.000 C 
ATOM     11  N   UNL     1       2.843   4.745  19.141  0.00  0.00    +0.000 NA
ATOM     12  C   UNL     1       2.933   6.032  18.468  0.00  0.00    +0.000 C 
ENDBRANCH   3   5
BRANCH   1  13
ATOM     13  C   UNL     1       7.421   4.892  17.531  0.00  0.00    +0.000 C 
BRANCH  13  18
ATOM     14  C   UNL     1       8.896   9.441  18.950  0.00  0.00    +0.000 C 
ATOM     15  C   UNL     1       8.143   8.379  18.244  0.00  0.00    +0.000 A 
ATOM     16  C   UNL     1       7.207   8.525  17.242  0.00  0.00    +0.000 A 
ATOM     17  N   UNL     1       6.858   7.250  16.899  0.00  0.00    +0.000 N 
ATOM     18  C   UNL     1       7.543   6.377  17.710  0.00  0.00    +0.000 A 
ATOM     19  N   UNL     1       8.338   7.047  18.528  0.00  0.00    +0.000 NA
ATOM     20  H   UNL     1       6.199   6.959  16.183  0.00  0.00    +0.000 HD
ENDBRANCH  13  18
ENDBRANCH   1  13
TORSDOF 3
ENDMDL
MODEL 5
REMARK VINA RESULT:      -6.6      2.124      3.794
REMARK  Name = 
REMARK  6 active torsions:
REMARK  status: ('A' for Active; 'I' for Inactive)
REMARK    1  A    between atoms: C_1  and  C_2
REMARK    2  A    between atoms: C_5  and  C_6
REMARK    3  A    between atoms: C_6  and  N_7
REMARK    4  A    between atoms: N_7  and  C_8
REMARK    5  A    between atoms: C_9  and  C_11
REMARK    6  A    between atoms: N_17  and  C_18
REMARK                            x       y       z     vdW  Elec       q    Type
REMARK                         _______ _______ _______ _____ _____    ______ ____
ROOT
ATOM      1  N   UNL     1       5.614   4.266  16.912  0.00  0.00    +0.000 N 
ATOM      2  C   UNL     1       4.846   4.561  15.714  0.00  0.00    +0.000 C 
ATOM      3  C   UNL     1       5.089   3.941  18.168  0.00  0.00    +0.000 C 
ATOM      4  O   UNL     1       5.868   3.901  19.129  0.00  0.00    +0.000 OA
ENDROOT
BRANCH   3   5
ATOM      5  C   UNL     1       3.549   3.601  18.325  0.00  0.00    +0.000 C 
ATOM      6  C   UNL     1       3.466   2.233  19.070  0.00  0.00    +0.000 C 
ATOM      7  C   UNL     1       2.111   1.746  19.617  0.00  0.00    +0.000 C 
ATOM      8  C   UNL     1       1.547   2.618  20.741  0.00  0.00    +0.000 C 
ATOM      9  C   UNL     1       0.767   3.834  20.241  0.00  0.00    +0.000 C 
ATOM     10  C   UNL     1       1.311   4.410  18.940  0.00  0.00    +0.000 C 
ATOM     11  N   UNL     1       2.758   4.616  19.093  0.00  0.00    +0.000 NA
ATOM     12  C   UNL     1       3.074   6.029  18.946  0.00  0.00    +0.000 C 
ENDBRANCH   3   5
BRANCH   1  13
ATOM     13  C   UNL     1       7.070   4.471  16.784  0.00  0.00    +0.000 C 
BRANCH  13  18
ATOM     14  C   UNL     1       8.065   9.284  17.640  0.00  0.00    +0.000 C 
ATOM     15  C   UNL     1       7.962   7.823  17.861  0.00  0.00    +0.000 A 
ATOM     16  C   UNL     1       8.228   7.119  19.016  0.00  0.00    +0.000 A 
ATOM     17  N   UNL     1       7.927   5.821  18.713  0.00  0.00    +0.000 N 
ATOM     18  C   UNL     1       7.532   5.761  17.398  0.00  0.00    +0.000 A 
ATOM     19  N   UNL     1       7.539   6.972  16.866  0.00  0.00    +0.000 NA
ATOM     20  H   UNL     1       7.985   5.013  19.324  0.00  0.00    +0.000 HD
ENDBRANCH  13  18
ENDBRANCH   1  13
TORSDOF 3
ENDMDL
MODEL 6
REMARK VINA RESULT:      -6.6      0.579      1.055
REMARK  Name = 
REMARK  6 active torsions:
REMARK  status: ('A' for Active; 'I' for Inactive)
REMARK    1  A    between atoms: C_1  and  C_2
REMARK    2  A    between atoms: C_5  and  C_6
REMARK    3  A    between atoms: C_6  and  N_7
REMARK    4  A    between atoms: N_7  and  C_8
REMARK    5  A    between atoms: C_9  and  C_11
REMARK    6  A    between atoms: N_17  and  C_18
REMARK                            x       y       z     vdW  Elec       q    Type
REMARK                         _______ _______ _______ _____ _____    ______ ____
ROOT
ATOM      1  N   UNL     1       5.953   5.402  17.837  0.00  0.00    +0.000 N 
ATOM      2  C   UNL     1       6.892   4.579  18.579  0.00  0.00    +0.000 C 
ATOM      3  C   UNL     1       4.566   5.441  18.021  0.00  0.00    +0.000 C 
ATOM      4  O   UNL     1       3.886   6.052  17.187  0.00  0.00    +0.000 OA
ENDROOT
BRANCH   3   5
ATOM      5  C   UNL     1       3.910   4.749  19.287  0.00  0.00    +0.000 C 
ATOM      6  C   UNL     1       2.835   5.739  19.832  0.00  0.00    +0.000 C 
ATOM      7  C   UNL     1       1.830   5.259  20.897  0.00  0.00    +0.000 C 
ATOM      8  C   UNL     1       0.869   4.178  20.400  0.00  0.00    +0.000 C 
ATOM      9  C   UNL     1       1.441   2.763  20.482  0.00  0.00    +0.000 C 
ATOM     10  C   UNL     1       2.946   2.704  20.251  0.00  0.00    +0.000 C 
ATOM     11  N   UNL     1       3.254   3.431  19.011  0.00  0.00    +0.000 NA
ATOM     12  C   UNL     1       3.851   2.523  18.043  0.00  0.00    +0.000 C 
ENDBRANCH   3   5
BRANCH   1  13
ATOM     13  C   UNL     1       6.538   6.149  16.706  0.00  0.00    +0.000 C 
BRANCH  13  18
ATOM     14  C   UNL     1       7.501   4.319  12.166  0.00  0.00    +0.000 C 
ATOM     15  C   UNL     1       6.828   4.527  13.469  0.00  0.00    +0.000 A 
ATOM     16  C   UNL     1       5.765   3.825  13.998  0.00  0.00    +0.000 A 
ATOM     17  N   UNL     1       5.565   4.370  15.234  0.00  0.00    +0.000 N 
ATOM     18  C   UNL     1       6.464   5.394  15.410  0.00  0.00    +0.000 A 
ATOM     19  N   UNL     1       7.248   5.498  14.350  0.00  0.00    +0.000 NA
ATOM     20  H   UNL     1       4.873   4.099  15.926  0.00  0.00    +0.000 HD
ENDBRANCH  13  18
ENDBRANCH   1  13
TORSDOF 3
ENDMDL
MODEL 7
REMARK VINA RESULT:      -6.5      1.316      2.161
REMARK  Name = 
REMARK  6 active torsions:
REMARK  status: ('A' for Active; 'I' for Inactive)
REMARK    1  A    between atoms: C_1  and  C_2
REMARK    2  A    between atoms: C_5  and  C_6
REMARK    3  A    between atoms: C_6  and  N_7
REMARK    4  A    between atoms: N_7  and  C_8
REMARK    5  A    between atoms: C_9  and  C_11
REMARK    6  A    between atoms: N_17  and  C_18
REMARK                            x       y       z     vdW  Elec       q    Type
REMARK                         _______ _______ _______ _____ _____    ______ ____
ROOT
ATOM      1  N   UNL     1       5.320   5.320  16.733  0.00  0.00    +0.000 N 
ATOM      2  C   UNL     1       4.668   6.582  16.424  0.00  0.00    +0.000 C 
ATOM      3  C   UNL     1       4.786   4.286  17.509  0.00  0.00    +0.000 C 
ATOM      4  O   UNL     1       5.538   3.357  17.833  0.00  0.00    +0.000 OA
ENDROOT
BRANCH   3   5
ATOM      5  C   UNL     1       3.255   4.303  17.918  0.00  0.00    +0.000 C 
ATOM      6  C   UNL     1       2.738   2.838  17.780  0.00  0.00    +0.000 C 
ATOM      7  C   UNL     1       1.360   2.461  18.356  0.00  0.00    +0.000 C 
ATOM      8  C   UNL     1       1.279   2.556  19.882  0.00  0.00    +0.000 C 
ATOM      9  C   UNL     1       0.969   3.962  20.393  0.00  0.00    +0.000 C 
ATOM     10  C   UNL     1       1.558   5.067  19.525  0.00  0.00    +0.000 C 
ATOM     11  N   UNL     1       2.984   4.779  19.313  0.00  0.00    +0.000 NA
ATOM     12  C   UNL     1       3.792   5.853  19.872  0.00  0.00    +0.000 C 
ENDBRANCH   3   5
BRANCH   1  13
ATOM     13  C   UNL     1       6.721   5.217  16.281  0.00  0.00    +0.000 C 
BRANCH  13  18
ATOM     14  C   UNL     1       6.012   2.958  11.890  0.00  0.00    +0.000 C 
ATOM     15  C   UNL     1       6.576   3.871  12.911  0.00  0.00    +0.000 A 
ATOM     16  C   UNL     1       7.509   4.870  12.733  0.00  0.00    +0.000 A 
ATOM     17  N   UNL     1       7.645   5.447  13.964  0.00  0.00    +0.000 N 
ATOM     18  C   UNL     1       6.841   4.774  14.852  0.00  0.00    +0.000 A 
ATOM     19  N   UNL     1       6.175   3.817  14.226  0.00  0.00    +0.000 NA
ATOM     20  H   UNL     1       8.239   6.230  14.219  0.00  0.00    +0.000 HD
ENDBRANCH  13  18
ENDBRANCH   1  13
TORSDOF 3
ENDMDL
MODEL 8
REMARK VINA RESULT:      -6.3      2.039      3.576
REMARK  Name = 
REMARK  6 active torsions:
REMARK  status: ('A' for Active; 'I' for Inactive)
REMARK    1  A    between atoms: C_1  and  C_2
REMARK    2  A    between atoms: C_5  and  C_6
REMARK    3  A    between atoms: C_6  and  N_7
REMARK    4  A    between atoms: N_7  and  C_8
REMARK    5  A    between atoms: C_9  and  C_11
REMARK    6  A    between atoms: N_17  and  C_18
REMARK                            x       y       z     vdW  Elec       q    Type
REMARK                         _______ _______ _______ _____ _____    ______ ____
ROOT
ATOM      1  N   UNL     1       5.186   4.806  16.526  0.00  0.00    +0.000 N 
ATOM      2  C   UNL     1       5.646   3.571  15.916  0.00  0.00    +0.000 C 
ATOM      3  C   UNL     1       4.167   4.927  17.478  0.00  0.00    +0.000 C 
ATOM      4  O   UNL     1       3.768   6.064  17.760  0.00  0.00    +0.000 OA
ENDROOT
BRANCH   3   5
ATOM      5  C   UNL     1       3.582   3.636  18.187  0.00  0.00    +0.000 C 
ATOM      6  C   UNL     1       4.398   3.439  19.502  0.00  0.00    +0.000 C 
ATOM      7  C   UNL     1       3.908   2.430  20.557  0.00  0.00    +0.000 C 
ATOM      8  C   UNL     1       2.575   2.810  21.207  0.00  0.00    +0.000 C 
ATOM      9  C   UNL     1       1.353   2.371  20.400  0.00  0.00    +0.000 C 
ATOM     10  C   UNL     1       1.578   2.400  18.894  0.00  0.00    +0.000 C 
ATOM     11  N   UNL     1       2.126   3.715  18.532  0.00  0.00    +0.000 NA
ATOM     12  C   UNL     1       1.214   4.398  17.627  0.00  0.00    +0.000 C 
ENDBRANCH   3   5
BRANCH   1  13
ATOM     13  C   UNL     1       5.781   6.036  15.966  0.00  0.00    +0.000 C 
BRANCH  13  18
ATOM     14  C   UNL     1       8.615   9.343  18.397  0.00  0.00    +0.000 C 
ATOM     15  C   UNL     1       7.996   8.052  18.019  0.00  0.00    +0.000 A 
ATOM     16  C   UNL     1       8.115   6.835  18.657  0.00  0.00    +0.000 A 
ATOM     17  N   UNL     1       7.311   5.988  17.948  0.00  0.00    +0.000 N 
ATOM     18  C   UNL     1       6.766   6.682  16.895  0.00  0.00    +0.000 A 
ATOM     19  N   UNL     1       7.165   7.943  16.928  0.00  0.00    +0.000 NA
ATOM     20  H   UNL     1       7.134   5.005  18.130  0.00  0.00    +0.000 HD
ENDBRANCH  13  18
ENDBRANCH   1  13
TORSDOF 3
ENDMDL
MODEL 9
REMARK VINA RESULT:      -6.2      1.346      1.803
REMARK  Name = 
REMARK  6 active torsions:
REMARK  status: ('A' for Active; 'I' for Inactive)
REMARK    1  A    between atoms: C_1  and  C_2
REMARK    2  A    between atoms: C_5  and  C_6
REMARK    3  A    between atoms: C_6  and  N_7
REMARK    4  A    between atoms: N_7  and  C_8
REMARK    5  A    between atoms: C_9  and  C_11
REMARK    6  A    between atoms: N_17  and  C_18
REMARK                            x       y       z     vdW  Elec       q    Type
REMARK                         _______ _______ _______ _____ _____    ______ ____
ROOT
ATOM      1  N   UNL     1       4.919   5.408  17.937  0.00  0.00    +0.000 N 
ATOM      2  C   UNL     1       3.625   5.997  17.638  0.00  0.00    +0.000 C 
ATOM      3  C   UNL     1       5.181   4.450  18.923  0.00  0.00    +0.000 C 
ATOM      4  O   UNL     1       6.363   4.187  19.178  0.00  0.00    +0.000 OA
ENDROOT
BRANCH   3   5
ATOM      5  C   UNL     1       3.984   3.709  19.653  0.00  0.00    +0.000 C 
ATOM      6  C   UNL     1       3.147   4.811  20.372  0.00  0.00    +0.000 C 
ATOM      7  C   UNL     1       1.764   4.458  20.952  0.00  0.00    +0.000 C 
ATOM      8  C   UNL     1       0.726   4.082  19.893  0.00  0.00    +0.000 C 
ATOM      9  C   UNL     1       0.785   2.614  19.471  0.00  0.00    +0.000 C 
ATOM     10  C   UNL     1       2.193   2.033  19.494  0.00  0.00    +0.000 C 
ATOM     11  N   UNL     1       3.079   2.935  18.743  0.00  0.00    +0.000 NA
ATOM     12  C   UNL     1       3.644   2.233  17.600  0.00  0.00    +0.000 C 
ENDBRANCH   3   5
BRANCH   1  13
ATOM     13  C   UNL     1       6.057   5.998  17.204  0.00  0.00    +0.000 C 
BRANCH  13  18
ATOM     14  C   UNL     1       7.804   4.856  12.674  0.00  0.00    +0.000 C 
ATOM     15  C   UNL     1       6.973   4.806  13.898  0.00  0.00    +0.000 A 
ATOM     16  C   UNL     1       6.007   3.880  14.231  0.00  0.00    +0.000 A 
ATOM     17  N   UNL     1       5.583   4.247  15.477  0.00  0.00    +0.000 N 
ATOM     18  C   UNL     1       6.257   5.385  15.849  0.00  0.00    +0.000 A 
ATOM     19  N   UNL     1       7.115   5.734  14.904  0.00  0.00    +0.000 NA
ATOM     20  H   UNL     1       4.884   3.789  16.053  0.00  0.00    +0.000 HD
ENDBRANCH  13  18
ENDBRANCH   1  13
TORSDOF 3
ENDMDL
