MODEL 1
REMARK VINA RESULT:      -6.6      0.000      0.000
REMARK  Name = 
REMARK  7 active torsions:
REMARK  status: ('A' for Active; 'I' for Inactive)
REMARK    1  A    between atoms: C_1  and  C_2
REMARK    2  A    between atoms: C_2  and  C_3
REMARK    3  A    between atoms: C_2  and  N_4
REMARK    4  A    between atoms: C_8  and  C_9
REMARK    5  A    between atoms: C_9  and  N_10
REMARK    6  A    between atoms: N_16  and  C_17
REMARK    7  A    between atoms: N_16  and  C_18
REMARK                            x       y       z     vdW  Elec       q    Type
REMARK                         _______ _______ _______ _____ _____    ______ ____
ROOT
ATOM      1  N   UNL     1       3.623   4.260  18.684  0.00  0.00    +0.000 NA
ATOM      2  C   UNL     1       3.007   4.323  19.998  0.00  0.00    +0.000 C 
ATOM      3  C   UNL     1       2.510   5.703  20.496  0.00  0.00    +0.000 C 
ATOM      4  N   UNL     1       2.178   6.746  19.507  0.00  0.00    +0.000 N 
ATOM      5  C   UNL     1       1.664   7.916  20.068  0.00  0.00    +0.000 C 
ATOM      6  O   UNL     1       1.332   7.907  21.262  0.00  0.00    +0.000 OA
ATOM      7  N   UNL     1       1.501   9.084  19.334  0.00  0.00    +0.000 N 
ATOM      8  C   UNL     1       1.849   9.376  17.952  0.00  0.00    +0.000 C 
ATOM      9  C   UNL     1       0.732  10.157  19.963  0.00  0.00    +0.000 C 
ATOM     10  C   UNL     1       2.731   6.583  18.166  0.00  0.00    +0.000 C 
ATOM     11  C   UNL     1       3.048   5.152  17.699  0.00  0.00    +0.000 C 
ENDROOT
BRANCH   1  12
ATOM     12  C   UNL     1       5.004   3.806  18.546  0.00  0.00    +0.000 C 
BRANCH  12  17
ATOM     13  N   UNL     1       6.514   5.406  17.184  0.00  0.00    +0.000 N 
ATOM     14  C   UNL     1       6.927   5.448  15.877  0.00  0.00    +0.000 A 
ATOM     15  N   UNL     1       6.495   4.437  15.176  0.00  0.00    +0.000 NA
ATOM     16  C   UNL     1       5.756   3.710  16.055  0.00  0.00    +0.000 A 
ATOM     17  C   UNL     1       5.712   4.278  17.317  0.00  0.00    +0.000 A 
BRANCH  13  19
ATOM     18  C   UNL     1       7.921   5.778  19.256  0.00  0.00    +0.000 C 
ATOM     19  C   UNL     1       7.034   6.362  18.156  0.00  0.00    +0.000 C 
ATOM     20  C   UNL     1       7.611   7.606  17.489  0.00  0.00    +0.000 C 
ENDBRANCH  13  19
ENDBRANCH  12  17
ENDBRANCH   1  12
TORSDOF 3
ENDMDL
MODEL 2
REMARK VINA RESULT:      -6.6      2.580      4.640
REMARK  Name = 
REMARK  7 active torsions:
REMARK  status: ('A' for Active; 'I' for Inactive)
REMARK    1  A    between atoms: C_1  and  C_2
REMARK    2  A    between atoms: C_2  and  C_3
REMARK    3  A    between atoms: C_2  and  N_4
REMARK    4  A    between atoms: C_8  and  C_9
REMARK    5  A    between atoms: C_9  and  N_10
REMARK    6  A    between atoms: N_16  and  C_17
REMARK    7  A    between atoms: N_16  and  C_18
REMARK                            x       y       z     vdW  Elec       q    Type
REMARK                         _______ _______ _______ _____ _____    ______ ____
ROOT
ATOM      1  N   UNL     1       2.748   6.984  18.601  0.00  0.00    +0.000 NA
ATOM      2  C   UNL     1       2.562   8.151  17.756  0.00  0.00    +0.000 C 
ATOM      3  C   UNL     1       1.500   9.192  18.186  0.00  0.00    +0.000 C 
ATOM      4  N   UNL     1       1.115   9.279  19.609  0.00  0.00    +0.000 N 
ATOM      5  C   UNL     1       0.214  10.306  19.890  0.00  0.00    +0.000 C 
ATOM      6  O   UNL     1      -0.007  11.159  19.019  0.00  0.00    +0.000 OA
ATOM      7  N   UNL     1      -0.435  10.412  21.114  0.00  0.00    +0.000 N 
ATOM      8  C   UNL     1      -0.394   9.534  22.273  0.00  0.00    +0.000 C 
ATOM      9  C   UNL     1      -1.159  11.656  21.371  0.00  0.00    +0.000 C 
ATOM     10  C   UNL     1       1.421   8.123  20.447  0.00  0.00    +0.000 C 
ATOM     11  C   UNL     1       2.600   7.231  20.020  0.00  0.00    +0.000 C 
ENDROOT
BRANCH   1  12
ATOM     12  C   UNL     1       2.518   5.647  18.061  0.00  0.00    +0.000 C 
BRANCH  12  17
ATOM     13  N   UNL     1       2.787   3.571  19.582  0.00  0.00    +0.000 N 
ATOM     14  C   UNL     1       3.853   2.797  19.961  0.00  0.00    +0.000 A 
ATOM     15  N   UNL     1       4.973   3.167  19.403  0.00  0.00    +0.000 NA
ATOM     16  C   UNL     1       4.629   4.235  18.636  0.00  0.00    +0.000 A 
ATOM     17  C   UNL     1       3.282   4.548  18.726  0.00  0.00    +0.000 A 
BRANCH  13  19
ATOM     18  C   UNL     1       0.654   2.348  18.973  0.00  0.00    +0.000 C 
ATOM     19  C   UNL     1       1.429   3.205  19.975  0.00  0.00    +0.000 C 
ATOM     20  C   UNL     1       1.363   2.695  21.410  0.00  0.00    +0.000 C 
ENDBRANCH  13  19
ENDBRANCH  12  17
ENDBRANCH   1  12
TORSDOF 3
ENDMDL
MODEL 3
REMARK VINA RESULT:      -6.5      0.903      2.073
REMARK  Name = 
REMARK  7 active torsions:
REMARK  status: ('A' for Active; 'I' for Inactive)
REMARK    1  A    between atoms: C_1  and  C_2
REMARK    2  A    between atoms: C_2  and  C_3
REMARK    3  A    between atoms: C_2  and  N_4
REMARK    4  A    between atoms: C_8  and  C_9
REMARK    5  A    between atoms: C_9  and  N_10
REMARK    6  A    between atoms: N_16  and  C_17
REMARK    7  A    between atoms: N_16  and  C_18
REMARK                            x       y       z     vdW  Elec       q    Type
REMARK                         _______ _______ _______ _____ _____    ______ ____
ROOT
ATOM      1  N   UNL     1       3.416   4.122  18.799  0.00  0.00    +0.000 NA
ATOM      2  C   UNL     1       2.893   4.282  20.145  0.00  0.00    +0.000 C 
ATOM      3  C   UNL     1       2.478   5.705  20.594  0.00  0.00    +0.000 C 
ATOM      4  N   UNL     1       2.115   6.703  19.569  0.00  0.00    +0.000 N 
ATOM      5  C   UNL     1       1.679   7.921  20.094  0.00  0.00    +0.000 C 
ATOM      6  O   UNL     1       1.429   7.990  21.305  0.00  0.00    +0.000 OA
ATOM      7  N   UNL     1       1.507   9.051  19.305  0.00  0.00    +0.000 N 
ATOM      8  C   UNL     1       1.770   9.252  17.889  0.00  0.00    +0.000 C 
ATOM      9  C   UNL     1       0.818  10.185  19.920  0.00  0.00    +0.000 C 
ATOM     10  C   UNL     1       2.570   6.445  18.206  0.00  0.00    +0.000 C 
ATOM     11  C   UNL     1       2.807   4.979  17.804  0.00  0.00    +0.000 C 
ENDROOT
BRANCH   1  12
ATOM     12  C   UNL     1       4.769   3.611  18.597  0.00  0.00    +0.000 C 
BRANCH  12  17
ATOM     13  N   UNL     1       6.277   5.236  17.264  0.00  0.00    +0.000 N 
ATOM     14  C   UNL     1       7.272   6.115  17.608  0.00  0.00    +0.000 A 
ATOM     15  N   UNL     1       7.478   6.170  18.895  0.00  0.00    +0.000 NA
ATOM     16  C   UNL     1       6.590   5.282  19.415  0.00  0.00    +0.000 A 
ATOM     17  C   UNL     1       5.831   4.652  18.444  0.00  0.00    +0.000 A 
BRANCH  13  19
ATOM     18  C   UNL     1       5.177   6.444  15.329  0.00  0.00    +0.000 C 
ATOM     19  C   UNL     1       5.797   5.163  15.888  0.00  0.00    +0.000 C 
ATOM     20  C   UNL     1       6.813   4.508  14.958  0.00  0.00    +0.000 C 
ENDBRANCH  13  19
ENDBRANCH  12  17
ENDBRANCH   1  12
TORSDOF 3
ENDMDL
MODEL 4
REMARK VINA RESULT:      -6.5      3.214      6.617
REMARK  Name = 
REMARK  7 active torsions:
REMARK  status: ('A' for Active; 'I' for Inactive)
REMARK    1  A    between atoms: C_1  and  C_2
REMARK    2  A    between atoms: C_2  and  C_3
REMARK    3  A    between atoms: C_2  and  N_4
REMARK    4  A    between atoms: C_8  and  C_9
REMARK    5  A    between atoms: C_9  and  N_10
REMARK    6  A    between atoms: N_16  and  C_17
REMARK    7  A    between atoms: N_16  and  C_18
REMARK                            x       y       z     vdW  Elec       q    Type
REMARK                         _______ _______ _______ _____ _____    ______ ____
ROOT
ATOM      1  N   UNL     1       4.983   5.798  18.136  0.00  0.00    +0.000 NA
ATOM      2  C   UNL     1       6.240   6.444  17.800  0.00  0.00    +0.000 C 
ATOM      3  C   UNL     1       6.983   5.962  16.531  0.00  0.00    +0.000 C 
ATOM      4  N   UNL     1       6.215   5.304  15.455  0.00  0.00    +0.000 N 
ATOM      5  C   UNL     1       6.976   4.988  14.328  0.00  0.00    +0.000 C 
ATOM      6  O   UNL     1       8.117   5.459  14.230  0.00  0.00    +0.000 OA
ATOM      7  N   UNL     1       6.493   4.175  13.310  0.00  0.00    +0.000 N 
ATOM      8  C   UNL     1       5.228   3.467  13.200  0.00  0.00    +0.000 C 
ATOM      9  C   UNL     1       7.284   4.119  12.082  0.00  0.00    +0.000 C 
ATOM     10  C   UNL     1       4.907   4.765  15.814  0.00  0.00    +0.000 C 
ATOM     11  C   UNL     1       4.172   5.416  16.998  0.00  0.00    +0.000 C 
ENDROOT
BRANCH   1  12
ATOM     12  C   UNL     1       4.840   5.093  19.407  0.00  0.00    +0.000 C 
BRANCH  12  17
ATOM     13  N   UNL     1       2.813   3.523  19.755  0.00  0.00    +0.000 N 
ATOM     14  C   UNL     1       1.526   3.708  20.191  0.00  0.00    +0.000 A 
ATOM     15  N   UNL     1       1.281   4.940  20.543  0.00  0.00    +0.000 NA
ATOM     16  C   UNL     1       2.451   5.593  20.316  0.00  0.00    +0.000 A 
ATOM     17  C   UNL     1       3.436   4.765  19.802  0.00  0.00    +0.000 A 
BRANCH  13  19
ATOM     18  C   UNL     1       3.437   1.809  17.999  0.00  0.00    +0.000 C 
ATOM     19  C   UNL     1       3.315   2.182  19.477  0.00  0.00    +0.000 C 
ATOM     20  C   UNL     1       4.551   1.847  20.305  0.00  0.00    +0.000 C 
ENDBRANCH  13  19
ENDBRANCH  12  17
ENDBRANCH   1  12
TORSDOF 3
ENDMDL
MODEL 5
REMARK VINA RESULT:      -6.3      3.455      6.598
REMARK  Name = 
REMARK  7 active torsions:
REMARK  status: ('A' for Active; 'I' for Inactive)
REMARK    1  A    between atoms: C_1  and  C_2
REMARK    2  A    between atoms: C_2  and  C_3
REMARK    3  A    between atoms: C_2  and  N_4
REMARK    4  A    between atoms: C_8  and  C_9
REMARK    5  A    between atoms: C_9  and  N_10
REMARK    6  A    between atoms: N_16  and  C_17
REMARK    7  A    between atoms: N_16  and  C_18
REMARK                            x       y       z     vdW  Elec       q    Type
REMARK                         _______ _______ _______ _____ _____    ______ ____
ROOT
ATOM      1  N   UNL     1       5.083   5.371  18.117  0.00  0.00    +0.000 NA
ATOM      2  C   UNL     1       6.333   6.056  17.836  0.00  0.00    +0.000 C 
ATOM      3  C   UNL     1       7.064   5.710  16.516  0.00  0.00    +0.000 C 
ATOM      4  N   UNL     1       6.287   5.164  15.386  0.00  0.00    +0.000 N 
ATOM      5  C   UNL     1       7.035   4.969  14.224  0.00  0.00    +0.000 C 
ATOM      6  O   UNL     1       8.174   5.454  14.163  0.00  0.00    +0.000 OA
ATOM      7  N   UNL     1       6.545   4.263  13.133  0.00  0.00    +0.000 N 
ATOM      8  C   UNL     1       5.281   3.563  12.964  0.00  0.00    +0.000 C 
ATOM      9  C   UNL     1       7.321   4.338  11.897  0.00  0.00    +0.000 C 
ATOM     10  C   UNL     1       4.985   4.583  15.701  0.00  0.00    +0.000 C 
ATOM     11  C   UNL     1       4.261   5.105  16.955  0.00  0.00    +0.000 C 
ENDROOT
BRANCH   1  12
ATOM     12  C   UNL     1       4.957   4.539  19.310  0.00  0.00    +0.000 C 
BRANCH  12  17
ATOM     13  N   UNL     1       2.936   3.062  19.966  0.00  0.00    +0.000 N 
ATOM     14  C   UNL     1       2.419   1.885  19.490  0.00  0.00    +0.000 A 
ATOM     15  N   UNL     1       3.067   1.429  18.454  0.00  0.00    +0.000 NA
ATOM     16  C   UNL     1       4.057   2.337  18.250  0.00  0.00    +0.000 A 
ATOM     17  C   UNL     1       4.040   3.365  19.178  0.00  0.00    +0.000 A 
BRANCH  13  19
ATOM     18  C   UNL     1       1.435   5.017  20.551  0.00  0.00    +0.000 C 
ATOM     19  C   UNL     1       2.245   3.805  21.015  0.00  0.00    +0.000 C 
ATOM     20  C   UNL     1       1.492   2.885  21.971  0.00  0.00    +0.000 C 
ENDBRANCH  13  19
ENDBRANCH  12  17
ENDBRANCH   1  12
TORSDOF 3
ENDMDL
MODEL 6
REMARK VINA RESULT:      -6.3      2.564      4.544
REMARK  Name = 
REMARK  7 active torsions:
REMARK  status: ('A' for Active; 'I' for Inactive)
REMARK    1  A    between atoms: C_1  and  C_2
REMARK    2  A    between atoms: C_2  and  C_3
REMARK    3  A    between atoms: C_2  and  N_4
REMARK    4  A    between atoms: C_8  and  C_9
REMARK    5  A    between atoms: C_9  and  N_10
REMARK    6  A    between atoms: N_16  and  C_17
REMARK    7  A    between atoms: N_16  and  C_18
REMARK                            x       y       z     vdW  Elec       q    Type
REMARK                         _______ _______ _______ _____ _____    ______ ____
ROOT
ATOM      1  N   UNL     1       5.792   4.747  16.422  0.00  0.00    +0.000 NA
ATOM      2  C   UNL     1       5.485   6.155  16.240  0.00  0.00    +0.000 C 
ATOM      3  C   UNL     1       4.302   6.746  17.046  0.00  0.00    +0.000 C 
ATOM      4  N   UNL     1       3.888   6.087  18.300  0.00  0.00    +0.000 N 
ATOM      5  C   UNL     1       2.869   6.755  18.981  0.00  0.00    +0.000 C 
ATOM      6  O   UNL     1       2.565   7.900  18.620  0.00  0.00    +0.000 OA
ATOM      7  N   UNL     1       2.194   6.185  20.053  0.00  0.00    +0.000 N 
ATOM      8  C   UNL     1       2.319   4.860  20.639  0.00  0.00    +0.000 C 
ATOM      9  C   UNL     1       1.326   7.069  20.830  0.00  0.00    +0.000 C 
ATOM     10  C   UNL     1       4.314   4.704  18.490  0.00  0.00    +0.000 C 
ATOM     11  C   UNL     1       5.595   4.250  17.768  0.00  0.00    +0.000 C 
ENDROOT
BRANCH   1  12
ATOM     12  C   UNL     1       5.728   3.831  15.287  0.00  0.00    +0.000 C 
BRANCH  12  17
ATOM     13  N   UNL     1       6.380   3.753  12.784  0.00  0.00    +0.000 N 
ATOM     14  C   UNL     1       7.285   4.435  12.011  0.00  0.00    +0.000 A 
ATOM     15  N   UNL     1       7.933   5.350  12.677  0.00  0.00    +0.000 NA
ATOM     16  C   UNL     1       7.442   5.256  13.941  0.00  0.00    +0.000 A 
ATOM     17  C   UNL     1       6.488   4.261  14.073  0.00  0.00    +0.000 A 
BRANCH  13  19
ATOM     18  C   UNL     1       4.268   3.426  11.425  0.00  0.00    +0.000 C 
ATOM     19  C   UNL     1       5.449   2.808  12.175  0.00  0.00    +0.000 C 
ATOM     20  C   UNL     1       6.168   1.708  11.402  0.00  0.00    +0.000 C 
ENDBRANCH  13  19
ENDBRANCH  12  17
ENDBRANCH   1  12
TORSDOF 3
ENDMDL
MODEL 7
REMARK VINA RESULT:      -6.3      2.852      6.575
REMARK  Name = 
REMARK  7 active torsions:
REMARK  status: ('A' for Active; 'I' for Inactive)
REMARK    1  A    between atoms: C_1  and  C_2
REMARK    2  A    between atoms: C_2  and  C_3
REMARK    3  A    between atoms: C_2  and  N_4
REMARK    4  A    between atoms: C_8  and  C_9
REMARK    5  A    between atoms: C_9  and  N_10
REMARK    6  A    between atoms: N_16  and  C_17
REMARK    7  A    between atoms: N_16  and  C_18
REMARK                            x       y       z     vdW  Elec       q    Type
REMARK                         _______ _______ _______ _____ _____    ______ ____
ROOT
ATOM      1  N   UNL     1       4.981   5.608  18.068  0.00  0.00    +0.000 NA
ATOM      2  C   UNL     1       6.224   6.293  17.761  0.00  0.00    +0.000 C 
ATOM      3  C   UNL     1       6.986   5.866  16.483  0.00  0.00    +0.000 C 
ATOM      4  N   UNL     1       6.240   5.225  15.382  0.00  0.00    +0.000 N 
ATOM      5  C   UNL     1       7.014   4.961  14.251  0.00  0.00    +0.000 C 
ATOM      6  O   UNL     1       8.145   5.460  14.175  0.00  0.00    +0.000 OA
ATOM      7  N   UNL     1       6.557   4.168  13.206  0.00  0.00    +0.000 N 
ATOM      8  C   UNL     1       5.309   3.435  13.066  0.00  0.00    +0.000 C 
ATOM      9  C   UNL     1       7.355   4.167  11.981  0.00  0.00    +0.000 C 
ATOM     10  C   UNL     1       4.943   4.645  15.716  0.00  0.00    +0.000 C 
ATOM     11  C   UNL     1       4.186   5.243  16.914  0.00  0.00    +0.000 C 
ENDROOT
BRANCH   1  12
ATOM     12  C   UNL     1       4.847   4.862  19.317  0.00  0.00    +0.000 C 
BRANCH  12  17
ATOM     13  N   UNL     1       2.460   5.544  20.048  0.00  0.00    +0.000 N 
ATOM     14  C   UNL     1       1.344   4.848  20.434  0.00  0.00    +0.000 A 
ATOM     15  N   UNL     1       1.511   3.555  20.387  0.00  0.00    +0.000 NA
ATOM     16  C   UNL     1       2.793   3.398  19.964  0.00  0.00    +0.000 A 
ATOM     17  C   UNL     1       3.442   4.604  19.760  0.00  0.00    +0.000 A 
BRANCH  13  19
ATOM     18  C   UNL     1       2.196   7.491  18.449  0.00  0.00    +0.000 C 
ATOM     19  C   UNL     1       2.408   6.993  19.880  0.00  0.00    +0.000 C 
ATOM     20  C   UNL     1       1.501   7.660  20.909  0.00  0.00    +0.000 C 
ENDBRANCH  13  19
ENDBRANCH  12  17
ENDBRANCH   1  12
TORSDOF 3
ENDMDL
MODEL 8
REMARK VINA RESULT:      -6.2      1.174      1.625
REMARK  Name = 
REMARK  7 active torsions:
REMARK  status: ('A' for Active; 'I' for Inactive)
REMARK    1  A    between atoms: C_1  and  C_2
REMARK    2  A    between atoms: C_2  and  C_3
REMARK    3  A    between atoms: C_2  and  N_4
REMARK    4  A    between atoms: C_8  and  C_9
REMARK    5  A    between atoms: C_9  and  N_10
REMARK    6  A    between atoms: N_16  and  C_17
REMARK    7  A    between atoms: N_16  and  C_18
REMARK                            x       y       z     vdW  Elec       q    Type
REMARK                         _______ _______ _______ _____ _____    ______ ____
ROOT
ATOM      1  N   UNL     1       3.208   5.845  19.007  0.00  0.00    +0.000 NA
ATOM      2  C   UNL     1       2.302   5.706  20.134  0.00  0.00    +0.000 C 
ATOM      3  C   UNL     1       1.648   6.992  20.696  0.00  0.00    +0.000 C 
ATOM      4  N   UNL     1       1.511   8.171  19.818  0.00  0.00    +0.000 N 
ATOM      5  C   UNL     1       0.833   9.239  20.406  0.00  0.00    +0.000 C 
ATOM      6  O   UNL     1       0.234   9.048  21.474  0.00  0.00    +0.000 OA
ATOM      7  N   UNL     1       0.797  10.503  19.832  0.00  0.00    +0.000 N 
ATOM      8  C   UNL     1       1.443  11.002  18.628  0.00  0.00    +0.000 C 
ATOM      9  C   UNL     1      -0.141  11.464  20.411  0.00  0.00    +0.000 C 
ATOM     10  C   UNL     1       2.366   8.215  18.636  0.00  0.00    +0.000 C 
ATOM     11  C   UNL     1       2.842   6.872  18.055  0.00  0.00    +0.000 C 
ENDROOT
BRANCH   1  12
ATOM     12  C   UNL     1       4.602   5.426  19.134  0.00  0.00    +0.000 C 
BRANCH  12  17
ATOM     13  N   UNL     1       6.459   5.244  17.341  0.00  0.00    +0.000 N 
ATOM     14  C   UNL     1       6.601   4.523  16.183  0.00  0.00    +0.000 A 
ATOM     15  N   UNL     1       5.594   3.726  15.955  0.00  0.00    +0.000 NA
ATOM     16  C   UNL     1       4.751   3.942  17.000  0.00  0.00    +0.000 A 
ATOM     17  C   UNL     1       5.227   4.896  17.884  0.00  0.00    +0.000 A 
BRANCH  13  19
ATOM     18  C   UNL     1       7.459   7.561  17.551  0.00  0.00    +0.000 C 
ATOM     19  C   UNL     1       7.557   6.063  17.843  0.00  0.00    +0.000 C 
ATOM     20  C   UNL     1       7.905   5.736  19.292  0.00  0.00    +0.000 C 
ENDBRANCH  13  19
ENDBRANCH  12  17
ENDBRANCH   1  12
TORSDOF 3
ENDMDL
MODEL 9
REMARK VINA RESULT:      -6.1      2.054      3.892
REMARK  Name = 
REMARK  7 active torsions:
REMARK  status: ('A' for Active; 'I' for Inactive)
REMARK    1  A    between atoms: C_1  and  C_2
REMARK    2  A    between atoms: C_2  and  C_3
REMARK    3  A    between atoms: C_2  and  N_4
REMARK    4  A    between atoms: C_8  and  C_9
REMARK    5  A    between atoms: C_9  and  N_10
REMARK    6  A    between atoms: N_16  and  C_17
REMARK    7  A    between atoms: N_16  and  C_18
REMARK                            x       y       z     vdW  Elec       q    Type
REMARK                         _______ _______ _______ _____ _____    ______ ____
ROOT
ATOM      1  N   UNL     1       2.520   6.721  18.662  0.00  0.00    +0.000 NA
ATOM      2  C   UNL     1       2.503   7.982  17.941  0.00  0.00    +0.000 C 
ATOM      3  C   UNL     1       1.607   9.117  18.493  0.00  0.00    +0.000 C 
ATOM      4  N   UNL     1       1.246   9.115  19.924  0.00  0.00    +0.000 N 
ATOM      5  C   UNL     1       0.506  10.229  20.323  0.00  0.00    +0.000 C 
ATOM      6  O   UNL     1       0.409  11.188  19.545  0.00  0.00    +0.000 OA
ATOM      7  N   UNL     1      -0.115  10.304  21.564  0.00  0.00    +0.000 N 
ATOM      8  C   UNL     1      -0.197   9.317  22.629  0.00  0.00    +0.000 C 
ATOM      9  C   UNL     1      -0.647  11.607  21.957  0.00  0.00    +0.000 C 
ATOM     10  C   UNL     1       1.383   7.848  20.637  0.00  0.00    +0.000 C 
ATOM     11  C   UNL     1       2.416   6.842  20.102  0.00  0.00    +0.000 C 
ENDROOT
BRANCH   1  12
ATOM     12  C   UNL     1       2.094   5.492  17.998  0.00  0.00    +0.000 C 
BRANCH  12  17
ATOM     13  N   UNL     1       3.817   3.676  18.651  0.00  0.00    +0.000 N 
ATOM     14  C   UNL     1       3.745   2.500  19.354  0.00  0.00    +0.000 A 
ATOM     15  N   UNL     1       2.553   2.265  19.829  0.00  0.00    +0.000 NA
ATOM     16  C   UNL     1       1.810   3.323  19.410  0.00  0.00    +0.000 A 
ATOM     17  C   UNL     1       2.539   4.224  18.651  0.00  0.00    +0.000 A 
BRANCH  13  19
ATOM     18  C   UNL     1       5.167   4.596  16.716  0.00  0.00    +0.000 C 
ATOM     19  C   UNL     1       5.104   4.184  18.187  0.00  0.00    +0.000 C 
ATOM     20  C   UNL     1       5.696   5.213  19.145  0.00  0.00    +0.000 C 
ENDBRANCH  13  19
ENDBRANCH  12  17
ENDBRANCH   1  12
TORSDOF 3
ENDMDL
