MODEL 1
REMARK VINA RESULT:      -9.0      0.000      0.000
REMARK  Name = 
REMARK  7 active torsions:
REMARK  status: ('A' for Active; 'I' for Inactive)
REMARK    1  A    between atoms: C_1  and  C_2
REMARK    2  A    between atoms: C_2  and  C_3
REMARK    3  A    between atoms: C_2  and  C_4
REMARK    4  A    between atoms: C_2  and  N_5
REMARK    5  A    between atoms: N_5  and  C_6
REMARK    6  A    between atoms: C_7  and  C_8
REMARK    7  A    between atoms: C_11  and  C_12
REMARK                            x       y       z     vdW  Elec       q    Type
REMARK                         _______ _______ _______ _____ _____    ______ ____
ROOT
ATOM      1  C   UNL     1       3.313   5.255  17.647  0.00  0.00    +0.000 A 
ATOM      2  C   UNL     1       3.535   6.597  18.027  0.00  0.00    +0.000 A 
ATOM      3  N   UNL     1       4.809   7.012  17.707  0.00  0.00    +0.000 NA
ATOM      4  C   UNL     1       5.322   6.007  17.043  0.00  0.00    +0.000 A 
ATOM      5  C   UNL     1       6.645   5.903  16.476  0.00  0.00    +0.000 A 
ATOM      6  N   UNL     1       7.031   4.865  15.779  0.00  0.00    +0.000 NA
ATOM      7  C   UNL     1       6.091   3.872  15.580  0.00  0.00    +0.000 A 
ATOM      8  C   UNL     1       4.838   3.916  16.067  0.00  0.00    +0.000 A 
ATOM      9  N   UNL     1       4.444   4.970  16.871  0.00  0.00    +0.000 N 
ENDROOT
BRANCH   2  10
ATOM     10  C   UNL     1       2.622   7.485  18.736  0.00  0.00    +0.000 A 
ATOM     11  C   UNL     1       2.276   7.216  20.066  0.00  0.00    +0.000 A 
ATOM     12  C   UNL     1       1.411   8.065  20.771  0.00  0.00    +0.000 A 
ATOM     13  C   UNL     1       0.875   9.223  20.180  0.00  0.00    +0.000 A 
ATOM     14  C   UNL     1       1.257   9.494  18.856  0.00  0.00    +0.000 A 
ATOM     15  C   UNL     1       2.123   8.649  18.150  0.00  0.00    +0.000 A 
BRANCH  13  16
ATOM     16  C   UNL     1      -0.041  10.123  20.921  0.00  0.00    +0.000 A 
ATOM     17  C   UNL     1      -0.750  11.149  20.264  0.00  0.00    +0.000 A 
ATOM     18  C   UNL     1      -1.592  12.018  20.965  0.00  0.00    +0.000 A 
ATOM     19  C   UNL     1      -1.750  11.863  22.334  0.00  0.00    +0.000 A 
ATOM     20  F   UNL     1      -2.552  12.697  23.006  0.00  0.00    +0.000 F 
ATOM     21  C   UNL     1      -1.085  10.854  23.013  0.00  0.00    +0.000 A 
ATOM     22  C   UNL     1      -0.233   9.994  22.312  0.00  0.00    +0.000 A 
ENDBRANCH  13  16
ENDBRANCH   2  10
BRANCH   1  23
ATOM     23  N   UNL     1       2.256   4.405  17.942  0.00  0.00    +0.000 N 
ATOM     24  H   UNL     1       1.353   4.864  17.829  0.00  0.00    +0.000 HD
BRANCH  23  26
ATOM     25  C   UNL     1       0.961   3.792  20.002  0.00  0.00    +0.000 C 
ATOM     26  C   UNL     1       2.175   3.488  19.113  0.00  0.00    +0.000 C 
ATOM     27  C   UNL     1       3.524   3.412  19.850  0.00  0.00    +0.000 C 
ATOM     28  C   UNL     1       1.969   2.037  18.593  0.00  0.00    +0.000 C 
ENDBRANCH  23  26
ENDBRANCH   1  23
TORSDOF 4
ENDMDL
MODEL 2
REMARK VINA RESULT:      -8.9      0.207      1.292
REMARK  Name = 
REMARK  7 active torsions:
REMARK  status: ('A' for Active; 'I' for Inactive)
REMARK    1  A    between atoms: C_1  and  C_2
REMARK    2  A    between atoms: C_2  and  C_3
REMARK    3  A    between atoms: C_2  and  C_4
REMARK    4  A    between atoms: C_2  and  N_5
REMARK    5  A    between atoms: N_5  and  C_6
REMARK    6  A    between atoms: C_7  and  C_8
REMARK    7  A    between atoms: C_11  and  C_12
REMARK                            x       y       z     vdW  Elec       q    Type
REMARK                         _______ _______ _______ _____ _____    ______ ____
ROOT
ATOM      1  C   UNL     1       3.372   5.214  17.569  0.00  0.00    +0.000 A 
ATOM      2  C   UNL     1       3.603   6.543  17.984  0.00  0.00    +0.000 A 
ATOM      3  N   UNL     1       4.884   6.954  17.686  0.00  0.00    +0.000 NA
ATOM      4  C   UNL     1       5.393   5.961  17.001  0.00  0.00    +0.000 A 
ATOM      5  C   UNL     1       6.720   5.858  16.442  0.00  0.00    +0.000 A 
ATOM      6  N   UNL     1       7.101   4.834  15.723  0.00  0.00    +0.000 NA
ATOM      7  C   UNL     1       6.153   3.856  15.491  0.00  0.00    +0.000 A 
ATOM      8  C   UNL     1       4.896   3.901  15.968  0.00  0.00    +0.000 A 
ATOM      9  N   UNL     1       4.506   4.937  16.796  0.00  0.00    +0.000 N 
ENDROOT
BRANCH   2  10
ATOM     10  C   UNL     1       2.693   7.422  18.708  0.00  0.00    +0.000 A 
ATOM     11  C   UNL     1       2.338   7.126  20.030  0.00  0.00    +0.000 A 
ATOM     12  C   UNL     1       1.476   7.966  20.749  0.00  0.00    +0.000 A 
ATOM     13  C   UNL     1       0.951   9.141  20.181  0.00  0.00    +0.000 A 
ATOM     14  C   UNL     1       1.341   9.439  18.866  0.00  0.00    +0.000 A 
ATOM     15  C   UNL     1       2.205   8.603  18.146  0.00  0.00    +0.000 A 
BRANCH  13  16
ATOM     16  C   UNL     1       0.038  10.031  20.937  0.00  0.00    +0.000 A 
ATOM     17  C   UNL     1      -0.177   9.857  22.320  0.00  0.00    +0.000 A 
ATOM     18  C   UNL     1      -1.059  10.676  23.030  0.00  0.00    +0.000 A 
ATOM     19  C   UNL     1      -1.728  11.696  22.370  0.00  0.00    +0.000 A 
ATOM     20  F   UNL     1      -2.576  12.479  23.048  0.00  0.00    +0.000 F 
ATOM     21  C   UNL     1      -1.530  11.912  21.015  0.00  0.00    +0.000 A 
ATOM     22  C   UNL     1      -0.656  11.082  20.304  0.00  0.00    +0.000 A 
ENDBRANCH  13  16
ENDBRANCH   2  10
BRANCH   1  23
ATOM     23  N   UNL     1       2.303   4.368  17.834  0.00  0.00    +0.000 N 
ATOM     24  H   UNL     1       1.417   4.868  17.864  0.00  0.00    +0.000 HD
BRANCH  23  26
ATOM     25  C   UNL     1       2.535   1.907  18.265  0.00  0.00    +0.000 C 
ATOM     26  C   UNL     1       2.276   3.296  18.867  0.00  0.00    +0.000 C 
ATOM     27  C   UNL     1       1.017   3.405  19.745  0.00  0.00    +0.000 C 
ATOM     28  C   UNL     1       3.436   3.545  19.872  0.00  0.00    +0.000 C 
ENDBRANCH  23  26
ENDBRANCH   1  23
TORSDOF 4
ENDMDL
MODEL 3
REMARK VINA RESULT:      -8.8      0.159      1.271
REMARK  Name = 
REMARK  7 active torsions:
REMARK  status: ('A' for Active; 'I' for Inactive)
REMARK    1  A    between atoms: C_1  and  C_2
REMARK    2  A    between atoms: C_2  and  C_3
REMARK    3  A    between atoms: C_2  and  C_4
REMARK    4  A    between atoms: C_2  and  N_5
REMARK    5  A    between atoms: N_5  and  C_6
REMARK    6  A    between atoms: C_7  and  C_8
REMARK    7  A    between atoms: C_11  and  C_12
REMARK                            x       y       z     vdW  Elec       q    Type
REMARK                         _______ _______ _______ _____ _____    ______ ____
ROOT
ATOM      1  C   UNL     1       3.319   5.238  17.650  0.00  0.00    +0.000 A 
ATOM      2  C   UNL     1       3.565   6.575  18.031  0.00  0.00    +0.000 A 
ATOM      3  N   UNL     1       4.849   6.965  17.718  0.00  0.00    +0.000 NA
ATOM      4  C   UNL     1       5.345   5.950  17.056  0.00  0.00    +0.000 A 
ATOM      5  C   UNL     1       6.668   5.820  16.494  0.00  0.00    +0.000 A 
ATOM      6  N   UNL     1       7.036   4.774  15.799  0.00  0.00    +0.000 NA
ATOM      7  C   UNL     1       6.077   3.801  15.594  0.00  0.00    +0.000 A 
ATOM      8  C   UNL     1       4.823   3.870  16.076  0.00  0.00    +0.000 A 
ATOM      9  N   UNL     1       4.446   4.931  16.879  0.00  0.00    +0.000 N 
ENDROOT
BRANCH   2  10
ATOM     10  C   UNL     1       2.668   7.481  18.737  0.00  0.00    +0.000 A 
ATOM     11  C   UNL     1       2.132   8.592  18.074  0.00  0.00    +0.000 A 
ATOM     12  C   UNL     1       1.255   9.468  18.730  0.00  0.00    +0.000 A 
ATOM     13  C   UNL     1       0.867   9.257  20.065  0.00  0.00    +0.000 A 
ATOM     14  C   UNL     1       1.389   8.121  20.705  0.00  0.00    +0.000 A 
ATOM     15  C   UNL     1       2.262   7.242  20.051  0.00  0.00    +0.000 A 
BRANCH  13  16
ATOM     16  C   UNL     1      -0.059  10.181  20.763  0.00  0.00    +0.000 A 
ATOM     17  C   UNL     1      -0.767  11.177  20.061  0.00  0.00    +0.000 A 
ATOM     18  C   UNL     1      -1.618  12.069  20.720  0.00  0.00    +0.000 A 
ATOM     19  C   UNL     1      -1.788  11.966  22.092  0.00  0.00    +0.000 A 
ATOM     20  F   UNL     1      -2.600  12.821  22.725  0.00  0.00    +0.000 F 
ATOM     21  C   UNL     1      -1.126  10.987  22.816  0.00  0.00    +0.000 A 
ATOM     22  C   UNL     1      -0.264  10.104  22.156  0.00  0.00    +0.000 A 
ENDBRANCH  13  16
ENDBRANCH   2  10
BRANCH   1  23
ATOM     23  N   UNL     1       2.243   4.410  17.940  0.00  0.00    +0.000 N 
ATOM     24  H   UNL     1       1.355   4.909  17.910  0.00  0.00    +0.000 HD
BRANCH  23  26
ATOM     25  C   UNL     1       2.281   1.970  18.522  0.00  0.00    +0.000 C 
ATOM     26  C   UNL     1       2.185   3.411  19.043  0.00  0.00    +0.000 C 
ATOM     27  C   UNL     1       0.997   3.690  19.981  0.00  0.00    +0.000 C 
ATOM     28  C   UNL     1       3.422   3.613  19.962  0.00  0.00    +0.000 C 
ENDBRANCH  23  26
ENDBRANCH   1  23
TORSDOF 4
ENDMDL
MODEL 4
REMARK VINA RESULT:      -8.8      0.129      1.561
REMARK  Name = 
REMARK  7 active torsions:
REMARK  status: ('A' for Active; 'I' for Inactive)
REMARK    1  A    between atoms: C_1  and  C_2
REMARK    2  A    between atoms: C_2  and  C_3
REMARK    3  A    between atoms: C_2  and  C_4
REMARK    4  A    between atoms: C_2  and  N_5
REMARK    5  A    between atoms: N_5  and  C_6
REMARK    6  A    between atoms: C_7  and  C_8
REMARK    7  A    between atoms: C_11  and  C_12
REMARK                            x       y       z     vdW  Elec       q    Type
REMARK                         _______ _______ _______ _____ _____    ______ ____
ROOT
ATOM      1  C   UNL     1       3.342   5.163  17.634  0.00  0.00    +0.000 A 
ATOM      2  C   UNL     1       3.595   6.494  18.029  0.00  0.00    +0.000 A 
ATOM      3  N   UNL     1       4.870   6.892  17.690  0.00  0.00    +0.000 NA
ATOM      4  C   UNL     1       5.352   5.888  17.001  0.00  0.00    +0.000 A 
ATOM      5  C   UNL     1       6.661   5.769  16.406  0.00  0.00    +0.000 A 
ATOM      6  N   UNL     1       7.014   4.735  15.687  0.00  0.00    +0.000 NA
ATOM      7  C   UNL     1       6.052   3.763  15.491  0.00  0.00    +0.000 A 
ATOM      8  C   UNL     1       4.810   3.822  16.003  0.00  0.00    +0.000 A 
ATOM      9  N   UNL     1       4.451   4.870  16.832  0.00  0.00    +0.000 N 
ENDROOT
BRANCH   2  10
ATOM     10  C   UNL     1       2.713   7.387  18.769  0.00  0.00    +0.000 A 
ATOM     11  C   UNL     1       2.208   8.541  18.155  0.00  0.00    +0.000 A 
ATOM     12  C   UNL     1       1.347   9.406  18.845  0.00  0.00    +0.000 A 
ATOM     13  C   UNL     1       0.943   9.143  20.166  0.00  0.00    +0.000 A 
ATOM     14  C   UNL     1       1.433   7.966  20.756  0.00  0.00    +0.000 A 
ATOM     15  C   UNL     1       2.291   7.099  20.068  0.00  0.00    +0.000 A 
BRANCH  13  16
ATOM     16  C   UNL     1       0.033  10.055  20.899  0.00  0.00    +0.000 A 
ATOM     17  C   UNL     1      -0.230   9.879  22.272  0.00  0.00    +0.000 A 
ATOM     18  C   UNL     1      -1.110  10.720  22.960  0.00  0.00    +0.000 A 
ATOM     19  C   UNL     1      -1.728  11.762  22.286  0.00  0.00    +0.000 A 
ATOM     20  F   UNL     1      -2.574  12.566  22.943  0.00  0.00    +0.000 F 
ATOM     21  C   UNL     1      -1.480  11.981  20.940  0.00  0.00    +0.000 A 
ATOM     22  C   UNL     1      -0.609  11.130  20.251  0.00  0.00    +0.000 A 
ENDBRANCH  13  16
ENDBRANCH   2  10
BRANCH   1  23
ATOM     23  N   UNL     1       2.275   4.328  17.937  0.00  0.00    +0.000 N 
ATOM     24  H   UNL     1       1.379   4.809  17.866  0.00  0.00    +0.000 HD
BRANCH  23  26
ATOM     25  C   UNL     1       3.494   3.401  19.924  0.00  0.00    +0.000 C 
ATOM     26  C   UNL     1       2.210   3.377  19.082  0.00  0.00    +0.000 C 
ATOM     27  C   UNL     1       1.757   1.982  18.618  0.00  0.00    +0.000 C 
ATOM     28  C   UNL     1       1.068   3.826  20.036  0.00  0.00    +0.000 C 
ENDBRANCH  23  26
ENDBRANCH   1  23
TORSDOF 4
ENDMDL
MODEL 5
REMARK VINA RESULT:      -8.7      0.651      1.550
REMARK  Name = 
REMARK  7 active torsions:
REMARK  status: ('A' for Active; 'I' for Inactive)
REMARK    1  A    between atoms: C_1  and  C_2
REMARK    2  A    between atoms: C_2  and  C_3
REMARK    3  A    between atoms: C_2  and  C_4
REMARK    4  A    between atoms: C_2  and  N_5
REMARK    5  A    between atoms: N_5  and  C_6
REMARK    6  A    between atoms: C_7  and  C_8
REMARK    7  A    between atoms: C_11  and  C_12
REMARK                            x       y       z     vdW  Elec       q    Type
REMARK                         _______ _______ _______ _____ _____    ______ ____
ROOT
ATOM      1  C   UNL     1       3.652   5.170  18.223  0.00  0.00    +0.000 A 
ATOM      2  C   UNL     1       3.459   6.559  18.057  0.00  0.00    +0.000 A 
ATOM      3  N   UNL     1       4.273   7.071  17.069  0.00  0.00    +0.000 NA
ATOM      4  C   UNL     1       4.861   6.020  16.556  0.00  0.00    +0.000 A 
ATOM      5  C   UNL     1       5.828   5.980  15.485  0.00  0.00    +0.000 A 
ATOM      6  N   UNL     1       6.309   4.859  15.014  0.00  0.00    +0.000 NA
ATOM      7  C   UNL     1       5.818   3.695  15.572  0.00  0.00    +0.000 A 
ATOM      8  C   UNL     1       4.905   3.662  16.560  0.00  0.00    +0.000 A 
ATOM      9  N   UNL     1       4.450   4.842  17.121  0.00  0.00    +0.000 N 
ENDROOT
BRANCH   2  10
ATOM     10  C   UNL     1       2.591   7.438  18.830  0.00  0.00    +0.000 A 
ATOM     11  C   UNL     1       2.042   8.580  18.234  0.00  0.00    +0.000 A 
ATOM     12  C   UNL     1       1.193   9.432  18.957  0.00  0.00    +0.000 A 
ATOM     13  C   UNL     1       0.847   9.164  20.293  0.00  0.00    +0.000 A 
ATOM     14  C   UNL     1       1.381   7.998  20.865  0.00  0.00    +0.000 A 
ATOM     15  C   UNL     1       2.227   7.144  20.145  0.00  0.00    +0.000 A 
BRANCH  13  16
ATOM     16  C   UNL     1      -0.049  10.061  21.060  0.00  0.00    +0.000 A 
ATOM     17  C   UNL     1      -0.252   9.886  22.444  0.00  0.00    +0.000 A 
ATOM     18  C   UNL     1      -1.119  10.711  23.165  0.00  0.00    +0.000 A 
ATOM     19  C   UNL     1      -1.785  11.739  22.515  0.00  0.00    +0.000 A 
ATOM     20  F   UNL     1      -2.618  12.529  23.203  0.00  0.00    +0.000 F 
ATOM     21  C   UNL     1      -1.597  11.958  21.159  0.00  0.00    +0.000 A 
ATOM     22  C   UNL     1      -0.738  11.121  20.437  0.00  0.00    +0.000 A 
ENDBRANCH  13  16
ENDBRANCH   2  10
BRANCH   1  23
ATOM     23  N   UNL     1       3.181   4.315  19.210  0.00  0.00    +0.000 N 
ATOM     24  H   UNL     1       3.921   3.731  19.596  0.00  0.00    +0.000 HD
BRANCH  23  26
ATOM     25  C   UNL     1       1.115   3.817  17.876  0.00  0.00    +0.000 C 
ATOM     26  C   UNL     1       1.931   3.508  19.140  0.00  0.00    +0.000 C 
ATOM     27  C   UNL     1       1.146   3.587  20.461  0.00  0.00    +0.000 C 
ATOM     28  C   UNL     1       2.315   2.005  19.041  0.00  0.00    +0.000 C 
ENDBRANCH  23  26
ENDBRANCH   1  23
TORSDOF 4
ENDMDL
MODEL 6
REMARK VINA RESULT:      -7.9      4.461      9.121
REMARK  Name = 
REMARK  7 active torsions:
REMARK  status: ('A' for Active; 'I' for Inactive)
REMARK    1  A    between atoms: C_1  and  C_2
REMARK    2  A    between atoms: C_2  and  C_3
REMARK    3  A    between atoms: C_2  and  C_4
REMARK    4  A    between atoms: C_2  and  N_5
REMARK    5  A    between atoms: N_5  and  C_6
REMARK    6  A    between atoms: C_7  and  C_8
REMARK    7  A    between atoms: C_11  and  C_12
REMARK                            x       y       z     vdW  Elec       q    Type
REMARK                         _______ _______ _______ _____ _____    ______ ____
ROOT
ATOM      1  C   UNL     1       0.174  11.128  19.967  0.00  0.00    +0.000 A 
ATOM      2  C   UNL     1       0.564   9.822  20.338  0.00  0.00    +0.000 A 
ATOM      3  N   UNL     1       0.102   9.491  21.593  0.00  0.00    +0.000 NA
ATOM      4  C   UNL     1      -0.650  10.505  21.942  0.00  0.00    +0.000 A 
ATOM      5  C   UNL     1      -1.379  10.685  23.174  0.00  0.00    +0.000 A 
ATOM      6  N   UNL     1      -2.148  11.721  23.389  0.00  0.00    +0.000 NA
ATOM      7  C   UNL     1      -2.260  12.631  22.357  0.00  0.00    +0.000 A 
ATOM      8  C   UNL     1      -1.622  12.513  21.179  0.00  0.00    +0.000 A 
ATOM      9  N   UNL     1      -0.743  11.465  20.969  0.00  0.00    +0.000 N 
ENDROOT
BRANCH   2  10
ATOM     10  C   UNL     1       1.406   8.897  19.590  0.00  0.00    +0.000 A 
ATOM     11  C   UNL     1       1.808   7.689  20.174  0.00  0.00    +0.000 A 
ATOM     12  C   UNL     1       2.606   6.778  19.467  0.00  0.00    +0.000 A 
ATOM     13  C   UNL     1       3.019   7.032  18.147  0.00  0.00    +0.000 A 
ATOM     14  C   UNL     1       2.581   8.234  17.566  0.00  0.00    +0.000 A 
ATOM     15  C   UNL     1       1.781   9.144  18.269  0.00  0.00    +0.000 A 
BRANCH  13  16
ATOM     16  C   UNL     1       3.863   6.073  17.397  0.00  0.00    +0.000 A 
ATOM     17  C   UNL     1       4.884   6.516  16.531  0.00  0.00    +0.000 A 
ATOM     18  C   UNL     1       5.663   5.616  15.799  0.00  0.00    +0.000 A 
ATOM     19  C   UNL     1       5.445   4.253  15.936  0.00  0.00    +0.000 A 
ATOM     20  F   UNL     1       6.188   3.390  15.234  0.00  0.00    +0.000 F 
ATOM     21  C   UNL     1       4.465   3.776  16.793  0.00  0.00    +0.000 A 
ATOM     22  C   UNL     1       3.677   4.680  17.513  0.00  0.00    +0.000 A 
ENDBRANCH  13  16
ENDBRANCH   2  10
BRANCH   1  23
ATOM     23  N   UNL     1       0.572  11.907  18.889  0.00  0.00    +0.000 N 
ATOM     24  H   UNL     1       0.834  11.341  18.083  0.00  0.00    +0.000 HD
BRANCH  23  26
ATOM     25  C   UNL     1       0.719  14.409  18.793  0.00  0.00    +0.000 C 
ATOM     26  C   UNL     1       1.480  13.085  18.953  0.00  0.00    +0.000 C 
ATOM     27  C   UNL     1       2.687  12.906  18.016  0.00  0.00    +0.000 C 
ATOM     28  C   UNL     1       2.128  13.136  20.366  0.00  0.00    +0.000 C 
ENDBRANCH  23  26
ENDBRANCH   1  23
TORSDOF 4
ENDMDL
MODEL 7
REMARK VINA RESULT:      -7.8      2.167      4.124
REMARK  Name = 
REMARK  7 active torsions:
REMARK  status: ('A' for Active; 'I' for Inactive)
REMARK    1  A    between atoms: C_1  and  C_2
REMARK    2  A    between atoms: C_2  and  C_3
REMARK    3  A    between atoms: C_2  and  C_4
REMARK    4  A    between atoms: C_2  and  N_5
REMARK    5  A    between atoms: N_5  and  C_6
REMARK    6  A    between atoms: C_7  and  C_8
REMARK    7  A    between atoms: C_11  and  C_12
REMARK                            x       y       z     vdW  Elec       q    Type
REMARK                         _______ _______ _______ _____ _____    ______ ____
ROOT
ATOM      1  C   UNL     1       4.010   5.469  18.803  0.00  0.00    +0.000 A 
ATOM      2  C   UNL     1       2.696   5.985  18.852  0.00  0.00    +0.000 A 
ATOM      3  N   UNL     1       1.753   4.981  18.809  0.00  0.00    +0.000 NA
ATOM      4  C   UNL     1       2.453   3.875  18.856  0.00  0.00    +0.000 A 
ATOM      5  C   UNL     1       1.967   2.516  18.834  0.00  0.00    +0.000 A 
ATOM      6  N   UNL     1       2.762   1.484  18.944  0.00  0.00    +0.000 NA
ATOM      7  C   UNL     1       4.105   1.756  19.119  0.00  0.00    +0.000 A 
ATOM      8  C   UNL     1       4.620   2.997  19.165  0.00  0.00    +0.000 A 
ATOM      9  N   UNL     1       3.801   4.095  18.969  0.00  0.00    +0.000 N 
ENDROOT
BRANCH   2  10
ATOM     10  C   UNL     1       2.288   7.384  18.870  0.00  0.00    +0.000 A 
ATOM     11  C   UNL     1       2.470   8.181  17.733  0.00  0.00    +0.000 A 
ATOM     12  C   UNL     1       2.071   9.525  17.725  0.00  0.00    +0.000 A 
ATOM     13  C   UNL     1       1.460  10.118  18.844  0.00  0.00    +0.000 A 
ATOM     14  C   UNL     1       1.257   9.296  19.965  0.00  0.00    +0.000 A 
ATOM     15  C   UNL     1       1.652   7.952  19.975  0.00  0.00    +0.000 A 
BRANCH  13  16
ATOM     16  C   UNL     1       1.038  11.539  18.840  0.00  0.00    +0.000 A 
ATOM     17  C   UNL     1      -0.298  11.907  19.101  0.00  0.00    +0.000 A 
ATOM     18  C   UNL     1      -0.706  13.243  19.069  0.00  0.00    +0.000 A 
ATOM     19  C   UNL     1       0.222  14.236  18.793  0.00  0.00    +0.000 A 
ATOM     20  F   UNL     1      -0.168  15.516  18.759  0.00  0.00    +0.000 F 
ATOM     21  C   UNL     1       1.549  13.917  18.552  0.00  0.00    +0.000 A 
ATOM     22  C   UNL     1       1.952  12.577  18.571  0.00  0.00    +0.000 A 
ENDBRANCH  13  16
ENDBRANCH   2  10
BRANCH   1  23
ATOM     23  N   UNL     1       5.222   6.125  18.640  0.00  0.00    +0.000 N 
ATOM     24  H   UNL     1       5.197   7.075  19.008  0.00  0.00    +0.000 HD
BRANCH  23  26
ATOM     25  C   UNL     1       5.204   6.188  16.132  0.00  0.00    +0.000 C 
ATOM     26  C   UNL     1       6.057   6.120  17.407  0.00  0.00    +0.000 C 
ATOM     27  C   UNL     1       7.090   4.979  17.443  0.00  0.00    +0.000 C 
ATOM     28  C   UNL     1       6.938   7.400  17.398  0.00  0.00    +0.000 C 
ENDBRANCH  23  26
ENDBRANCH   1  23
TORSDOF 4
ENDMDL
MODEL 8
REMARK VINA RESULT:      -7.8      4.582      9.255
REMARK  Name = 
REMARK  7 active torsions:
REMARK  status: ('A' for Active; 'I' for Inactive)
REMARK    1  A    between atoms: C_1  and  C_2
REMARK    2  A    between atoms: C_2  and  C_3
REMARK    3  A    between atoms: C_2  and  C_4
REMARK    4  A    between atoms: C_2  and  N_5
REMARK    5  A    between atoms: N_5  and  C_6
REMARK    6  A    between atoms: C_7  and  C_8
REMARK    7  A    between atoms: C_11  and  C_12
REMARK                            x       y       z     vdW  Elec       q    Type
REMARK                         _______ _______ _______ _____ _____    ______ ____
ROOT
ATOM      1  C   UNL     1      -0.008  11.747  20.039  0.00  0.00    +0.000 A 
ATOM      2  C   UNL     1       0.244  10.419  20.447  0.00  0.00    +0.000 A 
ATOM      3  N   UNL     1      -0.316  10.150  21.677  0.00  0.00    +0.000 NA
ATOM      4  C   UNL     1      -0.995  11.231  21.969  0.00  0.00    +0.000 A 
ATOM      5  C   UNL     1      -1.775  11.494  23.155  0.00  0.00    +0.000 A 
ATOM      6  N   UNL     1      -2.462  12.596  23.313  0.00  0.00    +0.000 NA
ATOM      7  C   UNL     1      -2.435  13.496  22.265  0.00  0.00    +0.000 A 
ATOM      8  C   UNL     1      -1.742  13.303  21.127  0.00  0.00    +0.000 A 
ATOM      9  N   UNL     1      -0.948  12.180  20.982  0.00  0.00    +0.000 N 
ENDROOT
BRANCH   2  10
ATOM     10  C   UNL     1       1.044   9.412  19.761  0.00  0.00    +0.000 A 
ATOM     11  C   UNL     1       1.469   8.269  20.449  0.00  0.00    +0.000 A 
ATOM     12  C   UNL     1       2.228   7.281  19.804  0.00  0.00    +0.000 A 
ATOM     13  C   UNL     1       2.573   7.390  18.445  0.00  0.00    +0.000 A 
ATOM     14  C   UNL     1       2.112   8.527  17.763  0.00  0.00    +0.000 A 
ATOM     15  C   UNL     1       1.352   9.514  18.404  0.00  0.00    +0.000 A 
BRANCH  13  16
ATOM     16  C   UNL     1       3.375   6.349  17.760  0.00  0.00    +0.000 A 
ATOM     17  C   UNL     1       3.016   4.987  17.823  0.00  0.00    +0.000 A 
ATOM     18  C   UNL     1       3.786   3.999  17.203  0.00  0.00    +0.000 A 
ATOM     19  C   UNL     1       4.920   4.361  16.492  0.00  0.00    +0.000 A 
ATOM     20  F   UNL     1       5.661   3.416  15.900  0.00  0.00    +0.000 F 
ATOM     21  C   UNL     1       5.296   5.692  16.389  0.00  0.00    +0.000 A 
ATOM     22  C   UNL     1       4.531   6.677  17.022  0.00  0.00    +0.000 A 
ENDBRANCH  13  16
ENDBRANCH   2  10
BRANCH   1  23
ATOM     23  N   UNL     1       0.517  12.471  18.976  0.00  0.00    +0.000 N 
ATOM     24  H   UNL     1       0.664  11.890  18.153  0.00  0.00    +0.000 HD
BRANCH  23  26
ATOM     25  C   UNL     1       1.119  14.906  18.949  0.00  0.00    +0.000 C 
ATOM     26  C   UNL     1       1.626  13.461  19.060  0.00  0.00    +0.000 C 
ATOM     27  C   UNL     1       2.770  13.093  18.100  0.00  0.00    +0.000 C 
ATOM     28  C   UNL     1       2.286  13.350  20.463  0.00  0.00    +0.000 C 
ENDBRANCH  23  26
ENDBRANCH   1  23
TORSDOF 4
ENDMDL
MODEL 9
REMARK VINA RESULT:      -7.7      4.584      9.250
REMARK  Name = 
REMARK  7 active torsions:
REMARK  status: ('A' for Active; 'I' for Inactive)
REMARK    1  A    between atoms: C_1  and  C_2
REMARK    2  A    between atoms: C_2  and  C_3
REMARK    3  A    between atoms: C_2  and  C_4
REMARK    4  A    between atoms: C_2  and  N_5
REMARK    5  A    between atoms: N_5  and  C_6
REMARK    6  A    between atoms: C_7  and  C_8
REMARK    7  A    between atoms: C_11  and  C_12
REMARK                            x       y       z     vdW  Elec       q    Type
REMARK                         _______ _______ _______ _____ _____    ______ ____
ROOT
ATOM      1  C   UNL     1      -0.013  11.713  20.102  0.00  0.00    +0.000 A 
ATOM      2  C   UNL     1       0.221  10.375  20.487  0.00  0.00    +0.000 A 
ATOM      3  N   UNL     1      -0.366  10.084  21.699  0.00  0.00    +0.000 NA
ATOM      4  C   UNL     1      -1.043  11.163  22.000  0.00  0.00    +0.000 A 
ATOM      5  C   UNL     1      -1.846  11.407  23.174  0.00  0.00    +0.000 A 
ATOM      6  N   UNL     1      -2.528  12.511  23.342  0.00  0.00    +0.000 NA
ATOM      7  C   UNL     1      -2.473  13.432  22.314  0.00  0.00    +0.000 A 
ATOM      8  C   UNL     1      -1.758  13.258  21.187  0.00  0.00    +0.000 A 
ATOM      9  N   UNL     1      -0.969  12.133  21.034  0.00  0.00    +0.000 N 
ENDROOT
BRANCH   2  10
ATOM     10  C   UNL     1       1.028   9.377  19.796  0.00  0.00    +0.000 A 
ATOM     11  C   UNL     1       1.475   8.241  20.484  0.00  0.00    +0.000 A 
ATOM     12  C   UNL     1       2.241   7.261  19.834  0.00  0.00    +0.000 A 
ATOM     13  C   UNL     1       2.572   7.371  18.472  0.00  0.00    +0.000 A 
ATOM     14  C   UNL     1       2.089   8.499  17.791  0.00  0.00    +0.000 A 
ATOM     15  C   UNL     1       1.322   9.478  18.436  0.00  0.00    +0.000 A 
BRANCH  13  16
ATOM     16  C   UNL     1       3.381   6.338  17.782  0.00  0.00    +0.000 A 
ATOM     17  C   UNL     1       4.518   6.684  17.024  0.00  0.00    +0.000 A 
ATOM     18  C   UNL     1       5.267   5.716  16.348  0.00  0.00    +0.000 A 
ATOM     19  C   UNL     1       4.898   4.382  16.435  0.00  0.00    +0.000 A 
ATOM     20  F   UNL     1       5.612   3.455  15.785  0.00  0.00    +0.000 F 
ATOM     21  C   UNL     1       3.799   3.998  17.186  0.00  0.00    +0.000 A 
ATOM     22  C   UNL     1       3.044   4.971  17.851  0.00  0.00    +0.000 A 
ENDBRANCH  13  16
ENDBRANCH   2  10
BRANCH   1  23
ATOM     23  N   UNL     1       0.539  12.455  19.066  0.00  0.00    +0.000 N 
ATOM     24  H   UNL     1       0.673  11.897  18.224  0.00  0.00    +0.000 HD
BRANCH  23  26
ATOM     25  C   UNL     1       2.699  13.232  18.053  0.00  0.00    +0.000 C 
ATOM     26  C   UNL     1       1.679  13.406  19.188  0.00  0.00    +0.000 C 
ATOM     27  C   UNL     1       2.269  13.385  20.608  0.00  0.00    +0.000 C 
ATOM     28  C   UNL     1       1.133  14.855  19.049  0.00  0.00    +0.000 C 
ENDBRANCH  23  26
ENDBRANCH   1  23
TORSDOF 4
ENDMDL
