MODEL 1
REMARK VINA RESULT:      -7.2      0.000      0.000
REMARK  Name = 
REMARK  11 active torsions:
REMARK  status: ('A' for Active; 'I' for Inactive)
REMARK    1  A    between atoms: C_1  and  C_2
REMARK    2  A    between atoms: C_2  and  C_3
REMARK    3  A    between atoms: C_3  and  C_4
REMARK    4  A    between atoms: C_4  and  C_5
REMARK    5  A    between atoms: C_5  and  C_6
REMARK    6  A    between atoms: C_7  and  C_8
REMARK    7  A    between atoms: C_8  and  C_9
REMARK    8  A    between atoms: C_9  and  C_10
REMARK    9  A    between atoms: C_10  and  N_11
REMARK   10  A    between atoms: C_15  and  C_16
REMARK   11  A    between atoms: N_20  and  C_21
REMARK                            x       y       z     vdW  Elec       q    Type
REMARK                         _______ _______ _______ _____ _____    ______ ____
ROOT
ATOM      1  N   UNL     1       5.681   4.211  17.568  0.00  0.00    +0.000 N 
ATOM      2  C   UNL     1       4.883   3.925  16.513  0.00  0.00    +0.000 A 
ATOM      3  C   UNL     1       3.571   3.525  16.711  0.00  0.00    +0.000 A 
ATOM      4  C   UNL     1       3.071   3.472  17.998  0.00  0.00    +0.000 A 
ATOM      5  C   UNL     1       3.861   3.857  19.084  0.00  0.00    +0.000 A 
ATOM      6  C   UNL     1       5.201   4.183  18.829  0.00  0.00    +0.000 A 
ENDROOT
BRANCH   5   7
ATOM      7  C   UNL     1       3.307   4.046  20.485  0.00  0.00    +0.000 C 
ATOM      8  C   UNL     1       2.644   2.803  21.086  0.00  0.00    +0.000 C 
ATOM      9  C   UNL     1       1.151   2.944  20.789  0.00  0.00    +0.000 C 
ATOM     10  C   UNL     1       0.963   4.360  20.259  0.00  0.00    +0.000 C 
ATOM     11  N   UNL     1       2.223   5.032  20.575  0.00  0.00    +0.000 NA
ATOM     12  C   UNL     1       2.399   6.299  19.890  0.00  0.00    +0.000 C 
ENDBRANCH   5   7
BRANCH   1  13
ATOM     13  C   UNL     1       7.097   4.576  17.322  0.00  0.00    +0.000 C 
BRANCH  13  14
ATOM     14  C   UNL     1       7.501   5.667  18.301  0.00  0.00    +0.000 C 
BRANCH  14  15
ATOM     15  C   UNL     1       7.466   7.034  17.631  0.00  0.00    +0.000 C 
BRANCH  15  17
ATOM     16  C   UNL     1       8.477   9.276  18.042  0.00  0.00    +0.000 C 
ATOM     17  C   UNL     1       8.208   8.029  18.468  0.00  0.00    +0.000 C 
BRANCH  16  18
ATOM     18  C   UNL     1       9.213  10.276  18.884  0.00  0.00    +0.000 C 
BRANCH  18  19
ATOM     19  C   UNL     1       9.623  11.487  18.051  0.00  0.00    +0.000 C 
BRANCH  19  20
ATOM     20  C   UNL     1      11.079  11.860  18.319  0.00  0.00    +0.000 C 
BRANCH  20  22
ATOM     21  C   UNL     1      10.898  13.196  20.436  0.00  0.00    +0.000 C 
ATOM     22  C   UNL     1      11.368  11.893  19.817  0.00  0.00    +0.000 C 
ENDBRANCH  20  22
ENDBRANCH  19  20
ENDBRANCH  18  19
ENDBRANCH  16  18
ENDBRANCH  15  17
ENDBRANCH  14  15
ENDBRANCH  13  14
ENDBRANCH   1  13
TORSDOF 9
ENDMDL
MODEL 2
REMARK VINA RESULT:      -6.9      1.446      2.384
REMARK  Name = 
REMARK  11 active torsions:
REMARK  status: ('A' for Active; 'I' for Inactive)
REMARK    1  A    between atoms: C_1  and  C_2
REMARK    2  A    between atoms: C_2  and  C_3
REMARK    3  A    between atoms: C_3  and  C_4
REMARK    4  A    between atoms: C_4  and  C_5
REMARK    5  A    between atoms: C_5  and  C_6
REMARK    6  A    between atoms: C_7  and  C_8
REMARK    7  A    between atoms: C_8  and  C_9
REMARK    8  A    between atoms: C_9  and  C_10
REMARK    9  A    between atoms: C_10  and  N_11
REMARK   10  A    between atoms: C_15  and  C_16
REMARK   11  A    between atoms: N_20  and  C_21
REMARK                            x       y       z     vdW  Elec       q    Type
REMARK                         _______ _______ _______ _____ _____    ______ ____
ROOT
ATOM      1  N   UNL     1       6.425   5.184  18.163  0.00  0.00    +0.000 N 
ATOM      2  C   UNL     1       6.991   4.732  17.020  0.00  0.00    +0.000 A 
ATOM      3  C   UNL     1       6.228   4.072  16.070  0.00  0.00    +0.000 A 
ATOM      4  C   UNL     1       4.870   3.928  16.280  0.00  0.00    +0.000 A 
ATOM      5  C   UNL     1       4.264   4.476  17.413  0.00  0.00    +0.000 A 
ATOM      6  C   UNL     1       5.097   5.069  18.373  0.00  0.00    +0.000 A 
ENDROOT
BRANCH   5   7
ATOM      7  C   UNL     1       2.758   4.559  17.588  0.00  0.00    +0.000 C 
ATOM      8  C   UNL     1       2.275   5.747  18.426  0.00  0.00    +0.000 C 
ATOM      9  C   UNL     1       2.120   5.216  19.851  0.00  0.00    +0.000 C 
ATOM     10  C   UNL     1       2.271   3.702  19.751  0.00  0.00    +0.000 C 
ATOM     11  N   UNL     1       2.173   3.428  18.317  0.00  0.00    +0.000 NA
ATOM     12  C   UNL     1       2.599   2.090  17.948  0.00  0.00    +0.000 C 
ENDBRANCH   5   7
BRANCH   1  13
ATOM     13  C   UNL     1       7.283   5.831  19.185  0.00  0.00    +0.000 C 
BRANCH  13  14
ATOM     14  C   UNL     1       8.255   6.770  18.489  0.00  0.00    +0.000 C 
BRANCH  14  15
ATOM     15  C   UNL     1       7.507   7.858  17.731  0.00  0.00    +0.000 C 
BRANCH  15  17
ATOM     16  C   UNL     1       8.912   9.473  19.010  0.00  0.00    +0.000 C 
ATOM     17  C   UNL     1       8.204   9.172  17.908  0.00  0.00    +0.000 C 
BRANCH  16  18
ATOM     18  C   UNL     1       9.617  10.786  19.184  0.00  0.00    +0.000 C 
BRANCH  18  19
ATOM     19  C   UNL     1       9.838  11.464  17.836  0.00  0.00    +0.000 C 
BRANCH  19  20
ATOM     20  C   UNL     1       9.556  12.962  17.930  0.00  0.00    +0.000 C 
BRANCH  20  22
ATOM     21  C   UNL     1      11.980  12.944  17.279  0.00  0.00    +0.000 C 
ATOM     22  C   UNL     1      10.711  13.773  17.350  0.00  0.00    +0.000 C 
ENDBRANCH  20  22
ENDBRANCH  19  20
ENDBRANCH  18  19
ENDBRANCH  16  18
ENDBRANCH  15  17
ENDBRANCH  14  15
ENDBRANCH  13  14
ENDBRANCH   1  13
TORSDOF 9
ENDMDL
MODEL 3
REMARK VINA RESULT:      -6.9      1.371      2.129
REMARK  Name = 
REMARK  11 active torsions:
REMARK  status: ('A' for Active; 'I' for Inactive)
REMARK    1  A    between atoms: C_1  and  C_2
REMARK    2  A    between atoms: C_2  and  C_3
REMARK    3  A    between atoms: C_3  and  C_4
REMARK    4  A    between atoms: C_4  and  C_5
REMARK    5  A    between atoms: C_5  and  C_6
REMARK    6  A    between atoms: C_7  and  C_8
REMARK    7  A    between atoms: C_8  and  C_9
REMARK    8  A    between atoms: C_9  and  C_10
REMARK    9  A    between atoms: C_10  and  N_11
REMARK   10  A    between atoms: C_15  and  C_16
REMARK   11  A    between atoms: N_20  and  C_21
REMARK                            x       y       z     vdW  Elec       q    Type
REMARK                         _______ _______ _______ _____ _____    ______ ____
ROOT
ATOM      1  N   UNL     1       4.548   4.728  16.893  0.00  0.00    +0.000 N 
ATOM      2  C   UNL     1       4.145   5.995  17.144  0.00  0.00    +0.000 A 
ATOM      3  C   UNL     1       3.006   6.235  17.896  0.00  0.00    +0.000 A 
ATOM      4  C   UNL     1       2.315   5.165  18.432  0.00  0.00    +0.000 A 
ATOM      5  C   UNL     1       2.780   3.859  18.255  0.00  0.00    +0.000 A 
ATOM      6  C   UNL     1       3.896   3.673  17.426  0.00  0.00    +0.000 A 
ENDROOT
BRANCH   5   7
ATOM      7  C   UNL     1       2.210   2.668  19.005  0.00  0.00    +0.000 C 
ATOM      8  C   UNL     1       0.831   2.905  19.629  0.00  0.00    +0.000 C 
ATOM      9  C   UNL     1       1.095   3.322  21.076  0.00  0.00    +0.000 C 
ATOM     10  C   UNL     1       2.580   3.074  21.317  0.00  0.00    +0.000 C 
ATOM     11  N   UNL     1       2.997   2.261  20.175  0.00  0.00    +0.000 NA
ATOM     12  C   UNL     1       4.437   2.161  20.023  0.00  0.00    +0.000 C 
ENDBRANCH   5   7
BRANCH   1  13
ATOM     13  C   UNL     1       5.735   4.507  16.033  0.00  0.00    +0.000 C 
BRANCH  13  14
ATOM     14  C   UNL     1       6.553   5.787  15.983  0.00  0.00    +0.000 C 
BRANCH  14  15
ATOM     15  C   UNL     1       7.304   6.000  17.290  0.00  0.00    +0.000 C 
BRANCH  15  17
ATOM     16  C   UNL     1       8.263   8.274  17.648  0.00  0.00    +0.000 C 
ATOM     17  C   UNL     1       7.213   7.436  17.702  0.00  0.00    +0.000 C 
BRANCH  16  18
ATOM     18  C   UNL     1       8.169   9.715  18.052  0.00  0.00    +0.000 C 
BRANCH  18  19
ATOM     19  C   UNL     1       9.274  10.073  19.042  0.00  0.00    +0.000 C 
BRANCH  19  20
ATOM     20  C   UNL     1       9.696  11.531  18.879  0.00  0.00    +0.000 C 
BRANCH  20  22
ATOM     21  C   UNL     1      12.090  11.781  19.591  0.00  0.00    +0.000 C 
ATOM     22  C   UNL     1      11.146  11.631  18.413  0.00  0.00    +0.000 C 
ENDBRANCH  20  22
ENDBRANCH  19  20
ENDBRANCH  18  19
ENDBRANCH  16  18
ENDBRANCH  15  17
ENDBRANCH  14  15
ENDBRANCH  13  14
ENDBRANCH   1  13
TORSDOF 9
ENDMDL
MODEL 4
REMARK VINA RESULT:      -6.9      3.993      6.492
REMARK  Name = 
REMARK  11 active torsions:
REMARK  status: ('A' for Active; 'I' for Inactive)
REMARK    1  A    between atoms: C_1  and  C_2
REMARK    2  A    between atoms: C_2  and  C_3
REMARK    3  A    between atoms: C_3  and  C_4
REMARK    4  A    between atoms: C_4  and  C_5
REMARK    5  A    between atoms: C_5  and  C_6
REMARK    6  A    between atoms: C_7  and  C_8
REMARK    7  A    between atoms: C_8  and  C_9
REMARK    8  A    between atoms: C_9  and  C_10
REMARK    9  A    between atoms: C_10  and  N_11
REMARK   10  A    between atoms: C_15  and  C_16
REMARK   11  A    between atoms: N_20  and  C_21
REMARK                            x       y       z     vdW  Elec       q    Type
REMARK                         _______ _______ _______ _____ _____    ______ ____
ROOT
ATOM      1  N   UNL     1       2.834   6.767  18.960  0.00  0.00    +0.000 N 
ATOM      2  C   UNL     1       2.091   7.318  19.947  0.00  0.00    +0.000 A 
ATOM      3  C   UNL     1       1.419   6.513  20.854  0.00  0.00    +0.000 A 
ATOM      4  C   UNL     1       1.560   5.141  20.769  0.00  0.00    +0.000 A 
ATOM      5  C   UNL     1       2.401   4.571  19.811  0.00  0.00    +0.000 A 
ATOM      6  C   UNL     1       2.998   5.430  18.876  0.00  0.00    +0.000 A 
ENDROOT
BRANCH   5   7
ATOM      7  C   UNL     1       2.782   3.101  19.813  0.00  0.00    +0.000 C 
ATOM      8  C   UNL     1       4.193   2.804  19.296  0.00  0.00    +0.000 C 
ATOM      9  C   UNL     1       4.030   2.461  17.815  0.00  0.00    +0.000 C 
ATOM     10  C   UNL     1       2.530   2.324  17.582  0.00  0.00    +0.000 C 
ATOM     11  N   UNL     1       1.962   2.265  18.929  0.00  0.00    +0.000 NA
ATOM     12  C   UNL     1       0.523   2.448  18.965  0.00  0.00    +0.000 C 
ENDBRANCH   5   7
BRANCH   1  13
ATOM     13  C   UNL     1       3.489   7.656  17.970  0.00  0.00    +0.000 C 
BRANCH  13  14
ATOM     14  C   UNL     1       4.130   6.801  16.888  0.00  0.00    +0.000 C 
BRANCH  14  15
ATOM     15  C   UNL     1       5.648   6.852  16.988  0.00  0.00    +0.000 C 
BRANCH  15  17
ATOM     16  C   UNL     1       5.505   4.926  15.410  0.00  0.00    +0.000 C 
ATOM     17  C   UNL     1       6.251   5.795  16.115  0.00  0.00    +0.000 C 
BRANCH  16  18
ATOM     18  C   UNL     1       6.108   3.873  14.529  0.00  0.00    +0.000 C 
BRANCH  18  19
ATOM     19  C   UNL     1       7.114   4.488  13.560  0.00  0.00    +0.000 C 
BRANCH  19  20
ATOM     20  C   UNL     1       6.844   4.023  12.131  0.00  0.00    +0.000 C 
BRANCH  20  22
ATOM     21  C   UNL     1       5.888   1.808  11.438  0.00  0.00    +0.000 C 
ATOM     22  C   UNL     1       5.590   3.157  12.066  0.00  0.00    +0.000 C 
ENDBRANCH  20  22
ENDBRANCH  19  20
ENDBRANCH  18  19
ENDBRANCH  16  18
ENDBRANCH  15  17
ENDBRANCH  14  15
ENDBRANCH  13  14
ENDBRANCH   1  13
TORSDOF 9
ENDMDL
MODEL 5
REMARK VINA RESULT:      -6.8      1.278      2.206
REMARK  Name = 
REMARK  11 active torsions:
REMARK  status: ('A' for Active; 'I' for Inactive)
REMARK    1  A    between atoms: C_1  and  C_2
REMARK    2  A    between atoms: C_2  and  C_3
REMARK    3  A    between atoms: C_3  and  C_4
REMARK    4  A    between atoms: C_4  and  C_5
REMARK    5  A    between atoms: C_5  and  C_6
REMARK    6  A    between atoms: C_7  and  C_8
REMARK    7  A    between atoms: C_8  and  C_9
REMARK    8  A    between atoms: C_9  and  C_10
REMARK    9  A    between atoms: C_10  and  N_11
REMARK   10  A    between atoms: C_15  and  C_16
REMARK   11  A    between atoms: N_20  and  C_21
REMARK                            x       y       z     vdW  Elec       q    Type
REMARK                         _______ _______ _______ _____ _____    ______ ____
ROOT
ATOM      1  N   UNL     1       6.751   4.706  17.455  0.00  0.00    +0.000 N 
ATOM      2  C   UNL     1       6.992   4.417  16.155  0.00  0.00    +0.000 A 
ATOM      3  C   UNL     1       5.966   3.982  15.330  0.00  0.00    +0.000 A 
ATOM      4  C   UNL     1       4.684   3.899  15.837  0.00  0.00    +0.000 A 
ATOM      5  C   UNL     1       4.413   4.286  17.152  0.00  0.00    +0.000 A 
ATOM      6  C   UNL     1       5.501   4.649  17.960  0.00  0.00    +0.000 A 
ENDROOT
BRANCH   5   7
ATOM      7  C   UNL     1       3.004   4.443  17.696  0.00  0.00    +0.000 C 
ATOM      8  C   UNL     1       2.795   5.665  18.594  0.00  0.00    +0.000 C 
ATOM      9  C   UNL     1       2.982   5.165  20.027  0.00  0.00    +0.000 C 
ATOM     10  C   UNL     1       3.041   3.645  19.934  0.00  0.00    +0.000 C 
ATOM     11  N   UNL     1       2.575   3.351  18.578  0.00  0.00    +0.000 NA
ATOM     12  C   UNL     1       2.839   1.990  18.151  0.00  0.00    +0.000 C 
ENDBRANCH   5   7
BRANCH   1  13
ATOM     13  C   UNL     1       7.883   5.108  18.324  0.00  0.00    +0.000 C 
BRANCH  13  14
ATOM     14  C   UNL     1       7.710   6.567  18.716  0.00  0.00    +0.000 C 
BRANCH  14  15
ATOM     15  C   UNL     1       7.726   7.462  17.485  0.00  0.00    +0.000 C 
BRANCH  15  17
ATOM     16  C   UNL     1       8.996   9.460  18.267  0.00  0.00    +0.000 C 
ATOM     17  C   UNL     1       7.832   8.897  17.900  0.00  0.00    +0.000 C 
BRANCH  16  18
ATOM     18  C   UNL     1       9.104  10.900  18.676  0.00  0.00    +0.000 C 
BRANCH  18  19
ATOM     19  C   UNL     1      10.551  11.376  18.604  0.00  0.00    +0.000 C 
BRANCH  19  20
ATOM     20  C   UNL     1      11.060  11.774  19.988  0.00  0.00    +0.000 C 
BRANCH  20  22
ATOM     21  C   UNL     1       9.769  13.233  21.571  0.00  0.00    +0.000 C 
ATOM     22  C   UNL     1       9.914  11.838  20.993  0.00  0.00    +0.000 C 
ENDBRANCH  20  22
ENDBRANCH  19  20
ENDBRANCH  18  19
ENDBRANCH  16  18
ENDBRANCH  15  17
ENDBRANCH  14  15
ENDBRANCH  13  14
ENDBRANCH   1  13
TORSDOF 9
ENDMDL
MODEL 6
REMARK VINA RESULT:      -6.8      4.482      7.614
REMARK  Name = 
REMARK  11 active torsions:
REMARK  status: ('A' for Active; 'I' for Inactive)
REMARK    1  A    between atoms: C_1  and  C_2
REMARK    2  A    between atoms: C_2  and  C_3
REMARK    3  A    between atoms: C_3  and  C_4
REMARK    4  A    between atoms: C_4  and  C_5
REMARK    5  A    between atoms: C_5  and  C_6
REMARK    6  A    between atoms: C_7  and  C_8
REMARK    7  A    between atoms: C_8  and  C_9
REMARK    8  A    between atoms: C_9  and  C_10
REMARK    9  A    between atoms: C_10  and  N_11
REMARK   10  A    between atoms: C_15  and  C_16
REMARK   11  A    between atoms: N_20  and  C_21
REMARK                            x       y       z     vdW  Elec       q    Type
REMARK                         _______ _______ _______ _____ _____    ______ ____
ROOT
ATOM      1  N   UNL     1       3.920   6.243  17.270  0.00  0.00    +0.000 N 
ATOM      2  C   UNL     1       4.858   5.867  16.370  0.00  0.00    +0.000 A 
ATOM      3  C   UNL     1       5.187   4.530  16.215  0.00  0.00    +0.000 A 
ATOM      4  C   UNL     1       4.508   3.579  16.953  0.00  0.00    +0.000 A 
ATOM      5  C   UNL     1       3.474   3.954  17.813  0.00  0.00    +0.000 A 
ATOM      6  C   UNL     1       3.234   5.326  17.983  0.00  0.00    +0.000 A 
ENDROOT
BRANCH   5   7
ATOM      7  C   UNL     1       2.538   2.953  18.469  0.00  0.00    +0.000 C 
ATOM      8  C   UNL     1       1.101   3.448  18.658  0.00  0.00    +0.000 C 
ATOM      9  C   UNL     1       1.036   4.004  20.081  0.00  0.00    +0.000 C 
ATOM     10  C   UNL     1       2.342   3.592  20.750  0.00  0.00    +0.000 C 
ATOM     11  N   UNL     1       2.909   2.594  19.843  0.00  0.00    +0.000 NA
ATOM     12  C   UNL     1       4.302   2.285  20.111  0.00  0.00    +0.000 C 
ENDBRANCH   5   7
BRANCH   1  13
ATOM     13  C   UNL     1       3.638   7.687  17.454  0.00  0.00    +0.000 C 
BRANCH  13  14
ATOM     14  C   UNL     1       2.224   7.848  17.989  0.00  0.00    +0.000 C 
BRANCH  14  15
ATOM     15  C   UNL     1       1.844   9.320  18.079  0.00  0.00    +0.000 C 
BRANCH  15  17
ATOM     16  C   UNL     1      -0.253  10.619  18.442  0.00  0.00    +0.000 C 
ATOM     17  C   UNL     1       0.355   9.458  18.142  0.00  0.00    +0.000 C 
BRANCH  16  18
ATOM     18  C   UNL     1      -1.746  10.759  18.497  0.00  0.00    +0.000 C 
BRANCH  18  19
ATOM     19  C   UNL     1      -2.406   9.965  17.374  0.00  0.00    +0.000 C 
BRANCH  19  20
ATOM     20  C   UNL     1      -2.484  10.797  16.096  0.00  0.00    +0.000 C 
BRANCH  20  22
ATOM     21  C   UNL     1      -3.550   9.971  13.978  0.00  0.00    +0.000 C 
ATOM     22  C   UNL     1      -3.797  10.546  15.361  0.00  0.00    +0.000 C 
ENDBRANCH  20  22
ENDBRANCH  19  20
ENDBRANCH  18  19
ENDBRANCH  16  18
ENDBRANCH  15  17
ENDBRANCH  14  15
ENDBRANCH  13  14
ENDBRANCH   1  13
TORSDOF 9
ENDMDL
MODEL 7
REMARK VINA RESULT:      -6.7      4.089      7.573
REMARK  Name = 
REMARK  11 active torsions:
REMARK  status: ('A' for Active; 'I' for Inactive)
REMARK    1  A    between atoms: C_1  and  C_2
REMARK    2  A    between atoms: C_2  and  C_3
REMARK    3  A    between atoms: C_3  and  C_4
REMARK    4  A    between atoms: C_4  and  C_5
REMARK    5  A    between atoms: C_5  and  C_6
REMARK    6  A    between atoms: C_7  and  C_8
REMARK    7  A    between atoms: C_8  and  C_9
REMARK    8  A    between atoms: C_9  and  C_10
REMARK    9  A    between atoms: C_10  and  N_11
REMARK   10  A    between atoms: C_15  and  C_16
REMARK   11  A    between atoms: N_20  and  C_21
REMARK                            x       y       z     vdW  Elec       q    Type
REMARK                         _______ _______ _______ _____ _____    ______ ____
ROOT
ATOM      1  N   UNL     1       5.062   5.877  17.196  0.00  0.00    +0.000 N 
ATOM      2  C   UNL     1       6.024   5.665  18.124  0.00  0.00    +0.000 A 
ATOM      3  C   UNL     1       5.692   5.203  19.388  0.00  0.00    +0.000 A 
ATOM      4  C   UNL     1       4.372   4.911  19.672  0.00  0.00    +0.000 A 
ATOM      5  C   UNL     1       3.388   5.038  18.689  0.00  0.00    +0.000 A 
ATOM      6  C   UNL     1       3.771   5.578  17.452  0.00  0.00    +0.000 A 
ENDROOT
BRANCH   5   7
ATOM      7  C   UNL     1       1.973   4.515  18.861  0.00  0.00    +0.000 C 
ATOM      8  C   UNL     1       1.381   4.714  20.260  0.00  0.00    +0.000 C 
ATOM      9  C   UNL     1       1.645   3.410  21.013  0.00  0.00    +0.000 C 
ATOM     10  C   UNL     1       2.146   2.420  19.968  0.00  0.00    +0.000 C 
ATOM     11  N   UNL     1       1.843   3.063  18.690  0.00  0.00    +0.000 NA
ATOM     12  C   UNL     1       2.508   2.451  17.555  0.00  0.00    +0.000 C 
ENDBRANCH   5   7
BRANCH   1  13
ATOM     13  C   UNL     1       5.445   6.431  15.875  0.00  0.00    +0.000 C 
BRANCH  13  14
ATOM     14  C   UNL     1       6.397   5.463  15.192  0.00  0.00    +0.000 C 
BRANCH  14  15
ATOM     15  C   UNL     1       5.753   4.092  15.036  0.00  0.00    +0.000 C 
BRANCH  15  17
ATOM     16  C   UNL     1       4.648   3.758  12.827  0.00  0.00    +0.000 C 
ATOM     17  C   UNL     1       5.750   3.692  13.593  0.00  0.00    +0.000 C 
BRANCH  16  18
ATOM     18  C   UNL     1       4.646   3.366  11.379  0.00  0.00    +0.000 C 
BRANCH  18  19
ATOM     19  C   UNL     1       3.319   2.718  10.995  0.00  0.00    +0.000 C 
BRANCH  19  20
ATOM     20  C   UNL     1       2.933   3.083   9.563  0.00  0.00    +0.000 C 
BRANCH  20  22
ATOM     21  C   UNL     1       1.931   5.273   8.856  0.00  0.00    +0.000 C 
ATOM     22  C   UNL     1       3.200   4.559   9.284  0.00  0.00    +0.000 C 
ENDBRANCH  20  22
ENDBRANCH  19  20
ENDBRANCH  18  19
ENDBRANCH  16  18
ENDBRANCH  15  17
ENDBRANCH  14  15
ENDBRANCH  13  14
ENDBRANCH   1  13
TORSDOF 9
ENDMDL
MODEL 8
REMARK VINA RESULT:      -6.7      4.378      7.156
REMARK  Name = 
REMARK  11 active torsions:
REMARK  status: ('A' for Active; 'I' for Inactive)
REMARK    1  A    between atoms: C_1  and  C_2
REMARK    2  A    between atoms: C_2  and  C_3
REMARK    3  A    between atoms: C_3  and  C_4
REMARK    4  A    between atoms: C_4  and  C_5
REMARK    5  A    between atoms: C_5  and  C_6
REMARK    6  A    between atoms: C_7  and  C_8
REMARK    7  A    between atoms: C_8  and  C_9
REMARK    8  A    between atoms: C_9  and  C_10
REMARK    9  A    between atoms: C_10  and  N_11
REMARK   10  A    between atoms: C_15  and  C_16
REMARK   11  A    between atoms: N_20  and  C_21
REMARK                            x       y       z     vdW  Elec       q    Type
REMARK                         _______ _______ _______ _____ _____    ______ ____
ROOT
ATOM      1  N   UNL     1       3.009   6.593  18.734  0.00  0.00    +0.000 N 
ATOM      2  C   UNL     1       2.305   7.273  19.668  0.00  0.00    +0.000 A 
ATOM      3  C   UNL     1       1.586   6.595  20.639  0.00  0.00    +0.000 A 
ATOM      4  C   UNL     1       1.640   5.215  20.675  0.00  0.00    +0.000 A 
ATOM      5  C   UNL     1       2.441   4.511  19.773  0.00  0.00    +0.000 A 
ATOM      6  C   UNL     1       3.088   5.246  18.768  0.00  0.00    +0.000 A 
ENDROOT
BRANCH   5   7
ATOM      7  C   UNL     1       2.730   3.026  19.904  0.00  0.00    +0.000 C 
ATOM      8  C   UNL     1       4.161   2.617  19.545  0.00  0.00    +0.000 C 
ATOM      9  C   UNL     1       4.114   2.183  18.080  0.00  0.00    +0.000 C 
ATOM     10  C   UNL     1       2.637   2.113  17.712  0.00  0.00    +0.000 C 
ATOM     11  N   UNL     1       1.945   2.178  18.999  0.00  0.00    +0.000 NA
ATOM     12  C   UNL     1       0.522   2.442  18.885  0.00  0.00    +0.000 C 
ENDBRANCH   5   7
BRANCH   1  13
ATOM     13  C   UNL     1       3.715   7.349  17.672  0.00  0.00    +0.000 C 
BRANCH  13  14
ATOM     14  C   UNL     1       4.910   6.536  17.200  0.00  0.00    +0.000 C 
BRANCH  14  15
ATOM     15  C   UNL     1       4.968   6.496  15.678  0.00  0.00    +0.000 C 
BRANCH  15  17
ATOM     16  C   UNL     1       5.802   4.923  13.932  0.00  0.00    +0.000 C 
ATOM     17  C   UNL     1       5.661   5.247  15.229  0.00  0.00    +0.000 C 
BRANCH  16  18
ATOM     18  C   UNL     1       6.503   3.676  13.481  0.00  0.00    +0.000 C 
BRANCH  18  19
ATOM     19  C   UNL     1       6.349   3.483  11.976  0.00  0.00    +0.000 C 
BRANCH  19  20
ATOM     20  C   UNL     1       5.655   2.158  11.668  0.00  0.00    +0.000 C 
BRANCH  20  22
ATOM     21  C   UNL     1       6.147  -0.273  11.279  0.00  0.00    +0.000 C 
ATOM     22  C   UNL     1       6.639   1.149  11.082  0.00  0.00    +0.000 C 
ENDBRANCH  20  22
ENDBRANCH  19  20
ENDBRANCH  18  19
ENDBRANCH  16  18
ENDBRANCH  15  17
ENDBRANCH  14  15
ENDBRANCH  13  14
ENDBRANCH   1  13
TORSDOF 9
ENDMDL
MODEL 9
REMARK VINA RESULT:      -6.7      1.326      2.337
REMARK  Name = 
REMARK  11 active torsions:
REMARK  status: ('A' for Active; 'I' for Inactive)
REMARK    1  A    between atoms: C_1  and  C_2
REMARK    2  A    between atoms: C_2  and  C_3
REMARK    3  A    between atoms: C_3  and  C_4
REMARK    4  A    between atoms: C_4  and  C_5
REMARK    5  A    between atoms: C_5  and  C_6
REMARK    6  A    between atoms: C_7  and  C_8
REMARK    7  A    between atoms: C_8  and  C_9
REMARK    8  A    between atoms: C_9  and  C_10
REMARK    9  A    between atoms: C_10  and  N_11
REMARK   10  A    between atoms: C_15  and  C_16
REMARK   11  A    between atoms: N_20  and  C_21
REMARK                            x       y       z     vdW  Elec       q    Type
REMARK                         _______ _______ _______ _____ _____    ______ ____
ROOT
ATOM      1  N   UNL     1       6.690   4.650  17.327  0.00  0.00    +0.000 N 
ATOM      2  C   UNL     1       6.966   4.593  16.004  0.00  0.00    +0.000 A 
ATOM      3  C   UNL     1       5.986   4.222  15.097  0.00  0.00    +0.000 A 
ATOM      4  C   UNL     1       4.709   3.961  15.555  0.00  0.00    +0.000 A 
ATOM      5  C   UNL     1       4.395   4.111  16.907  0.00  0.00    +0.000 A 
ATOM      6  C   UNL     1       5.443   4.419  17.788  0.00  0.00    +0.000 A 
ENDROOT
BRANCH   5   7
ATOM      7  C   UNL     1       2.972   4.071  17.437  0.00  0.00    +0.000 C 
ATOM      8  C   UNL     1       2.487   5.378  18.071  0.00  0.00    +0.000 C 
ATOM      9  C   UNL     1       2.742   5.231  19.572  0.00  0.00    +0.000 C 
ATOM     10  C   UNL     1       3.124   3.771  19.789  0.00  0.00    +0.000 C 
ATOM     11  N   UNL     1       2.764   3.116  18.532  0.00  0.00    +0.000 NA
ATOM     12  C   UNL     1       3.321   1.784  18.386  0.00  0.00    +0.000 C 
ENDBRANCH   5   7
BRANCH   1  13
ATOM     13  C   UNL     1       7.777   4.991  18.276  0.00  0.00    +0.000 C 
BRANCH  13  14
ATOM     14  C   UNL     1       7.685   6.468  18.622  0.00  0.00    +0.000 C 
BRANCH  14  15
ATOM     15  C   UNL     1       7.480   7.306  17.366  0.00  0.00    +0.000 C 
BRANCH  15  17
ATOM     16  C   UNL     1       8.491   9.134  18.727  0.00  0.00    +0.000 C 
ATOM     17  C   UNL     1       8.152   8.634  17.526  0.00  0.00    +0.000 C 
BRANCH  16  18
ATOM     18  C   UNL     1       9.172  10.462  18.886  0.00  0.00    +0.000 C 
BRANCH  18  19
ATOM     19  C   UNL     1       9.712  10.626  20.304  0.00  0.00    +0.000 C 
BRANCH  19  20
ATOM     20  C   UNL     1      10.522  11.914  20.428  0.00  0.00    +0.000 C 
BRANCH  20  22
ATOM     21  C   UNL     1      12.332  13.230  19.291  0.00  0.00    +0.000 C 
ATOM     22  C   UNL     1      11.794  11.843  19.588  0.00  0.00    +0.000 C 
ENDBRANCH  20  22
ENDBRANCH  19  20
ENDBRANCH  18  19
ENDBRANCH  16  18
ENDBRANCH  15  17
ENDBRANCH  14  15
ENDBRANCH  13  14
ENDBRANCH   1  13
TORSDOF 9
ENDMDL
