MODEL 1
REMARK VINA RESULT:      -6.6      0.000      0.000
REMARK  Name = 
REMARK  7 active torsions:
REMARK  status: ('A' for Active; 'I' for Inactive)
REMARK    1  A    between atoms: C_1  and  C_2
REMARK    2  A    between atoms: C_2  and  O_3
REMARK    3  A    between atoms: C_2  and  C_4
REMARK    4  A    between atoms: C_8  and  C_9
REMARK    5  A    between atoms: C_9  and  C_10
REMARK    6  A    between atoms: C_9  and  C_11
REMARK    7  A    between atoms: C_11  and  O_13
REMARK                            x       y       z     vdW  Elec       q    Type
REMARK                         _______ _______ _______ _____ _____    ______ ____
ROOT
ATOM      1  C   UNL     1       5.508   4.958  15.922  0.00  0.00    +0.000 A 
ATOM      2  C   UNL     1       5.314   6.338  16.065  0.00  0.00    +0.000 A 
ATOM      3  C   UNL     1       4.408   6.838  17.002  0.00  0.00    +0.000 A 
ATOM      4  C   UNL     1       3.690   5.969  17.821  0.00  0.00    +0.000 A 
ATOM      5  C   UNL     1       3.838   4.582  17.687  0.00  0.00    +0.000 A 
ATOM      6  C   UNL     1       4.743   4.092  16.727  0.00  0.00    +0.000 A 
ENDROOT
BRANCH   1   8
ATOM      7  C   UNL     1       6.004   3.885  13.673  0.00  0.00    +0.000 C 
ATOM      8  C   UNL     1       6.569   4.383  14.999  0.00  0.00    +0.000 C 
BRANCH   8   9
ATOM      9  O   UNL     1       7.604   5.327  14.724  0.00  0.00    +0.000 OA
ATOM     10  H   UNL     1       8.450   4.906  14.950  0.00  0.00    +0.000 HD
ENDBRANCH   8   9
ENDBRANCH   1   8
BRANCH   5  11
ATOM     11  C   UNL     1       3.136   3.606  18.622  0.00  0.00    +0.000 C 
ATOM     12  C   UNL     1       1.729   3.305  18.098  0.00  0.00    +0.000 C 
BRANCH  11  13
ATOM     13  C   UNL     1       3.907   2.310  18.878  0.00  0.00    +0.000 C 
ATOM     14  O   UNL     1       3.600   1.212  18.432  0.00  0.00    +0.000 OA
BRANCH  13  15
ATOM     15  O   UNL     1       4.972   2.472  19.698  0.00  0.00    +0.000 OA
ATOM     16  H   UNL     1       5.574   3.186  19.417  0.00  0.00    +0.000 HD
ENDBRANCH  13  15
ENDBRANCH  11  13
ENDBRANCH   5  11
TORSDOF 5
ENDMDL
MODEL 2
REMARK VINA RESULT:      -6.6      1.759      4.883
REMARK  Name = 
REMARK  7 active torsions:
REMARK  status: ('A' for Active; 'I' for Inactive)
REMARK    1  A    between atoms: C_1  and  C_2
REMARK    2  A    between atoms: C_2  and  O_3
REMARK    3  A    between atoms: C_2  and  C_4
REMARK    4  A    between atoms: C_8  and  C_9
REMARK    5  A    between atoms: C_9  and  C_10
REMARK    6  A    between atoms: C_9  and  C_11
REMARK    7  A    between atoms: C_11  and  O_13
REMARK                            x       y       z     vdW  Elec       q    Type
REMARK                         _______ _______ _______ _____ _____    ______ ____
ROOT
ATOM      1  C   UNL     1       2.736   4.257  18.489  0.00  0.00    +0.000 A 
ATOM      2  C   UNL     1       2.470   5.632  18.538  0.00  0.00    +0.000 A 
ATOM      3  C   UNL     1       3.292   6.542  17.871  0.00  0.00    +0.000 A 
ATOM      4  C   UNL     1       4.386   6.094  17.134  0.00  0.00    +0.000 A 
ATOM      5  C   UNL     1       4.698   4.729  17.084  0.00  0.00    +0.000 A 
ATOM      6  C   UNL     1       3.870   3.825  17.774  0.00  0.00    +0.000 A 
ENDROOT
BRANCH   1   8
ATOM      7  C   UNL     1       1.045   3.758  20.318  0.00  0.00    +0.000 C 
ATOM      8  C   UNL     1       1.798   3.231  19.101  0.00  0.00    +0.000 C 
BRANCH   8   9
ATOM      9  O   UNL     1       0.845   2.748  18.153  0.00  0.00    +0.000 OA
ATOM     10  H   UNL     1       1.341   2.328  17.431  0.00  0.00    +0.000 HD
ENDBRANCH   8   9
ENDBRANCH   1   8
BRANCH   5  11
ATOM     11  C   UNL     1       5.833   4.196  16.219  0.00  0.00    +0.000 C 
ATOM     12  C   UNL     1       5.442   4.280  14.741  0.00  0.00    +0.000 C 
BRANCH  11  13
ATOM     13  C   UNL     1       7.184   4.871  16.461  0.00  0.00    +0.000 C 
ATOM     14  O   UNL     1       7.521   5.950  15.994  0.00  0.00    +0.000 OA
BRANCH  13  15
ATOM     15  O   UNL     1       8.022   4.133  17.227  0.00  0.00    +0.000 OA
ATOM     16  H   UNL     1       8.671   3.620  16.710  0.00  0.00    +0.000 HD
ENDBRANCH  13  15
ENDBRANCH  11  13
ENDBRANCH   5  11
TORSDOF 5
ENDMDL
MODEL 3
REMARK VINA RESULT:      -6.4      1.163      1.624
REMARK  Name = 
REMARK  7 active torsions:
REMARK  status: ('A' for Active; 'I' for Inactive)
REMARK    1  A    between atoms: C_1  and  C_2
REMARK    2  A    between atoms: C_2  and  O_3
REMARK    3  A    between atoms: C_2  and  C_4
REMARK    4  A    between atoms: C_8  and  C_9
REMARK    5  A    between atoms: C_9  and  C_10
REMARK    6  A    between atoms: C_9  and  C_11
REMARK    7  A    between atoms: C_11  and  O_13
REMARK                            x       y       z     vdW  Elec       q    Type
REMARK                         _______ _______ _______ _____ _____    ______ ____
ROOT
ATOM      1  C   UNL     1       5.522   4.894  15.844  0.00  0.00    +0.000 A 
ATOM      2  C   UNL     1       5.303   6.270  15.989  0.00  0.00    +0.000 A 
ATOM      3  C   UNL     1       4.412   6.753  16.949  0.00  0.00    +0.000 A 
ATOM      4  C   UNL     1       3.735   5.871  17.789  0.00  0.00    +0.000 A 
ATOM      5  C   UNL     1       3.908   4.488  17.654  0.00  0.00    +0.000 A 
ATOM      6  C   UNL     1       4.798   4.014  16.672  0.00  0.00    +0.000 A 
ENDROOT
BRANCH   1   8
ATOM      7  C   UNL     1       5.983   3.840  13.578  0.00  0.00    +0.000 C 
ATOM      8  C   UNL     1       6.570   4.339  14.894  0.00  0.00    +0.000 C 
BRANCH   8   9
ATOM      9  O   UNL     1       7.585   5.300  14.601  0.00  0.00    +0.000 OA
ATOM     10  H   UNL     1       7.154   6.168  14.537  0.00  0.00    +0.000 HD
ENDBRANCH   8   9
ENDBRANCH   1   8
BRANCH   5  11
ATOM     11  C   UNL     1       3.253   3.499  18.611  0.00  0.00    +0.000 C 
ATOM     12  C   UNL     1       3.096   4.140  19.992  0.00  0.00    +0.000 C 
BRANCH  11  13
ATOM     13  C   UNL     1       1.919   2.935  18.120  0.00  0.00    +0.000 C 
ATOM     14  O   UNL     1       1.032   3.592  17.592  0.00  0.00    +0.000 OA
BRANCH  13  15
ATOM     15  O   UNL     1       1.776   1.611  18.361  0.00  0.00    +0.000 OA
ATOM     16  H   UNL     1       1.120   1.179  17.782  0.00  0.00    +0.000 HD
ENDBRANCH  13  15
ENDBRANCH  11  13
ENDBRANCH   5  11
TORSDOF 5
ENDMDL
MODEL 4
REMARK VINA RESULT:      -6.3      2.418      5.067
REMARK  Name = 
REMARK  7 active torsions:
REMARK  status: ('A' for Active; 'I' for Inactive)
REMARK    1  A    between atoms: C_1  and  C_2
REMARK    2  A    between atoms: C_2  and  O_3
REMARK    3  A    between atoms: C_2  and  C_4
REMARK    4  A    between atoms: C_8  and  C_9
REMARK    5  A    between atoms: C_9  and  C_10
REMARK    6  A    between atoms: C_9  and  C_11
REMARK    7  A    between atoms: C_11  and  O_13
REMARK                            x       y       z     vdW  Elec       q    Type
REMARK                         _______ _______ _______ _____ _____    ______ ____
ROOT
ATOM      1  C   UNL     1       3.199   3.733  19.055  0.00  0.00    +0.000 A 
ATOM      2  C   UNL     1       2.526   4.833  18.509  0.00  0.00    +0.000 A 
ATOM      3  C   UNL     1       3.235   5.892  17.939  0.00  0.00    +0.000 A 
ATOM      4  C   UNL     1       4.628   5.864  17.894  0.00  0.00    +0.000 A 
ATOM      5  C   UNL     1       5.335   4.793  18.454  0.00  0.00    +0.000 A 
ATOM      6  C   UNL     1       4.607   3.740  19.040  0.00  0.00    +0.000 A 
ENDROOT
BRANCH   1   8
ATOM      7  C   UNL     1       1.323   2.859  20.530  0.00  0.00    +0.000 C 
ATOM      8  C   UNL     1       2.460   2.511  19.575  0.00  0.00    +0.000 C 
BRANCH   8   9
ATOM      9  O   UNL     1       1.931   1.717  18.513  0.00  0.00    +0.000 OA
ATOM     10  H   UNL     1       2.142   2.169  17.679  0.00  0.00    +0.000 HD
ENDBRANCH   8   9
ENDBRANCH   1   8
BRANCH   5  11
ATOM     11  C   UNL     1       6.851   4.686  18.346  0.00  0.00    +0.000 C 
ATOM     12  C   UNL     1       7.264   4.654  16.872  0.00  0.00    +0.000 C 
BRANCH  11  13
ATOM     13  C   UNL     1       7.616   5.774  19.099  0.00  0.00    +0.000 C 
ATOM     14  O   UNL     1       8.017   6.820  18.605  0.00  0.00    +0.000 OA
BRANCH  13  15
ATOM     15  O   UNL     1       7.860   5.460  20.393  0.00  0.00    +0.000 OA
ATOM     16  H   UNL     1       8.507   4.738  20.503  0.00  0.00    +0.000 HD
ENDBRANCH  13  15
ENDBRANCH  11  13
ENDBRANCH   5  11
TORSDOF 5
ENDMDL
MODEL 5
REMARK VINA RESULT:      -6.3      2.520      3.265
REMARK  Name = 
REMARK  7 active torsions:
REMARK  status: ('A' for Active; 'I' for Inactive)
REMARK    1  A    between atoms: C_1  and  C_2
REMARK    2  A    between atoms: C_2  and  O_3
REMARK    3  A    between atoms: C_2  and  C_4
REMARK    4  A    between atoms: C_8  and  C_9
REMARK    5  A    between atoms: C_9  and  C_10
REMARK    6  A    between atoms: C_9  and  C_11
REMARK    7  A    between atoms: C_11  and  O_13
REMARK                            x       y       z     vdW  Elec       q    Type
REMARK                         _______ _______ _______ _____ _____    ______ ____
ROOT
ATOM      1  C   UNL     1       5.657   4.571  17.987  0.00  0.00    +0.000 A 
ATOM      2  C   UNL     1       4.985   4.010  16.893  0.00  0.00    +0.000 A 
ATOM      3  C   UNL     1       3.653   3.608  17.004  0.00  0.00    +0.000 A 
ATOM      4  C   UNL     1       2.966   3.770  18.206  0.00  0.00    +0.000 A 
ATOM      5  C   UNL     1       3.614   4.301  19.328  0.00  0.00    +0.000 A 
ATOM      6  C   UNL     1       4.961   4.688  19.206  0.00  0.00    +0.000 A 
ENDROOT
BRANCH   1   8
ATOM      7  C   UNL     1       7.603   5.682  19.186  0.00  0.00    +0.000 C 
ATOM      8  C   UNL     1       7.065   5.128  17.870  0.00  0.00    +0.000 C 
BRANCH   8   9
ATOM      9  O   UNL     1       7.986   4.153  17.380  0.00  0.00    +0.000 OA
ATOM     10  H   UNL     1       8.756   4.157  17.972  0.00  0.00    +0.000 HD
ENDBRANCH   8   9
ENDBRANCH   1   8
BRANCH   5  11
ATOM     11  C   UNL     1       2.871   4.574  20.630  0.00  0.00    +0.000 C 
ATOM     12  C   UNL     1       1.839   5.684  20.417  0.00  0.00    +0.000 C 
BRANCH  11  13
ATOM     13  C   UNL     1       2.218   3.340  21.255  0.00  0.00    +0.000 C 
ATOM     14  O   UNL     1       2.801   2.508  21.937  0.00  0.00    +0.000 OA
BRANCH  13  15
ATOM     15  O   UNL     1       0.905   3.215  20.949  0.00  0.00    +0.000 OA
ATOM     16  H   UNL     1       0.312   3.617  21.611  0.00  0.00    +0.000 HD
ENDBRANCH  13  15
ENDBRANCH  11  13
ENDBRANCH   5  11
TORSDOF 5
ENDMDL
MODEL 6
REMARK VINA RESULT:      -6.2      1.561      1.962
REMARK  Name = 
REMARK  7 active torsions:
REMARK  status: ('A' for Active; 'I' for Inactive)
REMARK    1  A    between atoms: C_1  and  C_2
REMARK    2  A    between atoms: C_2  and  O_3
REMARK    3  A    between atoms: C_2  and  C_4
REMARK    4  A    between atoms: C_8  and  C_9
REMARK    5  A    between atoms: C_9  and  C_10
REMARK    6  A    between atoms: C_9  and  C_11
REMARK    7  A    between atoms: C_11  and  O_13
REMARK                            x       y       z     vdW  Elec       q    Type
REMARK                         _______ _______ _______ _____ _____    ______ ____
ROOT
ATOM      1  C   UNL     1       5.624   4.950  15.749  0.00  0.00    +0.000 A 
ATOM      2  C   UNL     1       5.495   6.314  16.042  0.00  0.00    +0.000 A 
ATOM      3  C   UNL     1       4.579   6.755  16.999  0.00  0.00    +0.000 A 
ATOM      4  C   UNL     1       3.785   5.841  17.688  0.00  0.00    +0.000 A 
ATOM      5  C   UNL     1       3.867   4.472  17.403  0.00  0.00    +0.000 A 
ATOM      6  C   UNL     1       4.784   4.043  16.425  0.00  0.00    +0.000 A 
ENDROOT
BRANCH   1   8
ATOM      7  C   UNL     1       6.116   3.852  13.512  0.00  0.00    +0.000 C 
ATOM      8  C   UNL     1       6.690   4.424  14.804  0.00  0.00    +0.000 C 
BRANCH   8   9
ATOM      9  O   UNL     1       7.646   5.430  14.467  0.00  0.00    +0.000 OA
ATOM     10  H   UNL     1       7.620   6.101  15.169  0.00  0.00    +0.000 HD
ENDBRANCH   8   9
ENDBRANCH   1   8
BRANCH   5  11
ATOM     11  C   UNL     1       3.080   3.437  18.197  0.00  0.00    +0.000 C 
ATOM     12  C   UNL     1       3.778   3.166  19.532  0.00  0.00    +0.000 C 
BRANCH  11  13
ATOM     13  C   UNL     1       1.609   3.795  18.417  0.00  0.00    +0.000 C 
ATOM     14  O   UNL     1       1.057   3.849  19.507  0.00  0.00    +0.000 OA
BRANCH  13  15
ATOM     15  O   UNL     1       0.933   4.016  17.265  0.00  0.00    +0.000 OA
ATOM     16  H   UNL     1       0.020   4.329  17.404  0.00  0.00    +0.000 HD
ENDBRANCH  13  15
ENDBRANCH  11  13
ENDBRANCH   5  11
TORSDOF 5
ENDMDL
MODEL 7
REMARK VINA RESULT:      -6.2      2.127      4.794
REMARK  Name = 
REMARK  7 active torsions:
REMARK  status: ('A' for Active; 'I' for Inactive)
REMARK    1  A    between atoms: C_1  and  C_2
REMARK    2  A    between atoms: C_2  and  O_3
REMARK    3  A    between atoms: C_2  and  C_4
REMARK    4  A    between atoms: C_8  and  C_9
REMARK    5  A    between atoms: C_9  and  C_10
REMARK    6  A    between atoms: C_9  and  C_11
REMARK    7  A    between atoms: C_11  and  O_13
REMARK                            x       y       z     vdW  Elec       q    Type
REMARK                         _______ _______ _______ _____ _____    ______ ____
ROOT
ATOM      1  C   UNL     1       3.081   5.902  18.052  0.00  0.00    +0.000 A 
ATOM      2  C   UNL     1       2.153   4.872  18.258  0.00  0.00    +0.000 A 
ATOM      3  C   UNL     1       2.383   3.593  17.751  0.00  0.00    +0.000 A 
ATOM      4  C   UNL     1       3.548   3.316  17.039  0.00  0.00    +0.000 A 
ATOM      5  C   UNL     1       4.485   4.327  16.790  0.00  0.00    +0.000 A 
ATOM      6  C   UNL     1       4.233   5.616  17.294  0.00  0.00    +0.000 A 
ENDROOT
BRANCH   1   8
ATOM      7  C   UNL     1       2.078   8.228  17.853  0.00  0.00    +0.000 C 
ATOM      8  C   UNL     1       2.922   7.272  18.689  0.00  0.00    +0.000 C 
BRANCH   8   9
ATOM      9  O   UNL     1       2.353   7.189  19.996  0.00  0.00    +0.000 OA
ATOM     10  H   UNL     1       2.857   7.786  20.571  0.00  0.00    +0.000 HD
ENDBRANCH   8   9
ENDBRANCH   1   8
BRANCH   5  11
ATOM     11  C   UNL     1       5.809   4.041  16.092  0.00  0.00    +0.000 C 
ATOM     12  C   UNL     1       5.693   4.371  14.602  0.00  0.00    +0.000 C 
BRANCH  11  13
ATOM     13  C   UNL     1       7.015   4.748  16.711  0.00  0.00    +0.000 C 
ATOM     14  O   UNL     1       7.520   4.460  17.788  0.00  0.00    +0.000 OA
BRANCH  13  15
ATOM     15  O   UNL     1       7.472   5.782  15.965  0.00  0.00    +0.000 OA
ATOM     16  H   UNL     1       8.242   5.553  15.413  0.00  0.00    +0.000 HD
ENDBRANCH  13  15
ENDBRANCH  11  13
ENDBRANCH   5  11
TORSDOF 5
ENDMDL
MODEL 8
REMARK VINA RESULT:      -6.2      1.646      4.705
REMARK  Name = 
REMARK  7 active torsions:
REMARK  status: ('A' for Active; 'I' for Inactive)
REMARK    1  A    between atoms: C_1  and  C_2
REMARK    2  A    between atoms: C_2  and  O_3
REMARK    3  A    between atoms: C_2  and  C_4
REMARK    4  A    between atoms: C_8  and  C_9
REMARK    5  A    between atoms: C_9  and  C_10
REMARK    6  A    between atoms: C_9  and  C_11
REMARK    7  A    between atoms: C_11  and  O_13
REMARK                            x       y       z     vdW  Elec       q    Type
REMARK                         _______ _______ _______ _____ _____    ______ ____
ROOT
ATOM      1  C   UNL     1       3.928   3.897  19.005  0.00  0.00    +0.000 A 
ATOM      2  C   UNL     1       2.761   4.645  18.803  0.00  0.00    +0.000 A 
ATOM      3  C   UNL     1       2.812   5.897  18.189  0.00  0.00    +0.000 A 
ATOM      4  C   UNL     1       4.029   6.418  17.754  0.00  0.00    +0.000 A 
ATOM      5  C   UNL     1       5.220   5.712  17.963  0.00  0.00    +0.000 A 
ATOM      6  C   UNL     1       5.155   4.458  18.598  0.00  0.00    +0.000 A 
ENDROOT
BRANCH   1   8
ATOM      7  C   UNL     1       3.395   1.455  18.553  0.00  0.00    +0.000 C 
ATOM      8  C   UNL     1       3.896   2.484  19.561  0.00  0.00    +0.000 C 
BRANCH   8   9
ATOM      9  O   UNL     1       5.178   2.068  20.033  0.00  0.00    +0.000 OA
ATOM     10  H   UNL     1       5.785   2.818  19.924  0.00  0.00    +0.000 HD
ENDBRANCH   8   9
ENDBRANCH   1   8
BRANCH   5  11
ATOM     11  C   UNL     1       6.555   6.210  17.424  0.00  0.00    +0.000 C 
ATOM     12  C   UNL     1       7.615   6.151  18.528  0.00  0.00    +0.000 C 
BRANCH  11  13
ATOM     13  C   UNL     1       7.040   5.484  16.169  0.00  0.00    +0.000 C 
ATOM     14  O   UNL     1       6.665   5.726  15.030  0.00  0.00    +0.000 OA
BRANCH  13  15
ATOM     15  O   UNL     1       7.920   4.489  16.431  0.00  0.00    +0.000 OA
ATOM     16  H   UNL     1       8.852   4.775  16.403  0.00  0.00    +0.000 HD
ENDBRANCH  13  15
ENDBRANCH  11  13
ENDBRANCH   5  11
TORSDOF 5
ENDMDL
MODEL 9
REMARK VINA RESULT:      -6.2      1.695      1.949
REMARK  Name = 
REMARK  7 active torsions:
REMARK  status: ('A' for Active; 'I' for Inactive)
REMARK    1  A    between atoms: C_1  and  C_2
REMARK    2  A    between atoms: C_2  and  O_3
REMARK    3  A    between atoms: C_2  and  C_4
REMARK    4  A    between atoms: C_8  and  C_9
REMARK    5  A    between atoms: C_9  and  C_10
REMARK    6  A    between atoms: C_9  and  C_11
REMARK    7  A    between atoms: C_11  and  O_13
REMARK                            x       y       z     vdW  Elec       q    Type
REMARK                         _______ _______ _______ _____ _____    ______ ____
ROOT
ATOM      1  C   UNL     1       5.080   4.801  16.504  0.00  0.00    +0.000 A 
ATOM      2  C   UNL     1       5.075   6.182  16.738  0.00  0.00    +0.000 A 
ATOM      3  C   UNL     1       4.046   6.779  17.468  0.00  0.00    +0.000 A 
ATOM      4  C   UNL     1       3.011   6.004  17.988  0.00  0.00    +0.000 A 
ATOM      5  C   UNL     1       2.968   4.624  17.751  0.00  0.00    +0.000 A 
ATOM      6  C   UNL     1       4.004   4.039  17.000  0.00  0.00    +0.000 A 
ENDROOT
BRANCH   1   8
ATOM      7  C   UNL     1       6.158   4.153  14.296  0.00  0.00    +0.000 C 
ATOM      8  C   UNL     1       6.241   4.102  15.818  0.00  0.00    +0.000 C 
BRANCH   8   9
ATOM      9  O   UNL     1       7.501   4.642  16.221  0.00  0.00    +0.000 OA
ATOM     10  H   UNL     1       7.331   5.514  16.613  0.00  0.00    +0.000 HD
ENDBRANCH   8   9
ENDBRANCH   1   8
BRANCH   5  11
ATOM     11  C   UNL     1       1.900   3.734  18.376  0.00  0.00    +0.000 C 
ATOM     12  C   UNL     1       2.125   2.280  17.953  0.00  0.00    +0.000 C 
BRANCH  11  13
ATOM     13  C   UNL     1       1.796   3.846  19.897  0.00  0.00    +0.000 C 
ATOM     14  O   UNL     1       2.748   3.932  20.661  0.00  0.00    +0.000 OA
BRANCH  13  15
ATOM     15  O   UNL     1       0.521   3.801  20.352  0.00  0.00    +0.000 OA
ATOM     16  H   UNL     1       0.311   2.983  20.839  0.00  0.00    +0.000 HD
ENDBRANCH  13  15
ENDBRANCH  11  13
ENDBRANCH   5  11
TORSDOF 5
ENDMDL
