MODEL 1
REMARK VINA RESULT:      -8.5      0.000      0.000
REMARK  Name = 
REMARK  11 active torsions:
REMARK  status: ('A' for Active; 'I' for Inactive)
REMARK    1  A    between atoms: C_1  and  C_2
REMARK    2  A    between atoms: C_2  and  C_3
REMARK    3  A    between atoms: C_3  and  S_4
REMARK    4  A    between atoms: S_4  and  C_5
REMARK    5  A    between atoms: N_12  and  C_13
REMARK    6  A    between atoms: C_13  and  C_14
REMARK    7  A    between atoms: C_20  and  C_21
REMARK    8  A    between atoms: N_23  and  C_24
REMARK    9  A    between atoms: C_24  and  C_25
REMARK   10  A    between atoms: C_25  and  C_26
REMARK   11  A    between atoms: C_25  and  C_27
REMARK                            x       y       z     vdW  Elec       q    Type
REMARK                         _______ _______ _______ _____ _____    ______ ____
ROOT
ATOM      1  C   UNL     1       6.703   5.030  15.447  0.00  0.00    +0.000 A 
ATOM      2  N   UNL     1       7.376   6.106  15.898  0.00  0.00    +0.000 NA
ATOM      3  C   UNL     1       7.114   6.481  17.161  0.00  0.00    +0.000 A 
ATOM      4 CL   UNL     1       8.035   7.815  17.720  0.00  0.00    +0.000 Cl
ATOM      5  C   UNL     1       6.199   5.852  17.956  0.00  0.00    +0.000 A 
ATOM      6  C   UNL     1       5.632   4.718  17.413  0.00  0.00    +0.000 A 
ATOM      7  N   UNL     1       5.849   4.284  16.172  0.00  0.00    +0.000 NA
ATOM      8  N   UNL     1       4.890   4.080  18.405  0.00  0.00    +0.000 N 
ATOM      9  C   UNL     1       4.667   5.096  19.424  0.00  0.00    +0.000 C 
ATOM     10  N   UNL     1       5.825   6.064  19.325  0.00  0.00    +0.000 N 
ATOM     11  H   UNL     1       6.584   5.684  19.893  0.00  0.00    +0.000 HD
ENDROOT
BRANCH   9  12
ATOM     12  C   UNL     1       3.320   5.912  19.225  0.00  0.00    +0.000 C 
ATOM     13  O   UNL     1       2.901   6.308  18.140  0.00  0.00    +0.000 OA
ATOM     14  N   UNL     1       2.615   6.103  20.411  0.00  0.00    +0.000 N 
ATOM     15  H   UNL     1       3.188   5.990  21.246  0.00  0.00    +0.000 HD
BRANCH  14  16
ATOM     16  C   UNL     1       1.420   6.921  20.461  0.00  0.00    +0.000 C 
BRANCH  16  17
ATOM     17  C   UNL     1       1.693   8.427  20.638  0.00  0.00    +0.000 C 
ATOM     18  C   UNL     1       1.260   9.241  19.420  0.00  0.00    +0.000 C 
ATOM     19  C   UNL     1       1.049   8.977  21.913  0.00  0.00    +0.000 C 
ENDBRANCH  16  17
ENDBRANCH  14  16
ENDBRANCH   9  12
BRANCH   1  20
ATOM     20  S   UNL     1       7.045   4.544  13.772  0.00  0.00    +0.000 S 
BRANCH  20  21
ATOM     21  C   UNL     1       5.525   3.618  13.379  0.00  0.00    +0.000 C 
BRANCH  21  23
ATOM     22  C   UNL     1       4.184   3.234  11.272  0.00  0.00    +0.000 C 
ATOM     23  C   UNL     1       5.564   3.185  11.912  0.00  0.00    +0.000 C 
ENDBRANCH  21  23
ENDBRANCH  20  21
ENDBRANCH   1  20
BRANCH   8  24
ATOM     24  C   UNL     1       4.042   2.942  18.166  0.00  0.00    +0.000 C 
BRANCH  24  25
ATOM     25  C   UNL     1       3.004   2.816  19.268  0.00  0.00    +0.000 A 
ATOM     26  C   UNL     1       3.390   2.558  20.592  0.00  0.00    +0.000 A 
ATOM     27  C   UNL     1       2.438   2.512  21.615  0.00  0.00    +0.000 A 
ATOM     28  C   UNL     1       1.089   2.719  21.331  0.00  0.00    +0.000 A 
ATOM     29  C   UNL     1       0.690   2.965  20.020  0.00  0.00    +0.000 A 
ATOM     30  C   UNL     1       1.641   3.015  18.995  0.00  0.00    +0.000 A 
ENDBRANCH  24  25
ENDBRANCH   8  24
TORSDOF 8
ENDMDL
MODEL 2
REMARK VINA RESULT:      -8.3      3.055      6.945
REMARK  Name = 
REMARK  11 active torsions:
REMARK  status: ('A' for Active; 'I' for Inactive)
REMARK    1  A    between atoms: C_1  and  C_2
REMARK    2  A    between atoms: C_2  and  C_3
REMARK    3  A    between atoms: C_3  and  S_4
REMARK    4  A    between atoms: S_4  and  C_5
REMARK    5  A    between atoms: N_12  and  C_13
REMARK    6  A    between atoms: C_13  and  C_14
REMARK    7  A    between atoms: C_20  and  C_21
REMARK    8  A    between atoms: N_23  and  C_24
REMARK    9  A    between atoms: C_24  and  C_25
REMARK   10  A    between atoms: C_25  and  C_26
REMARK   11  A    between atoms: C_25  and  C_27
REMARK                            x       y       z     vdW  Elec       q    Type
REMARK                         _______ _______ _______ _____ _____    ______ ____
ROOT
ATOM      1  C   UNL     1       3.496   4.030  18.314  0.00  0.00    +0.000 A 
ATOM      2  N   UNL     1       2.760   5.097  18.678  0.00  0.00    +0.000 NA
ATOM      3  C   UNL     1       3.242   6.298  18.318  0.00  0.00    +0.000 A 
ATOM      4 CL   UNL     1       2.247   7.628  18.743  0.00  0.00    +0.000 Cl
ATOM      5  C   UNL     1       4.423   6.465  17.653  0.00  0.00    +0.000 A 
ATOM      6  C   UNL     1       5.047   5.297  17.266  0.00  0.00    +0.000 A 
ATOM      7  N   UNL     1       4.624   4.073  17.581  0.00  0.00    +0.000 NA
ATOM      8  N   UNL     1       6.112   5.625  16.430  0.00  0.00    +0.000 N 
ATOM      9  C   UNL     1       6.377   7.033  16.688  0.00  0.00    +0.000 C 
ATOM     10  N   UNL     1       5.067   7.640  17.140  0.00  0.00    +0.000 N 
ATOM     11  H   UNL     1       4.553   7.907  16.299  0.00  0.00    +0.000 HD
ENDROOT
BRANCH   9  12
ATOM     12  C   UNL     1       7.458   7.280  17.825  0.00  0.00    +0.000 C 
ATOM     13  O   UNL     1       7.833   6.425  18.624  0.00  0.00    +0.000 OA
ATOM     14  N   UNL     1       7.988   8.567  17.807  0.00  0.00    +0.000 N 
ATOM     15  H   UNL     1       7.406   9.239  17.307  0.00  0.00    +0.000 HD
BRANCH  14  16
ATOM     16  C   UNL     1       8.902   9.027  18.832  0.00  0.00    +0.000 C 
BRANCH  16  17
ATOM     17  C   UNL     1       9.032  10.559  18.922  0.00  0.00    +0.000 C 
ATOM     18  C   UNL     1       9.396  11.028  20.330  0.00  0.00    +0.000 C 
ATOM     19  C   UNL     1      10.025  11.108  17.895  0.00  0.00    +0.000 C 
ENDBRANCH  16  17
ENDBRANCH  14  16
ENDBRANCH   9  12
BRANCH   1  20
ATOM     20  S   UNL     1       2.860   2.444  18.802  0.00  0.00    +0.000 S 
BRANCH  20  21
ATOM     21  C   UNL     1       1.245   2.933  19.491  0.00  0.00    +0.000 C 
BRANCH  21  23
ATOM     22  C   UNL     1       2.265   3.522  21.727  0.00  0.00    +0.000 C 
ATOM     23  C   UNL     1       1.238   2.667  20.998  0.00  0.00    +0.000 C 
ENDBRANCH  21  23
ENDBRANCH  20  21
ENDBRANCH   1  20
BRANCH   8  24
ATOM     24  C   UNL     1       7.078   4.672  15.949  0.00  0.00    +0.000 C 
BRANCH  24  25
ATOM     25  C   UNL     1       6.931   4.483  14.449  0.00  0.00    +0.000 A 
ATOM     26  C   UNL     1       7.784   5.148  13.555  0.00  0.00    +0.000 A 
ATOM     27  C   UNL     1       7.692   4.918  12.178  0.00  0.00    +0.000 A 
ATOM     28  C   UNL     1       6.746   4.026  11.675  0.00  0.00    +0.000 A 
ATOM     29  C   UNL     1       5.885   3.368  12.550  0.00  0.00    +0.000 A 
ATOM     30  C   UNL     1       5.978   3.593  13.927  0.00  0.00    +0.000 A 
ENDBRANCH  24  25
ENDBRANCH   8  24
TORSDOF 8
ENDMDL
MODEL 3
REMARK VINA RESULT:      -8.2      2.674      6.380
REMARK  Name = 
REMARK  11 active torsions:
REMARK  status: ('A' for Active; 'I' for Inactive)
REMARK    1  A    between atoms: C_1  and  C_2
REMARK    2  A    between atoms: C_2  and  C_3
REMARK    3  A    between atoms: C_3  and  S_4
REMARK    4  A    between atoms: S_4  and  C_5
REMARK    5  A    between atoms: N_12  and  C_13
REMARK    6  A    between atoms: C_13  and  C_14
REMARK    7  A    between atoms: C_20  and  C_21
REMARK    8  A    between atoms: N_23  and  C_24
REMARK    9  A    between atoms: C_24  and  C_25
REMARK   10  A    between atoms: C_25  and  C_26
REMARK   11  A    between atoms: C_25  and  C_27
REMARK                            x       y       z     vdW  Elec       q    Type
REMARK                         _______ _______ _______ _____ _____    ______ ____
ROOT
ATOM      1  C   UNL     1       7.785   7.884  17.825  0.00  0.00    +0.000 A 
ATOM      2  N   UNL     1       8.247   7.283  18.938  0.00  0.00    +0.000 NA
ATOM      3  C   UNL     1       7.864   6.009  19.123  0.00  0.00    +0.000 A 
ATOM      4 CL   UNL     1       8.522   5.257  20.517  0.00  0.00    +0.000 Cl
ATOM      5  C   UNL     1       7.029   5.344  18.272  0.00  0.00    +0.000 A 
ATOM      6  C   UNL     1       6.686   6.036  17.129  0.00  0.00    +0.000 A 
ATOM      7  N   UNL     1       7.033   7.298  16.876  0.00  0.00    +0.000 NA
ATOM      8  N   UNL     1       6.013   5.166  16.274  0.00  0.00    +0.000 N 
ATOM      9  C   UNL     1       5.575   4.066  17.121  0.00  0.00    +0.000 C 
ATOM     10  N   UNL     1       6.559   3.988  18.267  0.00  0.00    +0.000 N 
ATOM     11  H   UNL     1       7.342   3.413  17.953  0.00  0.00    +0.000 HD
ENDROOT
BRANCH   9  12
ATOM     12  C   UNL     1       4.121   4.270  17.727  0.00  0.00    +0.000 C 
ATOM     13  O   UNL     1       3.426   5.267  17.545  0.00  0.00    +0.000 OA
ATOM     14  N   UNL     1       3.677   3.176  18.465  0.00  0.00    +0.000 N 
ATOM     15  H   UNL     1       4.429   2.562  18.775  0.00  0.00    +0.000 HD
BRANCH  14  16
ATOM     16  C   UNL     1       2.427   3.209  19.196  0.00  0.00    +0.000 C 
BRANCH  16  17
ATOM     17  C   UNL     1       2.552   3.733  20.638  0.00  0.00    +0.000 C 
ATOM     18  C   UNL     1       2.025   5.160  20.785  0.00  0.00    +0.000 C 
ATOM     19  C   UNL     1       1.873   2.800  21.644  0.00  0.00    +0.000 C 
ENDBRANCH  16  17
ENDBRANCH  14  16
ENDBRANCH   9  12
BRANCH   1  20
ATOM     20  S   UNL     1       8.285   9.574  17.590  0.00  0.00    +0.000 S 
BRANCH  20  21
ATOM     21  C   UNL     1       9.195   9.869  19.141  0.00  0.00    +0.000 C 
BRANCH  21  23
ATOM     22  C   UNL     1      10.669  11.555  17.973  0.00  0.00    +0.000 C 
ATOM     23  C   UNL     1       9.734  11.300  19.146  0.00  0.00    +0.000 C 
ENDBRANCH  21  23
ENDBRANCH  20  21
ENDBRANCH   1  20
BRANCH   8  24
ATOM     24  C   UNL     1       5.379   5.575  15.048  0.00  0.00    +0.000 C 
BRANCH  24  25
ATOM     25  C   UNL     1       5.910   4.761  13.882  0.00  0.00    +0.000 A 
ATOM     26  C   UNL     1       5.130   3.751  13.297  0.00  0.00    +0.000 A 
ATOM     27  C   UNL     1       5.594   3.050  12.179  0.00  0.00    +0.000 A 
ATOM     28  C   UNL     1       6.842   3.345  11.631  0.00  0.00    +0.000 A 
ATOM     29  C   UNL     1       7.632   4.336  12.208  0.00  0.00    +0.000 A 
ATOM     30  C   UNL     1       7.168   5.041  13.324  0.00  0.00    +0.000 A 
ENDBRANCH  24  25
ENDBRANCH   8  24
TORSDOF 8
ENDMDL
MODEL 4
REMARK VINA RESULT:      -8.1      2.965      6.938
REMARK  Name = 
REMARK  11 active torsions:
REMARK  status: ('A' for Active; 'I' for Inactive)
REMARK    1  A    between atoms: C_1  and  C_2
REMARK    2  A    between atoms: C_2  and  C_3
REMARK    3  A    between atoms: C_3  and  S_4
REMARK    4  A    between atoms: S_4  and  C_5
REMARK    5  A    between atoms: N_12  and  C_13
REMARK    6  A    between atoms: C_13  and  C_14
REMARK    7  A    between atoms: C_20  and  C_21
REMARK    8  A    between atoms: N_23  and  C_24
REMARK    9  A    between atoms: C_24  and  C_25
REMARK   10  A    between atoms: C_25  and  C_26
REMARK   11  A    between atoms: C_25  and  C_27
REMARK                            x       y       z     vdW  Elec       q    Type
REMARK                         _______ _______ _______ _____ _____    ______ ____
ROOT
ATOM      1  C   UNL     1       2.852   4.089  18.285  0.00  0.00    +0.000 A 
ATOM      2  N   UNL     1       2.216   5.243  18.559  0.00  0.00    +0.000 NA
ATOM      3  C   UNL     1       2.813   6.365  18.121  0.00  0.00    +0.000 A 
ATOM      4 CL   UNL     1       1.943   7.809  18.433  0.00  0.00    +0.000 Cl
ATOM      5  C   UNL     1       4.010   6.371  17.466  0.00  0.00    +0.000 A 
ATOM      6  C   UNL     1       4.525   5.125  17.173  0.00  0.00    +0.000 A 
ATOM      7  N   UNL     1       3.986   3.972  17.569  0.00  0.00    +0.000 NA
ATOM      8  N   UNL     1       5.625   5.290  16.334  0.00  0.00    +0.000 N 
ATOM      9  C   UNL     1       6.018   6.683  16.494  0.00  0.00    +0.000 C 
ATOM     10  N   UNL     1       4.767   7.441  16.880  0.00  0.00    +0.000 N 
ATOM     11  H   UNL     1       4.289   7.692  16.014  0.00  0.00    +0.000 HD
ENDROOT
BRANCH   9  12
ATOM     12  C   UNL     1       7.107   6.909  17.628  0.00  0.00    +0.000 C 
ATOM     13  O   UNL     1       7.444   6.059  18.448  0.00  0.00    +0.000 OA
ATOM     14  N   UNL     1       7.691   8.173  17.581  0.00  0.00    +0.000 N 
ATOM     15  H   UNL     1       7.139   8.857  17.065  0.00  0.00    +0.000 HD
BRANCH  14  16
ATOM     16  C   UNL     1       8.622   8.617  18.598  0.00  0.00    +0.000 C 
BRANCH  16  17
ATOM     17  C   UNL     1       9.113  10.065  18.415  0.00  0.00    +0.000 C 
ATOM     18  C   UNL     1       8.086  10.939  17.696  0.00  0.00    +0.000 C 
ATOM     19  C   UNL     1       9.525  10.700  19.746  0.00  0.00    +0.000 C 
ENDBRANCH  16  17
ENDBRANCH  14  16
ENDBRANCH   9  12
BRANCH   1  20
ATOM     20  S   UNL     1       2.065   2.608  18.875  0.00  0.00    +0.000 S 
BRANCH  20  21
ATOM     21  C   UNL     1       0.865   3.317  20.049  0.00  0.00    +0.000 C 
BRANCH  21  23
ATOM     22  C   UNL     1       2.756   2.547  21.538  0.00  0.00    +0.000 C 
ATOM     23  C   UNL     1       1.300   2.984  21.478  0.00  0.00    +0.000 C 
ENDBRANCH  21  23
ENDBRANCH  20  21
ENDBRANCH   1  20
BRANCH   8  24
ATOM     24  C   UNL     1       6.500   4.218  15.938  0.00  0.00    +0.000 C 
BRANCH  24  25
ATOM     25  C   UNL     1       6.731   4.252  14.438  0.00  0.00    +0.000 A 
ATOM     26  C   UNL     1       6.001   3.416  13.580  0.00  0.00    +0.000 A 
ATOM     27  C   UNL     1       6.165   3.498  12.193  0.00  0.00    +0.000 A 
ATOM     28  C   UNL     1       7.063   4.414  11.645  0.00  0.00    +0.000 A 
ATOM     29  C   UNL     1       7.804   5.242  12.485  0.00  0.00    +0.000 A 
ATOM     30  C   UNL     1       7.638   5.163  13.871  0.00  0.00    +0.000 A 
ENDBRANCH  24  25
ENDBRANCH   8  24
TORSDOF 8
ENDMDL
MODEL 5
REMARK VINA RESULT:      -8.1      2.737      6.432
REMARK  Name = 
REMARK  11 active torsions:
REMARK  status: ('A' for Active; 'I' for Inactive)
REMARK    1  A    between atoms: C_1  and  C_2
REMARK    2  A    between atoms: C_2  and  C_3
REMARK    3  A    between atoms: C_3  and  S_4
REMARK    4  A    between atoms: S_4  and  C_5
REMARK    5  A    between atoms: N_12  and  C_13
REMARK    6  A    between atoms: C_13  and  C_14
REMARK    7  A    between atoms: C_20  and  C_21
REMARK    8  A    between atoms: N_23  and  C_24
REMARK    9  A    between atoms: C_24  and  C_25
REMARK   10  A    between atoms: C_25  and  C_26
REMARK   11  A    between atoms: C_25  and  C_27
REMARK                            x       y       z     vdW  Elec       q    Type
REMARK                         _______ _______ _______ _____ _____    ______ ____
ROOT
ATOM      1  C   UNL     1       7.802   7.858  17.811  0.00  0.00    +0.000 A 
ATOM      2  N   UNL     1       8.294   7.250  18.908  0.00  0.00    +0.000 NA
ATOM      3  C   UNL     1       7.899   5.982  19.108  0.00  0.00    +0.000 A 
ATOM      4 CL   UNL     1       8.594   5.221  20.479  0.00  0.00    +0.000 Cl
ATOM      5  C   UNL     1       7.025   5.329  18.287  0.00  0.00    +0.000 A 
ATOM      6  C   UNL     1       6.653   6.025  17.156  0.00  0.00    +0.000 A 
ATOM      7  N   UNL     1       7.010   7.282  16.889  0.00  0.00    +0.000 NA
ATOM      8  N   UNL     1       5.938   5.164  16.326  0.00  0.00    +0.000 N 
ATOM      9  C   UNL     1       5.513   4.072  17.189  0.00  0.00    +0.000 C 
ATOM     10  N   UNL     1       6.535   3.980  18.300  0.00  0.00    +0.000 N 
ATOM     11  H   UNL     1       7.298   3.393  17.959  0.00  0.00    +0.000 HD
ENDROOT
BRANCH   9  12
ATOM     12  C   UNL     1       4.085   4.298  17.845  0.00  0.00    +0.000 C 
ATOM     13  O   UNL     1       3.486   5.371  17.854  0.00  0.00    +0.000 OA
ATOM     14  N   UNL     1       3.539   3.135  18.383  0.00  0.00    +0.000 N 
ATOM     15  H   UNL     1       4.230   2.410  18.568  0.00  0.00    +0.000 HD
BRANCH  14  16
ATOM     16  C   UNL     1       2.296   3.154  19.128  0.00  0.00    +0.000 C 
BRANCH  16  17
ATOM     17  C   UNL     1       2.426   3.711  20.557  0.00  0.00    +0.000 C 
ATOM     18  C   UNL     1       1.677   5.032  20.734  0.00  0.00    +0.000 C 
ATOM     19  C   UNL     1       1.980   2.692  21.609  0.00  0.00    +0.000 C 
ENDBRANCH  16  17
ENDBRANCH  14  16
ENDBRANCH   9  12
BRANCH   1  20
ATOM     20  S   UNL     1       8.319   9.539  17.557  0.00  0.00    +0.000 S 
BRANCH  20  21
ATOM     21  C   UNL     1       9.098   9.893  19.166  0.00  0.00    +0.000 C 
BRANCH  21  23
ATOM     22  C   UNL     1      10.465  11.627  20.395  0.00  0.00    +0.000 C 
ATOM     23  C   UNL     1       9.601  11.338  19.176  0.00  0.00    +0.000 C 
ENDBRANCH  21  23
ENDBRANCH  20  21
ENDBRANCH   1  20
BRANCH   8  24
ATOM     24  C   UNL     1       5.268   5.582  15.122  0.00  0.00    +0.000 C 
BRANCH  24  25
ATOM     25  C   UNL     1       5.845   4.859  13.918  0.00  0.00    +0.000 A 
ATOM     26  C   UNL     1       7.146   5.136  13.470  0.00  0.00    +0.000 A 
ATOM     27  C   UNL     1       7.700   4.418  12.405  0.00  0.00    +0.000 A 
ATOM     28  C   UNL     1       6.963   3.418  11.771  0.00  0.00    +0.000 A 
ATOM     29  C   UNL     1       5.667   3.140  12.198  0.00  0.00    +0.000 A 
ATOM     30  C   UNL     1       5.113   3.854  13.265  0.00  0.00    +0.000 A 
ENDBRANCH  24  25
ENDBRANCH   8  24
TORSDOF 8
ENDMDL
MODEL 6
REMARK VINA RESULT:      -7.9      3.155      6.796
REMARK  Name = 
REMARK  11 active torsions:
REMARK  status: ('A' for Active; 'I' for Inactive)
REMARK    1  A    between atoms: C_1  and  C_2
REMARK    2  A    between atoms: C_2  and  C_3
REMARK    3  A    between atoms: C_3  and  S_4
REMARK    4  A    between atoms: S_4  and  C_5
REMARK    5  A    between atoms: N_12  and  C_13
REMARK    6  A    between atoms: C_13  and  C_14
REMARK    7  A    between atoms: C_20  and  C_21
REMARK    8  A    between atoms: N_23  and  C_24
REMARK    9  A    between atoms: C_24  and  C_25
REMARK   10  A    between atoms: C_25  and  C_26
REMARK   11  A    between atoms: C_25  and  C_27
REMARK                            x       y       z     vdW  Elec       q    Type
REMARK                         _______ _______ _______ _____ _____    ______ ____
ROOT
ATOM      1  C   UNL     1       3.952   4.128  18.759  0.00  0.00    +0.000 A 
ATOM      2  N   UNL     1       3.142   5.151  19.090  0.00  0.00    +0.000 NA
ATOM      3  C   UNL     1       3.492   6.359  18.618  0.00  0.00    +0.000 A 
ATOM      4 CL   UNL     1       2.404   7.625  19.008  0.00  0.00    +0.000 Cl
ATOM      5  C   UNL     1       4.616   6.577  17.873  0.00  0.00    +0.000 A 
ATOM      6  C   UNL     1       5.322   5.442  17.532  0.00  0.00    +0.000 A 
ATOM      7  N   UNL     1       5.030   4.213  17.958  0.00  0.00    +0.000 NA
ATOM      8  N   UNL     1       6.307   5.798  16.613  0.00  0.00    +0.000 N 
ATOM      9  C   UNL     1       6.455   7.239  16.754  0.00  0.00    +0.000 C 
ATOM     10  N   UNL     1       5.122   7.762  17.241  0.00  0.00    +0.000 N 
ATOM     11  H   UNL     1       4.541   7.919  16.416  0.00  0.00    +0.000 HD
ENDROOT
BRANCH   9  12
ATOM     12  C   UNL     1       7.568   7.663  17.804  0.00  0.00    +0.000 C 
ATOM     13  O   UNL     1       8.124   6.889  18.580  0.00  0.00    +0.000 OA
ATOM     14  N   UNL     1       7.899   9.015  17.735  0.00  0.00    +0.000 N 
ATOM     15  H   UNL     1       7.189   9.584  17.276  0.00  0.00    +0.000 HD
BRANCH  14  16
ATOM     16  C   UNL     1       8.808   9.623  18.684  0.00  0.00    +0.000 C 
BRANCH  16  17
ATOM     17  C   UNL     1       9.574  10.841  18.134  0.00  0.00    +0.000 C 
ATOM     18  C   UNL     1       8.644  12.004  17.793  0.00  0.00    +0.000 C 
ATOM     19  C   UNL     1      10.682  11.296  19.087  0.00  0.00    +0.000 C 
ENDBRANCH  16  17
ENDBRANCH  14  16
ENDBRANCH   9  12
BRANCH   1  20
ATOM     20  S   UNL     1       3.490   2.533  19.394  0.00  0.00    +0.000 S 
BRANCH  20  21
ATOM     21  C   UNL     1       2.176   2.076  18.218  0.00  0.00    +0.000 C 
BRANCH  21  23
ATOM     22  C   UNL     1       0.766   3.051  20.075  0.00  0.00    +0.000 C 
ATOM     23  C   UNL     1       0.836   2.024  18.954  0.00  0.00    +0.000 C 
ENDBRANCH  21  23
ENDBRANCH  20  21
ENDBRANCH   1  20
BRANCH   8  24
ATOM     24  C   UNL     1       7.328   4.898  16.143  0.00  0.00    +0.000 C 
BRANCH  24  25
ATOM     25  C   UNL     1       7.131   4.602  14.666  0.00  0.00    +0.000 A 
ATOM     26  C   UNL     1       6.133   3.713  14.239  0.00  0.00    +0.000 A 
ATOM     27  C   UNL     1       5.909   3.496  12.875  0.00  0.00    +0.000 A 
ATOM     28  C   UNL     1       6.679   4.160  11.921  0.00  0.00    +0.000 A 
ATOM     29  C   UNL     1       7.680   5.036  12.331  0.00  0.00    +0.000 A 
ATOM     30  C   UNL     1       7.904   5.257  13.693  0.00  0.00    +0.000 A 
ENDBRANCH  24  25
ENDBRANCH   8  24
TORSDOF 8
ENDMDL
MODEL 7
REMARK VINA RESULT:      -7.6      0.616      1.301
REMARK  Name = 
REMARK  11 active torsions:
REMARK  status: ('A' for Active; 'I' for Inactive)
REMARK    1  A    between atoms: C_1  and  C_2
REMARK    2  A    between atoms: C_2  and  C_3
REMARK    3  A    between atoms: C_3  and  S_4
REMARK    4  A    between atoms: S_4  and  C_5
REMARK    5  A    between atoms: N_12  and  C_13
REMARK    6  A    between atoms: C_13  and  C_14
REMARK    7  A    between atoms: C_20  and  C_21
REMARK    8  A    between atoms: N_23  and  C_24
REMARK    9  A    between atoms: C_24  and  C_25
REMARK   10  A    between atoms: C_25  and  C_26
REMARK   11  A    between atoms: C_25  and  C_27
REMARK                            x       y       z     vdW  Elec       q    Type
REMARK                         _______ _______ _______ _____ _____    ______ ____
ROOT
ATOM      1  C   UNL     1       6.560   4.859  15.311  0.00  0.00    +0.000 A 
ATOM      2  N   UNL     1       7.310   5.906  15.701  0.00  0.00    +0.000 NA
ATOM      3  C   UNL     1       7.058   6.390  16.929  0.00  0.00    +0.000 A 
ATOM      4 CL   UNL     1       8.075   7.682  17.415  0.00  0.00    +0.000 Cl
ATOM      5  C   UNL     1       6.082   5.894  17.745  0.00  0.00    +0.000 A 
ATOM      6  C   UNL     1       5.434   4.773  17.269  0.00  0.00    +0.000 A 
ATOM      7  N   UNL     1       5.636   4.236  16.066  0.00  0.00    +0.000 NA
ATOM      8  N   UNL     1       4.625   4.269  18.285  0.00  0.00    +0.000 N 
ATOM      9  C   UNL     1       4.468   5.368  19.226  0.00  0.00    +0.000 C 
ATOM     10  N   UNL     1       5.703   6.231  19.087  0.00  0.00    +0.000 N 
ATOM     11  H   UNL     1       6.419   5.833  19.697  0.00  0.00    +0.000 HD
ENDROOT
BRANCH   9  12
ATOM     12  C   UNL     1       3.195   6.273  18.940  0.00  0.00    +0.000 C 
ATOM     13  O   UNL     1       2.585   6.298  17.873  0.00  0.00    +0.000 OA
ATOM     14  N   UNL     1       2.794   7.020  20.045  0.00  0.00    +0.000 N 
ATOM     15  H   UNL     1       3.525   7.131  20.747  0.00  0.00    +0.000 HD
BRANCH  14  16
ATOM     16  C   UNL     1       1.726   7.993  19.957  0.00  0.00    +0.000 C 
BRANCH  16  17
ATOM     17  C   UNL     1       0.937   8.185  21.265  0.00  0.00    +0.000 C 
ATOM     18  C   UNL     1       1.720   8.989  22.302  0.00  0.00    +0.000 C 
ATOM     19  C   UNL     1      -0.436   8.816  21.016  0.00  0.00    +0.000 C 
ENDBRANCH  16  17
ENDBRANCH  14  16
ENDBRANCH   9  12
BRANCH   1  20
ATOM     20  S   UNL     1       6.890   4.230  13.682  0.00  0.00    +0.000 S 
BRANCH  20  21
ATOM     21  C   UNL     1       5.193   3.923  13.094  0.00  0.00    +0.000 C 
BRANCH  21  23
ATOM     22  C   UNL     1       6.652   2.537  11.566  0.00  0.00    +0.000 C 
ATOM     23  C   UNL     1       5.226   2.882  11.974  0.00  0.00    +0.000 C 
ENDBRANCH  21  23
ENDBRANCH  20  21
ENDBRANCH   1  20
BRANCH   8  24
ATOM     24  C   UNL     1       3.692   3.187  18.106  0.00  0.00    +0.000 C 
BRANCH  24  25
ATOM     25  C   UNL     1       2.811   3.041  19.334  0.00  0.00    +0.000 A 
ATOM     26  C   UNL     1       1.428   3.262  19.257  0.00  0.00    +0.000 A 
ATOM     27  C   UNL     1       0.610   3.058  20.373  0.00  0.00    +0.000 A 
ATOM     28  C   UNL     1       1.162   2.635  21.582  0.00  0.00    +0.000 A 
ATOM     29  C   UNL     1       2.535   2.423  21.677  0.00  0.00    +0.000 A 
ATOM     30  C   UNL     1       3.354   2.623  20.561  0.00  0.00    +0.000 A 
ENDBRANCH  24  25
ENDBRANCH   8  24
TORSDOF 8
ENDMDL
MODEL 8
REMARK VINA RESULT:      -7.6      0.889      1.064
REMARK  Name = 
REMARK  11 active torsions:
REMARK  status: ('A' for Active; 'I' for Inactive)
REMARK    1  A    between atoms: C_1  and  C_2
REMARK    2  A    between atoms: C_2  and  C_3
REMARK    3  A    between atoms: C_3  and  S_4
REMARK    4  A    between atoms: S_4  and  C_5
REMARK    5  A    between atoms: N_12  and  C_13
REMARK    6  A    between atoms: C_13  and  C_14
REMARK    7  A    between atoms: C_20  and  C_21
REMARK    8  A    between atoms: N_23  and  C_24
REMARK    9  A    between atoms: C_24  and  C_25
REMARK   10  A    between atoms: C_25  and  C_26
REMARK   11  A    between atoms: C_25  and  C_27
REMARK                            x       y       z     vdW  Elec       q    Type
REMARK                         _______ _______ _______ _____ _____    ______ ____
ROOT
ATOM      1  C   UNL     1       6.626   5.106  15.451  0.00  0.00    +0.000 A 
ATOM      2  N   UNL     1       7.366   6.115  15.946  0.00  0.00    +0.000 NA
ATOM      3  C   UNL     1       7.145   6.435  17.232  0.00  0.00    +0.000 A 
ATOM      4 CL   UNL     1       8.150   7.681  17.846  0.00  0.00    +0.000 Cl
ATOM      5  C   UNL     1       6.207   5.816  18.009  0.00  0.00    +0.000 A 
ATOM      6  C   UNL     1       5.568   4.747  17.416  0.00  0.00    +0.000 A 
ATOM      7  N   UNL     1       5.742   4.370  16.149  0.00  0.00    +0.000 NA
ATOM      8  N   UNL     1       4.805   4.100  18.385  0.00  0.00    +0.000 N 
ATOM      9  C   UNL     1       4.656   5.068  19.461  0.00  0.00    +0.000 C 
ATOM     10  N   UNL     1       5.867   5.973  19.394  0.00  0.00    +0.000 N 
ATOM     11  H   UNL     1       6.611   5.520  19.927  0.00  0.00    +0.000 HD
ENDROOT
BRANCH   9  12
ATOM     12  C   UNL     1       3.355   5.969  19.330  0.00  0.00    +0.000 C 
ATOM     13  O   UNL     1       2.401   5.928  20.102  0.00  0.00    +0.000 OA
ATOM     14  N   UNL     1       3.413   6.863  18.263  0.00  0.00    +0.000 N 
ATOM     15  H   UNL     1       4.098   6.604  17.553  0.00  0.00    +0.000 HD
BRANCH  14  16
ATOM     16  C   UNL     1       2.280   7.691  17.903  0.00  0.00    +0.000 C 
BRANCH  16  17
ATOM     17  C   UNL     1       2.187   9.010  18.692  0.00  0.00    +0.000 C 
ATOM     18  C   UNL     1       2.024  10.222  17.776  0.00  0.00    +0.000 C 
ATOM     19  C   UNL     1       1.072   8.970  19.740  0.00  0.00    +0.000 C 
ENDBRANCH  16  17
ENDBRANCH  14  16
ENDBRANCH   9  12
BRANCH   1  20
ATOM     20  S   UNL     1       6.915   4.694  13.746  0.00  0.00    +0.000 S 
BRANCH  20  21
ATOM     21  C   UNL     1       5.364   3.825  13.348  0.00  0.00    +0.000 C 
BRANCH  21  23
ATOM     22  C   UNL     1       4.174   3.098  11.240  0.00  0.00    +0.000 C 
ATOM     23  C   UNL     1       5.501   3.146  11.983  0.00  0.00    +0.000 C 
ENDBRANCH  21  23
ENDBRANCH  20  21
ENDBRANCH   1  20
BRANCH   8  24
ATOM     24  C   UNL     1       3.890   3.026  18.100  0.00  0.00    +0.000 C 
BRANCH  24  25
ATOM     25  C   UNL     1       2.933   2.825  19.262  0.00  0.00    +0.000 A 
ATOM     26  C   UNL     1       3.417   2.542  20.549  0.00  0.00    +0.000 A 
ATOM     27  C   UNL     1       2.538   2.427  21.631  0.00  0.00    +0.000 A 
ATOM     28  C   UNL     1       1.165   2.589  21.443  0.00  0.00    +0.000 A 
ATOM     29  C   UNL     1       0.670   2.858  20.169  0.00  0.00    +0.000 A 
ATOM     30  C   UNL     1       1.548   2.976  19.087  0.00  0.00    +0.000 A 
ENDBRANCH  24  25
ENDBRANCH   8  24
TORSDOF 8
ENDMDL
MODEL 9
REMARK VINA RESULT:      -7.6      3.121      6.670
REMARK  Name = 
REMARK  11 active torsions:
REMARK  status: ('A' for Active; 'I' for Inactive)
REMARK    1  A    between atoms: C_1  and  C_2
REMARK    2  A    between atoms: C_2  and  C_3
REMARK    3  A    between atoms: C_3  and  S_4
REMARK    4  A    between atoms: S_4  and  C_5
REMARK    5  A    between atoms: N_12  and  C_13
REMARK    6  A    between atoms: C_13  and  C_14
REMARK    7  A    between atoms: C_20  and  C_21
REMARK    8  A    between atoms: N_23  and  C_24
REMARK    9  A    between atoms: C_24  and  C_25
REMARK   10  A    between atoms: C_25  and  C_26
REMARK   11  A    between atoms: C_25  and  C_27
REMARK                            x       y       z     vdW  Elec       q    Type
REMARK                         _______ _______ _______ _____ _____    ______ ____
ROOT
ATOM      1  C   UNL     1       3.717   4.117  19.372  0.00  0.00    +0.000 A 
ATOM      2  N   UNL     1       2.975   5.195  19.688  0.00  0.00    +0.000 NA
ATOM      3  C   UNL     1       3.331   6.350  19.101  0.00  0.00    +0.000 A 
ATOM      4 CL   UNL     1       2.325   7.687  19.478  0.00  0.00    +0.000 Cl
ATOM      5  C   UNL     1       4.398   6.466  18.257  0.00  0.00    +0.000 A 
ATOM      6  C   UNL     1       5.031   5.280  17.948  0.00  0.00    +0.000 A 
ATOM      7  N   UNL     1       4.729   4.098  18.486  0.00  0.00    +0.000 NA
ATOM      8  N   UNL     1       5.952   5.526  16.932  0.00  0.00    +0.000 N 
ATOM      9  C   UNL     1       6.165   6.966  16.953  0.00  0.00    +0.000 C 
ATOM     10  N   UNL     1       4.895   7.579  17.501  0.00  0.00    +0.000 N 
ATOM     11  H   UNL     1       4.256   7.702  16.713  0.00  0.00    +0.000 HD
ENDROOT
BRANCH   9  12
ATOM     12  C   UNL     1       7.374   7.416  17.878  0.00  0.00    +0.000 C 
ATOM     13  O   UNL     1       7.988   6.667  18.634  0.00  0.00    +0.000 OA
ATOM     14  N   UNL     1       7.714   8.758  17.721  0.00  0.00    +0.000 N 
ATOM     15  H   UNL     1       6.972   9.318  17.304  0.00  0.00    +0.000 HD
BRANCH  14  16
ATOM     16  C   UNL     1       8.712   9.391  18.557  0.00  0.00    +0.000 C 
BRANCH  16  17
ATOM     17  C   UNL     1       9.287  10.696  17.976  0.00  0.00    +0.000 C 
ATOM     18  C   UNL     1       8.193  11.699  17.610  0.00  0.00    +0.000 C 
ATOM     19  C   UNL     1      10.314  11.335  18.914  0.00  0.00    +0.000 C 
ENDBRANCH  16  17
ENDBRANCH  14  16
ENDBRANCH   9  12
BRANCH   1  20
ATOM     20  S   UNL     1       3.249   2.594  20.160  0.00  0.00    +0.000 S 
BRANCH  20  21
ATOM     21  C   UNL     1       1.437   2.785  20.199  0.00  0.00    +0.000 C 
BRANCH  21  23
ATOM     22  C   UNL     1       1.930   1.921  17.876  0.00  0.00    +0.000 C 
ATOM     23  C   UNL     1       0.846   2.263  18.887  0.00  0.00    +0.000 C 
ENDBRANCH  21  23
ENDBRANCH  20  21
ENDBRANCH   1  20
BRANCH   8  24
ATOM     24  C   UNL     1       6.898   4.552  16.452  0.00  0.00    +0.000 C 
BRANCH  24  25
ATOM     25  C   UNL     1       6.873   4.494  14.935  0.00  0.00    +0.000 A 
ATOM     26  C   UNL     1       7.746   5.284  14.172  0.00  0.00    +0.000 A 
ATOM     27  C   UNL     1       7.769   5.177  12.778  0.00  0.00    +0.000 A 
ATOM     28  C   UNL     1       6.920   4.283  12.126  0.00  0.00    +0.000 A 
ATOM     29  C   UNL     1       6.040   3.501  12.870  0.00  0.00    +0.000 A 
ATOM     30  C   UNL     1       6.018   3.604  14.265  0.00  0.00    +0.000 A 
ENDBRANCH  24  25
ENDBRANCH   8  24
TORSDOF 8
ENDMDL
