MODEL 1
REMARK VINA RESULT:      -7.5      0.000      0.000
REMARK  Name = 
REMARK  6 active torsions:
REMARK  status: ('A' for Active; 'I' for Inactive)
REMARK    1  A    between atoms: C_1  and  C_2
REMARK    2  A    between atoms: C_2  and  C_3
REMARK    3  A    between atoms: C_3  and  N_4
REMARK    4  A    between atoms: C_8  and  C_9
REMARK    5  A    between atoms: C_9  and  N_10
REMARK    6  A    between atoms: C_15  and  C_16
REMARK                            x       y       z     vdW  Elec       q    Type
REMARK                         _______ _______ _______ _____ _____    ______ ____
ROOT
ATOM      1  N   UNL     1       4.313   4.187  17.270  0.00  0.00    +0.000 NA
ATOM      2  C   UNL     1       4.739   4.173  18.672  0.00  0.00    +0.000 C 
ATOM      3  C   UNL     1       4.173   5.289  19.556  0.00  0.00    +0.000 C 
ATOM      4  C   UNL     1       2.698   5.248  19.951  0.00  0.00    +0.000 C 
ATOM      5  N   UNL     1       1.899   4.246  19.269  0.00  0.00    +0.000 N 
ATOM      6  C   UNL     1       1.254   3.167  19.848  0.00  0.00    +0.000 C 
ATOM      7  C   UNL     1       1.240   2.997  21.352  0.00  0.00    +0.000 C 
ATOM      8  O   UNL     1       0.635   2.342  19.167  0.00  0.00    +0.000 OA
ATOM      9  C   UNL     1       1.808   4.408  17.818  0.00  0.00    +0.000 C 
ATOM     10  C   UNL     1       2.933   3.692  17.049  0.00  0.00    +0.000 C 
ENDROOT
BRANCH   1  11
ATOM     11  C   UNL     1       5.274   3.462  16.391  0.00  0.00    +0.000 C 
BRANCH  11  16
ATOM     12  N   UNL     1       6.292   4.338  14.191  0.00  0.00    +0.000 N 
ATOM     13  N   UNL     1       7.268   5.188  13.830  0.00  0.00    +0.000 NA
ATOM     14  N   UNL     1       7.795   5.626  14.960  0.00  0.00    +0.000 NA
ATOM     15  N   UNL     1       7.157   5.077  16.039  0.00  0.00    +0.000 NA
ATOM     16  C   UNL     1       6.205   4.293  15.566  0.00  0.00    +0.000 A 
BRANCH  12  17
ATOM     17  C   UNL     1       5.501   3.709  13.157  0.00  0.00    +0.000 C 
BRANCH  17  19
ATOM     18  C   UNL     1       5.823   1.874  11.441  0.00  0.00    +0.000 C 
ATOM     19  C   UNL     1       6.334   3.206  11.973  0.00  0.00    +0.000 C 
ENDBRANCH  17  19
ENDBRANCH  12  17
ENDBRANCH  11  16
ENDBRANCH   1  11
TORSDOF 4
ENDMDL
MODEL 2
REMARK VINA RESULT:      -7.5      1.709      2.485
REMARK  Name = 
REMARK  6 active torsions:
REMARK  status: ('A' for Active; 'I' for Inactive)
REMARK    1  A    between atoms: C_1  and  C_2
REMARK    2  A    between atoms: C_2  and  C_3
REMARK    3  A    between atoms: C_3  and  N_4
REMARK    4  A    between atoms: C_8  and  C_9
REMARK    5  A    between atoms: C_9  and  N_10
REMARK    6  A    between atoms: C_15  and  C_16
REMARK                            x       y       z     vdW  Elec       q    Type
REMARK                         _______ _______ _______ _____ _____    ______ ____
ROOT
ATOM      1  N   UNL     1       3.608   5.161  17.685  0.00  0.00    +0.000 NA
ATOM      2  C   UNL     1       2.224   5.336  18.132  0.00  0.00    +0.000 C 
ATOM      3  C   UNL     1       1.267   4.183  17.814  0.00  0.00    +0.000 C 
ATOM      4  C   UNL     1       1.404   2.870  18.585  0.00  0.00    +0.000 C 
ATOM      5  N   UNL     1       2.585   2.760  19.420  0.00  0.00    +0.000 N 
ATOM      6  C   UNL     1       2.616   2.639  20.799  0.00  0.00    +0.000 C 
ATOM      7  C   UNL     1       1.331   2.494  21.585  0.00  0.00    +0.000 C 
ATOM      8  O   UNL     1       3.683   2.600  21.421  0.00  0.00    +0.000 OA
ATOM      9  C   UNL     1       3.859   2.811  18.703  0.00  0.00    +0.000 C 
ATOM     10  C   UNL     1       4.408   4.238  18.527  0.00  0.00    +0.000 C 
ENDROOT
BRANCH   1  11
ATOM     11  C   UNL     1       4.311   6.467  17.532  0.00  0.00    +0.000 C 
BRANCH  11  16
ATOM     12  N   UNL     1       6.137   5.753  15.859  0.00  0.00    +0.000 N 
ATOM     13  N   UNL     1       7.455   5.955  15.697  0.00  0.00    +0.000 NA
ATOM     14  N   UNL     1       7.826   6.714  16.714  0.00  0.00    +0.000 NA
ATOM     15  N   UNL     1       6.757   7.011  17.515  0.00  0.00    +0.000 NA
ATOM     16  C   UNL     1       5.699   6.435  16.973  0.00  0.00    +0.000 A 
BRANCH  12  17
ATOM     17  C   UNL     1       5.428   4.971  14.871  0.00  0.00    +0.000 C 
BRANCH  17  19
ATOM     18  C   UNL     1       6.171   3.649  12.841  0.00  0.00    +0.000 C 
ATOM     19  C   UNL     1       6.228   3.768  14.358  0.00  0.00    +0.000 C 
ENDBRANCH  17  19
ENDBRANCH  12  17
ENDBRANCH  11  16
ENDBRANCH   1  11
TORSDOF 4
ENDMDL
MODEL 3
REMARK VINA RESULT:      -7.4      2.389      3.574
REMARK  Name = 
REMARK  6 active torsions:
REMARK  status: ('A' for Active; 'I' for Inactive)
REMARK    1  A    between atoms: C_1  and  C_2
REMARK    2  A    between atoms: C_2  and  C_3
REMARK    3  A    between atoms: C_3  and  N_4
REMARK    4  A    between atoms: C_8  and  C_9
REMARK    5  A    between atoms: C_9  and  N_10
REMARK    6  A    between atoms: C_15  and  C_16
REMARK                            x       y       z     vdW  Elec       q    Type
REMARK                         _______ _______ _______ _____ _____    ______ ____
ROOT
ATOM      1  N   UNL     1       3.680   4.474  17.361  0.00  0.00    +0.000 NA
ATOM      2  C   UNL     1       2.359   4.915  17.817  0.00  0.00    +0.000 C 
ATOM      3  C   UNL     1       1.228   3.890  17.689  0.00  0.00    +0.000 C 
ATOM      4  C   UNL     1       1.207   2.687  18.631  0.00  0.00    +0.000 C 
ATOM      5  N   UNL     1       2.398   2.510  19.441  0.00  0.00    +0.000 N 
ATOM      6  C   UNL     1       2.477   2.571  20.821  0.00  0.00    +0.000 C 
ATOM      7  C   UNL     1       1.224   2.730  21.656  0.00  0.00    +0.000 C 
ATOM      8  O   UNL     1       3.555   2.453  21.413  0.00  0.00    +0.000 OA
ATOM      9  C   UNL     1       3.630   2.270  18.689  0.00  0.00    +0.000 C 
ATOM     10  C   UNL     1       4.374   3.561  18.301  0.00  0.00    +0.000 C 
ENDROOT
BRANCH   1  11
ATOM     11  C   UNL     1       4.559   5.625  17.008  0.00  0.00    +0.000 C 
BRANCH  11  16
ATOM     12  N   UNL     1       7.025   5.036  16.550  0.00  0.00    +0.000 N 
ATOM     13  N   UNL     1       7.813   4.868  15.475  0.00  0.00    +0.000 NA
ATOM     14  N   UNL     1       7.040   5.103  14.428  0.00  0.00    +0.000 NA
ATOM     15  N   UNL     1       5.765   5.404  14.823  0.00  0.00    +0.000 NA
ATOM     16  C   UNL     1       5.745   5.339  16.142  0.00  0.00    +0.000 A 
BRANCH  12  17
ATOM     17  C   UNL     1       7.588   4.815  17.864  0.00  0.00    +0.000 C 
BRANCH  17  19
ATOM     18  C   UNL     1       7.668   7.347  17.801  0.00  0.00    +0.000 C 
ATOM     19  C   UNL     1       7.768   6.103  18.674  0.00  0.00    +0.000 C 
ENDBRANCH  17  19
ENDBRANCH  12  17
ENDBRANCH  11  16
ENDBRANCH   1  11
TORSDOF 4
ENDMDL
MODEL 4
REMARK VINA RESULT:      -7.3      1.345      1.520
REMARK  Name = 
REMARK  6 active torsions:
REMARK  status: ('A' for Active; 'I' for Inactive)
REMARK    1  A    between atoms: C_1  and  C_2
REMARK    2  A    between atoms: C_2  and  C_3
REMARK    3  A    between atoms: C_3  and  N_4
REMARK    4  A    between atoms: C_8  and  C_9
REMARK    5  A    between atoms: C_9  and  N_10
REMARK    6  A    between atoms: C_15  and  C_16
REMARK                            x       y       z     vdW  Elec       q    Type
REMARK                         _______ _______ _______ _____ _____    ______ ____
ROOT
ATOM      1  N   UNL     1       5.002   4.718  16.627  0.00  0.00    +0.000 NA
ATOM      2  C   UNL     1       5.035   5.781  17.635  0.00  0.00    +0.000 C 
ATOM      3  C   UNL     1       3.800   6.686  17.697  0.00  0.00    +0.000 C 
ATOM      4  C   UNL     1       2.496   6.123  18.259  0.00  0.00    +0.000 C 
ATOM      5  N   UNL     1       2.487   4.691  18.497  0.00  0.00    +0.000 N 
ATOM      6  C   UNL     1       2.349   4.056  19.720  0.00  0.00    +0.000 C 
ATOM      7  C   UNL     1       2.069   4.857  20.973  0.00  0.00    +0.000 C 
ATOM      8  O   UNL     1       2.404   2.825  19.819  0.00  0.00    +0.000 OA
ATOM      9  C   UNL     1       2.672   3.863  17.306  0.00  0.00    +0.000 C 
ATOM     10  C   UNL     1       4.148   3.562  16.990  0.00  0.00    +0.000 C 
ENDROOT
BRANCH   1  11
ATOM     11  C   UNL     1       6.372   4.259  16.259  0.00  0.00    +0.000 C 
BRANCH  11  16
ATOM     12  N   UNL     1       6.537   4.235  13.687  0.00  0.00    +0.000 N 
ATOM     13  N   UNL     1       7.261   4.858  12.743  0.00  0.00    +0.000 NA
ATOM     14  N   UNL     1       8.085   5.658  13.396  0.00  0.00    +0.000 NA
ATOM     15  N   UNL     1       7.886   5.564  14.747  0.00  0.00    +0.000 NA
ATOM     16  C   UNL     1       6.906   4.698  14.931  0.00  0.00    +0.000 A 
BRANCH  12  17
ATOM     17  C   UNL     1       5.513   3.302  13.274  0.00  0.00    +0.000 C 
BRANCH  17  19
ATOM     18  C   UNL     1       4.027   3.257  11.221  0.00  0.00    +0.000 C 
ATOM     19  C   UNL     1       5.445   3.104  11.755  0.00  0.00    +0.000 C 
ENDBRANCH  17  19
ENDBRANCH  12  17
ENDBRANCH  11  16
ENDBRANCH   1  11
TORSDOF 4
ENDMDL
MODEL 5
REMARK VINA RESULT:      -7.3      1.494      3.002
REMARK  Name = 
REMARK  6 active torsions:
REMARK  status: ('A' for Active; 'I' for Inactive)
REMARK    1  A    between atoms: C_1  and  C_2
REMARK    2  A    between atoms: C_2  and  C_3
REMARK    3  A    between atoms: C_3  and  N_4
REMARK    4  A    between atoms: C_8  and  C_9
REMARK    5  A    between atoms: C_9  and  N_10
REMARK    6  A    between atoms: C_15  and  C_16
REMARK                            x       y       z     vdW  Elec       q    Type
REMARK                         _______ _______ _______ _____ _____    ______ ____
ROOT
ATOM      1  N   UNL     1       4.308   4.060  17.245  0.00  0.00    +0.000 NA
ATOM      2  C   UNL     1       4.698   4.044  18.658  0.00  0.00    +0.000 C 
ATOM      3  C   UNL     1       4.134   5.176  19.522  0.00  0.00    +0.000 C 
ATOM      4  C   UNL     1       2.649   5.168  19.880  0.00  0.00    +0.000 C 
ATOM      5  N   UNL     1       1.846   4.180  19.183  0.00  0.00    +0.000 N 
ATOM      6  C   UNL     1       1.164   3.117  19.750  0.00  0.00    +0.000 C 
ATOM      7  C   UNL     1       1.110   2.955  21.254  0.00  0.00    +0.000 C 
ATOM      8  O   UNL     1       0.546   2.302  19.057  0.00  0.00    +0.000 OA
ATOM      9  C   UNL     1       1.795   4.336  17.729  0.00  0.00    +0.000 C 
ATOM     10  C   UNL     1       2.923   3.593  16.991  0.00  0.00    +0.000 C 
ENDROOT
BRANCH   1  11
ATOM     11  C   UNL     1       5.275   3.311  16.393  0.00  0.00    +0.000 C 
BRANCH  11  16
ATOM     12  N   UNL     1       7.054   5.117  15.931  0.00  0.00    +0.000 N 
ATOM     13  N   UNL     1       7.691   5.618  14.859  0.00  0.00    +0.000 NA
ATOM     14  N   UNL     1       7.201   4.968  13.818  0.00  0.00    +0.000 NA
ATOM     15  N   UNL     1       6.270   4.046  14.214  0.00  0.00    +0.000 NA
ATOM     16  C   UNL     1       6.193   4.118  15.531  0.00  0.00    +0.000 A 
BRANCH  12  17
ATOM     17  C   UNL     1       7.403   5.617  17.242  0.00  0.00    +0.000 C 
BRANCH  17  19
ATOM     18  C   UNL     1       8.234   7.680  18.456  0.00  0.00    +0.000 C 
ATOM     19  C   UNL     1       7.336   7.144  17.349  0.00  0.00    +0.000 C 
ENDBRANCH  17  19
ENDBRANCH  12  17
ENDBRANCH  11  16
ENDBRANCH   1  11
TORSDOF 4
ENDMDL
MODEL 6
REMARK VINA RESULT:      -7.2      1.640      2.298
REMARK  Name = 
REMARK  6 active torsions:
REMARK  status: ('A' for Active; 'I' for Inactive)
REMARK    1  A    between atoms: C_1  and  C_2
REMARK    2  A    between atoms: C_2  and  C_3
REMARK    3  A    between atoms: C_3  and  N_4
REMARK    4  A    between atoms: C_8  and  C_9
REMARK    5  A    between atoms: C_9  and  N_10
REMARK    6  A    between atoms: C_15  and  C_16
REMARK                            x       y       z     vdW  Elec       q    Type
REMARK                         _______ _______ _______ _____ _____    ______ ____
ROOT
ATOM      1  N   UNL     1       3.682   6.057  17.828  0.00  0.00    +0.000 NA
ATOM      2  C   UNL     1       3.611   6.334  19.265  0.00  0.00    +0.000 C 
ATOM      3  C   UNL     1       2.206   6.367  19.874  0.00  0.00    +0.000 C 
ATOM      4  C   UNL     1       1.436   5.057  20.037  0.00  0.00    +0.000 C 
ATOM      5  N   UNL     1       2.035   3.900  19.397  0.00  0.00    +0.000 N 
ATOM      6  C   UNL     1       2.512   2.762  20.024  0.00  0.00    +0.000 C 
ATOM      7  C   UNL     1       2.338   2.577  21.516  0.00  0.00    +0.000 C 
ATOM      8  O   UNL     1       3.050   1.850  19.386  0.00  0.00    +0.000 OA
ATOM      9  C   UNL     1       2.154   3.989  17.942  0.00  0.00    +0.000 C 
ATOM     10  C   UNL     1       3.471   4.633  17.472  0.00  0.00    +0.000 C 
ENDROOT
BRANCH   1  11
ATOM     11  C   UNL     1       4.949   6.563  17.227  0.00  0.00    +0.000 C 
BRANCH  11  16
ATOM     12  N   UNL     1       6.901   5.064  16.463  0.00  0.00    +0.000 N 
ATOM     13  N   UNL     1       7.924   4.412  17.040  0.00  0.00    +0.000 NA
ATOM     14  N   UNL     1       7.809   4.645  18.336  0.00  0.00    +0.000 NA
ATOM     15  N   UNL     1       6.732   5.450  18.591  0.00  0.00    +0.000 NA
ATOM     16  C   UNL     1       6.178   5.733  17.426  0.00  0.00    +0.000 A 
BRANCH  12  17
ATOM     17  C   UNL     1       6.774   5.021  15.023  0.00  0.00    +0.000 C 
BRANCH  17  19
ATOM     18  C   UNL     1       6.112   3.636  13.007  0.00  0.00    +0.000 C 
ATOM     19  C   UNL     1       5.992   3.804  14.516  0.00  0.00    +0.000 C 
ENDBRANCH  17  19
ENDBRANCH  12  17
ENDBRANCH  11  16
ENDBRANCH   1  11
TORSDOF 4
ENDMDL
MODEL 7
REMARK VINA RESULT:      -7.2      2.723      4.108
REMARK  Name = 
REMARK  6 active torsions:
REMARK  status: ('A' for Active; 'I' for Inactive)
REMARK    1  A    between atoms: C_1  and  C_2
REMARK    2  A    between atoms: C_2  and  C_3
REMARK    3  A    between atoms: C_3  and  N_4
REMARK    4  A    between atoms: C_8  and  C_9
REMARK    5  A    between atoms: C_9  and  N_10
REMARK    6  A    between atoms: C_15  and  C_16
REMARK                            x       y       z     vdW  Elec       q    Type
REMARK                         _______ _______ _______ _____ _____    ______ ____
ROOT
ATOM      1  N   UNL     1       3.934   4.692  18.038  0.00  0.00    +0.000 NA
ATOM      2  C   UNL     1       2.550   5.059  18.348  0.00  0.00    +0.000 C 
ATOM      3  C   UNL     1       1.485   4.016  17.995  0.00  0.00    +0.000 C 
ATOM      4  C   UNL     1       1.388   2.740  18.831  0.00  0.00    +0.000 C 
ATOM      5  N   UNL     1       2.471   2.532  19.775  0.00  0.00    +0.000 N 
ATOM      6  C   UNL     1       2.368   2.484  21.155  0.00  0.00    +0.000 C 
ATOM      7  C   UNL     1       1.013   2.541  21.826  0.00  0.00    +0.000 C 
ATOM      8  O   UNL     1       3.365   2.349  21.873  0.00  0.00    +0.000 OA
ATOM      9  C   UNL     1       3.797   2.388  19.176  0.00  0.00    +0.000 C 
ATOM     10  C   UNL     1       4.536   3.726  18.988  0.00  0.00    +0.000 C 
ENDROOT
BRANCH   1  11
ATOM     11  C   UNL     1       4.807   5.892  17.893  0.00  0.00    +0.000 C 
BRANCH  11  16
ATOM     12  N   UNL     1       7.128   6.433  16.911  0.00  0.00    +0.000 N 
ATOM     13  N   UNL     1       7.809   6.156  15.787  0.00  0.00    +0.000 NA
ATOM     14  N   UNL     1       6.992   5.428  15.047  0.00  0.00    +0.000 NA
ATOM     15  N   UNL     1       5.802   5.224  15.692  0.00  0.00    +0.000 NA
ATOM     16  C   UNL     1       5.892   5.827  16.864  0.00  0.00    +0.000 A 
BRANCH  12  17
ATOM     17  C   UNL     1       7.781   7.204  17.946  0.00  0.00    +0.000 C 
BRANCH  17  19
ATOM     18  C   UNL     1       8.739   9.446  18.636  0.00  0.00    +0.000 C 
ATOM     19  C   UNL     1       7.897   8.696  17.613  0.00  0.00    +0.000 C 
ENDBRANCH  17  19
ENDBRANCH  12  17
ENDBRANCH  11  16
ENDBRANCH   1  11
TORSDOF 4
ENDMDL
MODEL 8
REMARK VINA RESULT:      -6.8      1.491      1.992
REMARK  Name = 
REMARK  6 active torsions:
REMARK  status: ('A' for Active; 'I' for Inactive)
REMARK    1  A    between atoms: C_1  and  C_2
REMARK    2  A    between atoms: C_2  and  C_3
REMARK    3  A    between atoms: C_3  and  N_4
REMARK    4  A    between atoms: C_8  and  C_9
REMARK    5  A    between atoms: C_9  and  N_10
REMARK    6  A    between atoms: C_15  and  C_16
REMARK                            x       y       z     vdW  Elec       q    Type
REMARK                         _______ _______ _______ _____ _____    ______ ____
ROOT
ATOM      1  N   UNL     1       4.664   4.696  17.311  0.00  0.00    +0.000 NA
ATOM      2  C   UNL     1       3.693   3.634  17.041  0.00  0.00    +0.000 C 
ATOM      3  C   UNL     1       3.824   2.371  17.898  0.00  0.00    +0.000 C 
ATOM      4  C   UNL     1       3.427   2.429  19.373  0.00  0.00    +0.000 C 
ATOM      5  N   UNL     1       3.151   3.756  19.890  0.00  0.00    +0.000 N 
ATOM      6  C   UNL     1       1.940   4.220  20.377  0.00  0.00    +0.000 C 
ATOM      7  C   UNL     1       0.760   3.283  20.516  0.00  0.00    +0.000 C 
ATOM      8  O   UNL     1       1.799   5.389  20.751  0.00  0.00    +0.000 OA
ATOM      9  C   UNL     1       4.282   4.684  19.856  0.00  0.00    +0.000 C 
ATOM     10  C   UNL     1       4.386   5.477  18.541  0.00  0.00    +0.000 C 
ENDROOT
BRANCH   1  11
ATOM     11  C   UNL     1       4.830   5.607  16.143  0.00  0.00    +0.000 C 
BRANCH  11  16
ATOM     12  N   UNL     1       5.996   4.503  14.127  0.00  0.00    +0.000 N 
ATOM     13  N   UNL     1       7.222   4.510  13.575  0.00  0.00    +0.000 NA
ATOM     14  N   UNL     1       7.953   5.299  14.342  0.00  0.00    +0.000 NA
ATOM     15  N   UNL     1       7.205   5.810  15.368  0.00  0.00    +0.000 NA
ATOM     16  C   UNL     1       5.980   5.336  15.224  0.00  0.00    +0.000 A 
BRANCH  12  17
ATOM     17  C   UNL     1       4.951   3.738  13.486  0.00  0.00    +0.000 C 
BRANCH  17  19
ATOM     18  C   UNL     1       4.072   3.213  11.168  0.00  0.00    +0.000 C 
ATOM     19  C   UNL     1       5.303   3.299  12.060  0.00  0.00    +0.000 C 
ENDBRANCH  17  19
ENDBRANCH  12  17
ENDBRANCH  11  16
ENDBRANCH   1  11
TORSDOF 4
ENDMDL
MODEL 9
REMARK VINA RESULT:      -6.8      2.610      3.633
REMARK  Name = 
REMARK  6 active torsions:
REMARK  status: ('A' for Active; 'I' for Inactive)
REMARK    1  A    between atoms: C_1  and  C_2
REMARK    2  A    between atoms: C_2  and  C_3
REMARK    3  A    between atoms: C_3  and  N_4
REMARK    4  A    between atoms: C_8  and  C_9
REMARK    5  A    between atoms: C_9  and  N_10
REMARK    6  A    between atoms: C_15  and  C_16
REMARK                            x       y       z     vdW  Elec       q    Type
REMARK                         _______ _______ _______ _____ _____    ______ ____
ROOT
ATOM      1  N   UNL     1       3.284   6.072  17.792  0.00  0.00    +0.000 NA
ATOM      2  C   UNL     1       3.408   6.324  19.230  0.00  0.00    +0.000 C 
ATOM      3  C   UNL     1       2.110   6.249  20.040  0.00  0.00    +0.000 C 
ATOM      4  C   UNL     1       1.464   4.885  20.282  0.00  0.00    +0.000 C 
ATOM      5  N   UNL     1       2.040   3.782  19.534  0.00  0.00    +0.000 N 
ATOM      6  C   UNL     1       2.682   2.673  20.057  0.00  0.00    +0.000 C 
ATOM      7  C   UNL     1       2.744   2.456  21.553  0.00  0.00    +0.000 C 
ATOM      8  O   UNL     1       3.180   1.810  19.325  0.00  0.00    +0.000 OA
ATOM      9  C   UNL     1       1.935   3.899  18.079  0.00  0.00    +0.000 C 
ATOM     10  C   UNL     1       3.121   4.642  17.437  0.00  0.00    +0.000 C 
ENDROOT
BRANCH   1  11
ATOM     11  C   UNL     1       4.410   6.675  17.023  0.00  0.00    +0.000 C 
BRANCH  11  16
ATOM     12  N   UNL     1       6.650   5.431  17.296  0.00  0.00    +0.000 N 
ATOM     13  N   UNL     1       7.407   4.597  16.564  0.00  0.00    +0.000 NA
ATOM     14  N   UNL     1       6.765   4.448  15.418  0.00  0.00    +0.000 NA
ATOM     15  N   UNL     1       5.600   5.164  15.416  0.00  0.00    +0.000 NA
ATOM     16  C   UNL     1       5.511   5.759  16.593  0.00  0.00    +0.000 A 
BRANCH  12  17
ATOM     17  C   UNL     1       7.083   5.767  18.634  0.00  0.00    +0.000 C 
BRANCH  17  19
ATOM     18  C   UNL     1       7.824   8.005  17.706  0.00  0.00    +0.000 C 
ATOM     19  C   UNL     1       8.144   6.872  18.672  0.00  0.00    +0.000 C 
ENDBRANCH  17  19
ENDBRANCH  12  17
ENDBRANCH  11  16
ENDBRANCH   1  11
TORSDOF 4
ENDMDL
