MODEL 1
REMARK VINA RESULT:      -7.7      0.000      0.000
REMARK  Name = 
REMARK  3 active torsions:
REMARK  status: ('A' for Active; 'I' for Inactive)
REMARK    1  A    between atoms: C_1  and  C_2
REMARK    2  A    between atoms: C_10  and  C_11
REMARK    3  A    between atoms: N_16  and  C_17
REMARK                            x       y       z     vdW  Elec       q    Type
REMARK                         _______ _______ _______ _____ _____    ______ ____
ROOT
ATOM      1  C   UNL     1       4.383   2.923  11.297  0.00  0.00    +0.000 C 
ATOM      2  C   UNL     1       5.292   3.538  12.323  0.00  0.00    +0.000 A 
ATOM      3  C   UNL     1       6.581   3.915  11.947  0.00  0.00    +0.000 A 
ATOM      4  C   UNL     1       7.429   4.475  12.895  0.00  0.00    +0.000 A 
ATOM      5  C   UNL     1       6.980   4.639  14.203  0.00  0.00    +0.000 A 
ATOM      6  C   UNL     1       7.807   5.176  15.192  0.00  0.00    +0.000 A 
ATOM      7  C   UNL     1       7.357   5.283  16.505  0.00  0.00    +0.000 A 
ATOM      8  C   UNL     1       6.060   4.848  16.824  0.00  0.00    +0.000 A 
ATOM      9  C   UNL     1       5.363   4.760  18.045  0.00  0.00    +0.000 A 
ATOM     10  C   UNL     1       4.067   4.343  17.802  0.00  0.00    +0.000 A 
ATOM     11  N   UNL     1       4.020   4.044  16.446  0.00  0.00    +0.000 N 
ATOM     12  C   UNL     1       5.220   4.352  15.827  0.00  0.00    +0.000 A 
ATOM     13  C   UNL     1       5.662   4.223  14.496  0.00  0.00    +0.000 A 
ATOM     14  N   UNL     1       4.808   3.687  13.588  0.00  0.00    +0.000 NA
ATOM     15  H   UNL     1       3.221   3.646  15.968  0.00  0.00    +0.000 HD
ENDROOT
BRANCH  10  16
ATOM     16  C   UNL     1       2.971   4.112  18.732  0.00  0.00    +0.000 C 
ATOM     17  O   UNL     1       2.758   2.985  19.179  0.00  0.00    +0.000 OA
ATOM     18  N   UNL     1       2.223   5.210  19.156  0.00  0.00    +0.000 N 
ATOM     19  C   UNL     1       1.395   5.121  20.369  0.00  0.00    +0.000 C 
ATOM     20  C   UNL     1       1.582   6.371  21.274  0.00  0.00    +0.000 C 
ATOM     21  N   UNL     1       1.394   7.596  20.472  0.00  0.00    +0.000 N 
ATOM     22  C   UNL     1       2.262   7.680  19.281  0.00  0.00    +0.000 C 
ATOM     23  C   UNL     1       1.995   6.450  18.395  0.00  0.00    +0.000 C 
BRANCH  21  24
ATOM     24  C   UNL     1       0.808   8.745  20.965  0.00  0.00    +0.000 A 
ATOM     25  C   UNL     1       0.750   9.947  20.246  0.00  0.00    +0.000 A 
ATOM     26  C   UNL     1       0.170  11.097  20.796  0.00  0.00    +0.000 A 
ATOM     27  C   UNL     1      -0.350  11.060  22.082  0.00  0.00    +0.000 A 
ATOM     28  F   UNL     1      -0.900  12.161  22.611  0.00  0.00    +0.000 F 
ATOM     29  C   UNL     1      -0.301   9.895  22.828  0.00  0.00    +0.000 A 
ATOM     30  C   UNL     1       0.273   8.752  22.268  0.00  0.00    +0.000 A 
ENDBRANCH  21  24
ENDBRANCH  10  16
TORSDOF 2
ENDMDL
MODEL 2
REMARK VINA RESULT:      -7.6      2.909      5.616
REMARK  Name = 
REMARK  3 active torsions:
REMARK  status: ('A' for Active; 'I' for Inactive)
REMARK    1  A    between atoms: C_1  and  C_2
REMARK    2  A    between atoms: C_10  and  C_11
REMARK    3  A    between atoms: N_16  and  C_17
REMARK                            x       y       z     vdW  Elec       q    Type
REMARK                         _______ _______ _______ _____ _____    ______ ____
ROOT
ATOM      1  C   UNL     1       5.313   3.995  15.562  0.00  0.00    +0.000 C 
ATOM      2  C   UNL     1       4.592   4.062  16.879  0.00  0.00    +0.000 A 
ATOM      3  C   UNL     1       4.500   2.910  17.660  0.00  0.00    +0.000 A 
ATOM      4  C   UNL     1       3.826   2.964  18.875  0.00  0.00    +0.000 A 
ATOM      5  C   UNL     1       3.247   4.163  19.282  0.00  0.00    +0.000 A 
ATOM      6  C   UNL     1       2.542   4.256  20.484  0.00  0.00    +0.000 A 
ATOM      7  C   UNL     1       1.926   5.450  20.849  0.00  0.00    +0.000 A 
ATOM      8  C   UNL     1       2.025   6.562  19.997  0.00  0.00    +0.000 A 
ATOM      9  C   UNL     1       1.464   7.853  20.053  0.00  0.00    +0.000 A 
ATOM     10  C   UNL     1       1.950   8.609  19.001  0.00  0.00    +0.000 A 
ATOM     11  N   UNL     1       2.699   7.731  18.227  0.00  0.00    +0.000 N 
ATOM     12  C   UNL     1       2.767   6.480  18.818  0.00  0.00    +0.000 A 
ATOM     13  C   UNL     1       3.385   5.278  18.425  0.00  0.00    +0.000 A 
ATOM     14  N   UNL     1       4.049   5.257  17.242  0.00  0.00    +0.000 NA
ATOM     15  H   UNL     1       3.133   7.965  17.343  0.00  0.00    +0.000 HD
ENDROOT
BRANCH  10  16
ATOM     16  C   UNL     1       1.673   9.992  18.640  0.00  0.00    +0.000 C 
ATOM     17  O   UNL     1       2.068  10.448  17.567  0.00  0.00    +0.000 OA
ATOM     18  N   UNL     1       0.892  10.757  19.507  0.00  0.00    +0.000 N 
ATOM     19  C   UNL     1       0.247  11.990  19.031  0.00  0.00    +0.000 C 
ATOM     20  C   UNL     1      -1.235  12.067  19.493  0.00  0.00    +0.000 C 
ATOM     21  N   UNL     1      -1.313  11.836  20.949  0.00  0.00    +0.000 N 
ATOM     22  C   UNL     1      -0.693  10.575  21.396  0.00  0.00    +0.000 C 
ATOM     23  C   UNL     1       0.784  10.577  20.964  0.00  0.00    +0.000 C 
BRANCH  21  24
ATOM     24  C   UNL     1      -2.220  12.475  21.772  0.00  0.00    +0.000 A 
ATOM     25  C   UNL     1      -2.508  12.045  23.075  0.00  0.00    +0.000 A 
ATOM     26  C   UNL     1      -3.456  12.707  23.866  0.00  0.00    +0.000 A 
ATOM     27  C   UNL     1      -4.137  13.803  23.355  0.00  0.00    +0.000 A 
ATOM     28  F   UNL     1      -5.049  14.432  24.108  0.00  0.00    +0.000 F 
ATOM     29  C   UNL     1      -3.889  14.249  22.068  0.00  0.00    +0.000 A 
ATOM     30  C   UNL     1      -2.938  13.586  21.291  0.00  0.00    +0.000 A 
ENDBRANCH  21  24
ENDBRANCH  10  16
TORSDOF 2
ENDMDL
MODEL 3
REMARK VINA RESULT:      -7.5      5.009     10.590
REMARK  Name = 
REMARK  3 active torsions:
REMARK  status: ('A' for Active; 'I' for Inactive)
REMARK    1  A    between atoms: C_1  and  C_2
REMARK    2  A    between atoms: C_10  and  C_11
REMARK    3  A    between atoms: N_16  and  C_17
REMARK                            x       y       z     vdW  Elec       q    Type
REMARK                         _______ _______ _______ _____ _____    ______ ____
ROOT
ATOM      1  C   UNL     1      -6.412  13.907  20.773  0.00  0.00    +0.000 C 
ATOM      2  C   UNL     1      -5.853  13.249  19.544  0.00  0.00    +0.000 A 
ATOM      3  C   UNL     1      -6.577  13.311  18.353  0.00  0.00    +0.000 A 
ATOM      4  C   UNL     1      -6.069  12.694  17.216  0.00  0.00    +0.000 A 
ATOM      5  C   UNL     1      -4.854  12.018  17.289  0.00  0.00    +0.000 A 
ATOM      6  C   UNL     1      -4.318  11.366  16.177  0.00  0.00    +0.000 A 
ATOM      7  C   UNL     1      -3.128  10.652  16.284  0.00  0.00    +0.000 A 
ATOM      8  C   UNL     1      -2.470  10.598  17.523  0.00  0.00    +0.000 A 
ATOM      9  C   UNL     1      -1.317   9.912  17.955  0.00  0.00    +0.000 A 
ATOM     10  C   UNL     1      -1.037  10.269  19.263  0.00  0.00    +0.000 A 
ATOM     11  N   UNL     1      -2.101  11.064  19.667  0.00  0.00    +0.000 N 
ATOM     12  C   UNL     1      -2.983  11.286  18.623  0.00  0.00    +0.000 A 
ATOM     13  C   UNL     1      -4.192  12.002  18.537  0.00  0.00    +0.000 A 
ATOM     14  N   UNL     1      -4.657  12.607  19.659  0.00  0.00    +0.000 NA
ATOM     15  H   UNL     1      -2.227  11.429  20.604  0.00  0.00    +0.000 HD
ENDROOT
BRANCH  10  16
ATOM     16  C   UNL     1       0.047   9.838  20.135  0.00  0.00    +0.000 C 
ATOM     17  O   UNL     1      -0.018  10.027  21.350  0.00  0.00    +0.000 OA
ATOM     18  N   UNL     1       1.116   9.145  19.568  0.00  0.00    +0.000 N 
ATOM     19  C   UNL     1       2.014   8.344  20.414  0.00  0.00    +0.000 C 
ATOM     20  C   UNL     1       2.288   6.949  19.785  0.00  0.00    +0.000 C 
ATOM     21  N   UNL     1       2.723   7.114  18.384  0.00  0.00    +0.000 N 
ATOM     22  C   UNL     1       1.787   7.888  17.546  0.00  0.00    +0.000 C 
ATOM     23  C   UNL     1       1.597   9.276  18.182  0.00  0.00    +0.000 C 
BRANCH  21  24
ATOM     24  C   UNL     1       3.660   6.299  17.778  0.00  0.00    +0.000 A 
ATOM     25  C   UNL     1       3.580   4.900  17.788  0.00  0.00    +0.000 A 
ATOM     26  C   UNL     1       4.568   4.111  17.183  0.00  0.00    +0.000 A 
ATOM     27  C   UNL     1       5.656   4.717  16.570  0.00  0.00    +0.000 A 
ATOM     28  F   UNL     1       6.604   3.964  15.998  0.00  0.00    +0.000 F 
ATOM     29  C   UNL     1       5.775   6.096  16.551  0.00  0.00    +0.000 A 
ATOM     30  C   UNL     1       4.782   6.873  17.151  0.00  0.00    +0.000 A 
ENDBRANCH  21  24
ENDBRANCH  10  16
TORSDOF 2
ENDMDL
MODEL 4
REMARK VINA RESULT:      -7.5      3.989      6.570
REMARK  Name = 
REMARK  3 active torsions:
REMARK  status: ('A' for Active; 'I' for Inactive)
REMARK    1  A    between atoms: C_1  and  C_2
REMARK    2  A    between atoms: C_10  and  C_11
REMARK    3  A    between atoms: N_16  and  C_17
REMARK                            x       y       z     vdW  Elec       q    Type
REMARK                         _______ _______ _______ _____ _____    ______ ____
ROOT
ATOM      1  C   UNL     1       3.091   2.343  21.220  0.00  0.00    +0.000 C 
ATOM      2  C   UNL     1       3.229   3.446  20.209  0.00  0.00    +0.000 A 
ATOM      3  C   UNL     1       3.991   3.222  19.062  0.00  0.00    +0.000 A 
ATOM      4  C   UNL     1       4.130   4.243  18.129  0.00  0.00    +0.000 A 
ATOM      5  C   UNL     1       3.515   5.470  18.361  0.00  0.00    +0.000 A 
ATOM      6  C   UNL     1       3.647   6.529  17.460  0.00  0.00    +0.000 A 
ATOM      7  C   UNL     1       3.068   7.764  17.736  0.00  0.00    +0.000 A 
ATOM      8  C   UNL     1       2.346   7.933  18.928  0.00  0.00    +0.000 A 
ATOM      9  C   UNL     1       1.722   9.056  19.508  0.00  0.00    +0.000 A 
ATOM     10  C   UNL     1       1.063   8.667  20.660  0.00  0.00    +0.000 A 
ATOM     11  N   UNL     1       1.403   7.334  20.852  0.00  0.00    +0.000 N 
ATOM     12  C   UNL     1       2.177   6.862  19.805  0.00  0.00    +0.000 A 
ATOM     13  C   UNL     1       2.767   5.609  19.551  0.00  0.00    +0.000 A 
ATOM     14  N   UNL     1       2.603   4.627  20.472  0.00  0.00    +0.000 NA
ATOM     15  H   UNL     1       1.133   6.777  21.654  0.00  0.00    +0.000 HD
ENDROOT
BRANCH  10  16
ATOM     16  C   UNL     1       0.274   9.457  21.595  0.00  0.00    +0.000 C 
ATOM     17  O   UNL     1       0.105   9.071  22.752  0.00  0.00    +0.000 OA
ATOM     18  N   UNL     1      -0.218  10.690  21.167  0.00  0.00    +0.000 N 
ATOM     19  C   UNL     1      -0.655  11.695  22.147  0.00  0.00    +0.000 C 
ATOM     20  C   UNL     1      -0.103  13.105  21.796  0.00  0.00    +0.000 C 
ATOM     21  N   UNL     1      -0.413  13.422  20.388  0.00  0.00    +0.000 N 
ATOM     22  C   UNL     1       0.070  12.417  19.420  0.00  0.00    +0.000 C 
ATOM     23  C   UNL     1      -0.551  11.056  19.780  0.00  0.00    +0.000 C 
BRANCH  21  24
ATOM     24  C   UNL     1      -0.726  14.692  19.945  0.00  0.00    +0.000 A 
ATOM     25  C   UNL     1      -0.160  15.266  18.798  0.00  0.00    +0.000 A 
ATOM     26  C   UNL     1      -0.485  16.569  18.400  0.00  0.00    +0.000 A 
ATOM     27  C   UNL     1      -1.376  17.319  19.156  0.00  0.00    +0.000 A 
ATOM     28  F   UNL     1      -1.683  18.568  18.780  0.00  0.00    +0.000 F 
ATOM     29  C   UNL     1      -1.946  16.791  20.302  0.00  0.00    +0.000 A 
ATOM     30  C   UNL     1      -1.619  15.489  20.685  0.00  0.00    +0.000 A 
ENDBRANCH  21  24
ENDBRANCH  10  16
TORSDOF 2
ENDMDL
MODEL 5
REMARK VINA RESULT:      -7.4      5.107     10.282
REMARK  Name = 
REMARK  3 active torsions:
REMARK  status: ('A' for Active; 'I' for Inactive)
REMARK    1  A    between atoms: C_1  and  C_2
REMARK    2  A    between atoms: C_10  and  C_11
REMARK    3  A    between atoms: N_16  and  C_17
REMARK                            x       y       z     vdW  Elec       q    Type
REMARK                         _______ _______ _______ _____ _____    ______ ____
ROOT
ATOM      1  C   UNL     1      -6.758  13.444  19.826  0.00  0.00    +0.000 C 
ATOM      2  C   UNL     1      -6.001  12.845  18.675  0.00  0.00    +0.000 A 
ATOM      3  C   UNL     1      -6.558  12.897  17.397  0.00  0.00    +0.000 A 
ATOM      4  C   UNL     1      -5.866  12.334  16.331  0.00  0.00    +0.000 A 
ATOM      5  C   UNL     1      -4.638  11.721  16.560  0.00  0.00    +0.000 A 
ATOM      6  C   UNL     1      -3.920  11.124  15.521  0.00  0.00    +0.000 A 
ATOM      7  C   UNL     1      -2.719  10.470  15.779  0.00  0.00    +0.000 A 
ATOM      8  C   UNL     1      -2.234  10.421  17.096  0.00  0.00    +0.000 A 
ATOM      9  C   UNL     1      -1.115   9.787  17.671  0.00  0.00    +0.000 A 
ATOM     10  C   UNL     1      -1.035  10.126  19.010  0.00  0.00    +0.000 A 
ATOM     11  N   UNL     1      -2.187  10.855  19.278  0.00  0.00    +0.000 N 
ATOM     12  C   UNL     1      -2.929  11.056  18.126  0.00  0.00    +0.000 A 
ATOM     13  C   UNL     1      -4.153  11.710  17.886  0.00  0.00    +0.000 A 
ATOM     14  N   UNL     1      -4.799  12.263  18.944  0.00  0.00    +0.000 NA
ATOM     15  H   UNL     1      -2.459  11.192  20.194  0.00  0.00    +0.000 HD
ENDROOT
BRANCH  10  16
ATOM     16  C   UNL     1      -0.059   9.732  20.016  0.00  0.00    +0.000 C 
ATOM     17  O   UNL     1      -0.302   9.882  21.214  0.00  0.00    +0.000 OA
ATOM     18  N   UNL     1       1.117   9.116  19.589  0.00  0.00    +0.000 N 
ATOM     19  C   UNL     1       1.936   8.343  20.536  0.00  0.00    +0.000 C 
ATOM     20  C   UNL     1       2.377   6.985  19.923  0.00  0.00    +0.000 C 
ATOM     21  N   UNL     1       2.990   7.213  18.600  0.00  0.00    +0.000 N 
ATOM     22  C   UNL     1       2.135   7.957  17.656  0.00  0.00    +0.000 C 
ATOM     23  C   UNL     1       1.776   9.314  18.287  0.00  0.00    +0.000 C 
BRANCH  21  24
ATOM     24  C   UNL     1       4.048   6.470  18.114  0.00  0.00    +0.000 A 
ATOM     25  C   UNL     1       4.592   6.655  16.836  0.00  0.00    +0.000 A 
ATOM     26  C   UNL     1       5.649   5.860  16.373  0.00  0.00    +0.000 A 
ATOM     27  C   UNL     1       6.166   4.859  17.183  0.00  0.00    +0.000 A 
ATOM     28  F   UNL     1       7.171   4.094  16.739  0.00  0.00    +0.000 F 
ATOM     29  C   UNL     1       5.646   4.638  18.447  0.00  0.00    +0.000 A 
ATOM     30  C   UNL     1       4.598   5.440  18.901  0.00  0.00    +0.000 A 
ENDBRANCH  21  24
ENDBRANCH  10  16
TORSDOF 2
ENDMDL
MODEL 6
REMARK VINA RESULT:      -7.4      3.004      5.400
REMARK  Name = 
REMARK  3 active torsions:
REMARK  status: ('A' for Active; 'I' for Inactive)
REMARK    1  A    between atoms: C_1  and  C_2
REMARK    2  A    between atoms: C_10  and  C_11
REMARK    3  A    between atoms: N_16  and  C_17
REMARK                            x       y       z     vdW  Elec       q    Type
REMARK                         _______ _______ _______ _____ _____    ______ ____
ROOT
ATOM      1  C   UNL     1       5.889   4.942  14.907  0.00  0.00    +0.000 C 
ATOM      2  C   UNL     1       5.103   4.836  16.183  0.00  0.00    +0.000 A 
ATOM      3  C   UNL     1       5.023   3.602  16.830  0.00  0.00    +0.000 A 
ATOM      4  C   UNL     1       4.288   3.497  18.005  0.00  0.00    +0.000 A 
ATOM      5  C   UNL     1       3.638   4.620  18.508  0.00  0.00    +0.000 A 
ATOM      6  C   UNL     1       2.870   4.554  19.673  0.00  0.00    +0.000 A 
ATOM      7  C   UNL     1       2.185   5.675  20.130  0.00  0.00    +0.000 A 
ATOM      8  C   UNL     1       2.277   6.877  19.409  0.00  0.00    +0.000 A 
ATOM      9  C   UNL     1       1.656   8.131  19.574  0.00  0.00    +0.000 A 
ATOM     10  C   UNL     1       2.159   9.016  18.637  0.00  0.00    +0.000 A 
ATOM     11  N   UNL     1       2.984   8.259  17.815  0.00  0.00    +0.000 N 
ATOM     12  C   UNL     1       3.078   6.954  18.270  0.00  0.00    +0.000 A 
ATOM     13  C   UNL     1       3.768   5.827  17.784  0.00  0.00    +0.000 A 
ATOM     14  N   UNL     1       4.490   5.962  16.643  0.00  0.00    +0.000 NA
ATOM     15  H   UNL     1       3.451   8.605  16.985  0.00  0.00    +0.000 HD
ENDROOT
BRANCH  10  16
ATOM     16  C   UNL     1       1.840  10.419  18.413  0.00  0.00    +0.000 C 
ATOM     17  O   UNL     1       2.275  11.009  17.424  0.00  0.00    +0.000 OA
ATOM     18  N   UNL     1       0.974  11.050  19.306  0.00  0.00    +0.000 N 
ATOM     19  C   UNL     1       0.301  12.302  18.928  0.00  0.00    +0.000 C 
ATOM     20  C   UNL     1      -1.208  12.267  19.299  0.00  0.00    +0.000 C 
ATOM     21  N   UNL     1      -1.362  11.871  20.713  0.00  0.00    +0.000 N 
ATOM     22  C   UNL     1      -0.711  10.593  21.059  0.00  0.00    +0.000 C 
ATOM     23  C   UNL     1       0.788  10.703  20.725  0.00  0.00    +0.000 C 
BRANCH  21  24
ATOM     24  C   UNL     1      -2.346  12.376  21.541  0.00  0.00    +0.000 A 
ATOM     25  C   UNL     1      -3.642  12.673  21.099  0.00  0.00    +0.000 A 
ATOM     26  C   UNL     1      -4.602  13.209  21.968  0.00  0.00    +0.000 A 
ATOM     27  C   UNL     1      -4.268  13.466  23.291  0.00  0.00    +0.000 A 
ATOM     28  F   UNL     1      -5.183  13.984  24.120  0.00  0.00    +0.000 F 
ATOM     29  C   UNL     1      -2.994  13.196  23.761  0.00  0.00    +0.000 A 
ATOM     30  C   UNL     1      -2.048  12.655  22.888  0.00  0.00    +0.000 A 
ENDBRANCH  21  24
ENDBRANCH  10  16
TORSDOF 2
ENDMDL
MODEL 7
REMARK VINA RESULT:      -7.3      7.951      9.952
REMARK  Name = 
REMARK  3 active torsions:
REMARK  status: ('A' for Active; 'I' for Inactive)
REMARK    1  A    between atoms: C_1  and  C_2
REMARK    2  A    between atoms: C_10  and  C_11
REMARK    3  A    between atoms: N_16  and  C_17
REMARK                            x       y       z     vdW  Elec       q    Type
REMARK                         _______ _______ _______ _____ _____    ______ ____
ROOT
ATOM      1  C   UNL     1       9.197  10.191  18.912  0.00  0.00    +0.000 C 
ATOM      2  C   UNL     1       9.691  11.514  18.402  0.00  0.00    +0.000 A 
ATOM      3  C   UNL     1      10.952  11.583  17.807  0.00  0.00    +0.000 A 
ATOM      4  C   UNL     1      11.418  12.807  17.342  0.00  0.00    +0.000 A 
ATOM      5  C   UNL     1      10.625  13.942  17.489  0.00  0.00    +0.000 A 
ATOM      6  C   UNL     1      11.064  15.195  17.058  0.00  0.00    +0.000 A 
ATOM      7  C   UNL     1      10.279  16.326  17.261  0.00  0.00    +0.000 A 
ATOM      8  C   UNL     1       9.036  16.192  17.901  0.00  0.00    +0.000 A 
ATOM      9  C   UNL     1       8.072  17.136  18.306  0.00  0.00    +0.000 A 
ATOM     10  C   UNL     1       6.972  16.473  18.822  0.00  0.00    +0.000 A 
ATOM     11  N   UNL     1       7.329  15.131  18.856  0.00  0.00    +0.000 N 
ATOM     12  C   UNL     1       8.579  14.934  18.293  0.00  0.00    +0.000 A 
ATOM     13  C   UNL     1       9.366  13.780  18.108  0.00  0.00    +0.000 A 
ATOM     14  N   UNL     1       8.879  12.596  18.558  0.00  0.00    +0.000 NA
ATOM     15  H   UNL     1       6.760  14.390  19.248  0.00  0.00    +0.000 HD
ENDROOT
BRANCH  10  16
ATOM     16  C   UNL     1       5.727  17.006  19.357  0.00  0.00    +0.000 C 
ATOM     17  O   UNL     1       5.631  18.201  19.640  0.00  0.00    +0.000 OA
ATOM     18  N   UNL     1       4.634  16.147  19.469  0.00  0.00    +0.000 N 
ATOM     19  C   UNL     1       3.275  16.690  19.607  0.00  0.00    +0.000 C 
ATOM     20  C   UNL     1       2.275  15.957  18.668  0.00  0.00    +0.000 C 
ATOM     21  N   UNL     1       2.394  14.499  18.861  0.00  0.00    +0.000 N 
ATOM     22  C   UNL     1       3.760  13.972  18.680  0.00  0.00    +0.000 C 
ATOM     23  C   UNL     1       4.694  14.690  19.671  0.00  0.00    +0.000 C 
BRANCH  21  24
ATOM     24  C   UNL     1       1.320  13.633  18.790  0.00  0.00    +0.000 A 
ATOM     25  C   UNL     1      -0.013  14.065  18.758  0.00  0.00    +0.000 A 
ATOM     26  C   UNL     1      -1.074  13.151  18.713  0.00  0.00    +0.000 A 
ATOM     27  C   UNL     1      -0.810  11.788  18.713  0.00  0.00    +0.000 A 
ATOM     28  F   UNL     1      -1.824  10.913  18.677  0.00  0.00    +0.000 F 
ATOM     29  C   UNL     1       0.493  11.323  18.757  0.00  0.00    +0.000 A 
ATOM     30  C   UNL     1       1.542  12.243  18.794  0.00  0.00    +0.000 A 
ENDBRANCH  21  24
ENDBRANCH  10  16
TORSDOF 2
ENDMDL
MODEL 8
REMARK VINA RESULT:      -7.1      4.069      6.262
REMARK  Name = 
REMARK  3 active torsions:
REMARK  status: ('A' for Active; 'I' for Inactive)
REMARK    1  A    between atoms: C_1  and  C_2
REMARK    2  A    between atoms: C_10  and  C_11
REMARK    3  A    between atoms: N_16  and  C_17
REMARK                            x       y       z     vdW  Elec       q    Type
REMARK                         _______ _______ _______ _____ _____    ______ ____
ROOT
ATOM      1  C   UNL     1       5.741   5.115  15.468  0.00  0.00    +0.000 C 
ATOM      2  C   UNL     1       4.910   5.038  16.717  0.00  0.00    +0.000 A 
ATOM      3  C   UNL     1       4.811   3.820  17.391  0.00  0.00    +0.000 A 
ATOM      4  C   UNL     1       4.035   3.741  18.542  0.00  0.00    +0.000 A 
ATOM      5  C   UNL     1       3.365   4.875  18.994  0.00  0.00    +0.000 A 
ATOM      6  C   UNL     1       2.558   4.834  20.133  0.00  0.00    +0.000 A 
ATOM      7  C   UNL     1       1.855   5.964  20.539  0.00  0.00    +0.000 A 
ATOM      8  C   UNL     1       1.970   7.149  19.793  0.00  0.00    +0.000 A 
ATOM      9  C   UNL     1       1.342   8.405  19.906  0.00  0.00    +0.000 A 
ATOM     10  C   UNL     1       1.876   9.269  18.966  0.00  0.00    +0.000 A 
ATOM     11  N   UNL     1       2.730   8.494  18.192  0.00  0.00    +0.000 N 
ATOM     12  C   UNL     1       2.811   7.201  18.681  0.00  0.00    +0.000 A 
ATOM     13  C   UNL     1       3.519   6.064  18.247  0.00  0.00    +0.000 A 
ATOM     14  N   UNL     1       4.280   6.174  17.129  0.00  0.00    +0.000 NA
ATOM     15  H   UNL     1       3.225   8.821  17.371  0.00  0.00    +0.000 HD
ENDROOT
BRANCH  10  16
ATOM     16  C   UNL     1       1.562  10.665  18.697  0.00  0.00    +0.000 C 
ATOM     17  O   UNL     1       2.432  11.431  18.280  0.00  0.00    +0.000 OA
ATOM     18  N   UNL     1       0.243  11.088  18.855  0.00  0.00    +0.000 N 
ATOM     19  C   UNL     1      -0.217  12.336  18.228  0.00  0.00    +0.000 C 
ATOM     20  C   UNL     1      -1.588  12.143  17.521  0.00  0.00    +0.000 C 
ATOM     21  N   UNL     1      -2.544  11.519  18.457  0.00  0.00    +0.000 N 
ATOM     22  C   UNL     1      -2.076  10.248  19.044  0.00  0.00    +0.000 C 
ATOM     23  C   UNL     1      -0.749  10.509  19.777  0.00  0.00    +0.000 C 
BRANCH  21  24
ATOM     24  C   UNL     1      -3.892  11.820  18.479  0.00  0.00    +0.000 A 
ATOM     25  C   UNL     1      -4.720  11.713  17.354  0.00  0.00    +0.000 A 
ATOM     26  C   UNL     1      -6.078  12.054  17.415  0.00  0.00    +0.000 A 
ATOM     27  C   UNL     1      -6.619  12.520  18.605  0.00  0.00    +0.000 A 
ATOM     28  F   UNL     1      -7.915  12.853  18.663  0.00  0.00    +0.000 F 
ATOM     29  C   UNL     1      -5.830  12.651  19.735  0.00  0.00    +0.000 A 
ATOM     30  C   UNL     1      -4.480  12.301  19.664  0.00  0.00    +0.000 A 
ENDBRANCH  21  24
ENDBRANCH  10  16
TORSDOF 2
ENDMDL
MODEL 9
REMARK VINA RESULT:      -7.0      3.507      9.830
REMARK  Name = 
REMARK  3 active torsions:
REMARK  status: ('A' for Active; 'I' for Inactive)
REMARK    1  A    between atoms: C_1  and  C_2
REMARK    2  A    between atoms: C_10  and  C_11
REMARK    3  A    between atoms: N_16  and  C_17
REMARK                            x       y       z     vdW  Elec       q    Type
REMARK                         _______ _______ _______ _____ _____    ______ ____
ROOT
ATOM      1  C   UNL     1      -1.408  10.712  23.378  0.00  0.00    +0.000 C 
ATOM      2  C   UNL     1      -0.737  11.048  22.077  0.00  0.00    +0.000 A 
ATOM      3  C   UNL     1      -0.941  12.309  21.515  0.00  0.00    +0.000 A 
ATOM      4  C   UNL     1      -0.331  12.620  20.305  0.00  0.00    +0.000 A 
ATOM      5  C   UNL     1       0.463  11.667  19.674  0.00  0.00    +0.000 A 
ATOM      6  C   UNL     1       1.076  11.930  18.447  0.00  0.00    +0.000 A 
ATOM      7  C   UNL     1       1.822  10.946  17.806  0.00  0.00    +0.000 A 
ATOM      8  C   UNL     1       1.956   9.684  18.409  0.00  0.00    +0.000 A 
ATOM      9  C   UNL     1       2.570   8.490  17.983  0.00  0.00    +0.000 A 
ATOM     10  C   UNL     1       2.496   7.552  18.997  0.00  0.00    +0.000 A 
ATOM     11  N   UNL     1       1.714   8.134  19.987  0.00  0.00    +0.000 N 
ATOM     12  C   UNL     1       1.379   9.436  19.655  0.00  0.00    +0.000 A 
ATOM     13  C   UNL     1       0.609  10.415  20.312  0.00  0.00    +0.000 A 
ATOM     14  N   UNL     1       0.038  10.088  21.498  0.00  0.00    +0.000 NA
ATOM     15  H   UNL     1       1.415   7.670  20.836  0.00  0.00    +0.000 HD
ENDROOT
BRANCH  10  16
ATOM     16  C   UNL     1       2.990   6.182  19.039  0.00  0.00    +0.000 C 
ATOM     17  O   UNL     1       2.571   5.393  19.886  0.00  0.00    +0.000 OA
ATOM     18  N   UNL     1       3.889   5.774  18.054  0.00  0.00    +0.000 N 
ATOM     19  C   UNL     1       4.105   4.343  17.794  0.00  0.00    +0.000 C 
ATOM     20  C   UNL     1       4.095   4.037  16.270  0.00  0.00    +0.000 C 
ATOM     21  N   UNL     1       5.021   4.951  15.574  0.00  0.00    +0.000 N 
ATOM     22  C   UNL     1       4.760   6.383  15.820  0.00  0.00    +0.000 C 
ATOM     23  C   UNL     1       4.840   6.640  17.335  0.00  0.00    +0.000 C 
BRANCH  21  24
ATOM     24  C   UNL     1       5.777   4.579  14.479  0.00  0.00    +0.000 A 
ATOM     25  C   UNL     1       7.056   5.092  14.220  0.00  0.00    +0.000 A 
ATOM     26  C   UNL     1       7.777   4.707  13.082  0.00  0.00    +0.000 A 
ATOM     27  C   UNL     1       7.217   3.811  12.181  0.00  0.00    +0.000 A 
ATOM     28  F   UNL     1       7.903   3.447  11.090  0.00  0.00    +0.000 F 
ATOM     29  C   UNL     1       5.952   3.292  12.397  0.00  0.00    +0.000 A 
ATOM     30  C   UNL     1       5.245   3.678  13.538  0.00  0.00    +0.000 A 
ENDBRANCH  21  24
ENDBRANCH  10  16
TORSDOF 2
ENDMDL
