MODEL 1
REMARK VINA RESULT:      -8.4      0.000      0.000
REMARK  Name = 
REMARK  4 active torsions:
REMARK  status: ('A' for Active; 'I' for Inactive)
REMARK    1  A    between atoms: C_2  and  O_3
REMARK    2  A    between atoms: O_3  and  C_4
REMARK    3  A    between atoms: C_11  and  O_12
REMARK    4  A    between atoms: O_12  and  C_13
REMARK                            x       y       z     vdW  Elec       q    Type
REMARK                         _______ _______ _______ _____ _____    ______ ____
ROOT
ATOM      1  C   UNL     1       3.288   6.996  17.982  0.00  0.00    +0.000 A 
ATOM      2  C   UNL     1       3.963   7.860  17.130  0.00  0.00    +0.000 A 
ATOM      3  C   UNL     1       4.893   7.346  16.228  0.00  0.00    +0.000 A 
ATOM      4  C   UNL     1       5.132   5.967  16.139  0.00  0.00    +0.000 A 
ATOM      5  C   UNL     1       6.031   5.488  15.177  0.00  0.00    +0.000 A 
ATOM      6  C   UNL     1       6.255   4.125  15.019  0.00  0.00    +0.000 A 
ATOM      7  C   UNL     1       5.592   3.222  15.837  0.00  0.00    +0.000 A 
ATOM      8  C   UNL     1       4.726   3.679  16.842  0.00  0.00    +0.000 A 
ATOM      9  C   UNL     1       4.449   5.064  16.999  0.00  0.00    +0.000 A 
ATOM     10  C   UNL     1       3.529   5.612  17.930  0.00  0.00    +0.000 A 
ENDROOT
BRANCH   1  11
ATOM     11  O   UNL     1       2.265   7.427  18.872  0.00  0.00    +0.000 OA
BRANCH  11  13
ATOM     12  O   UNL     1       1.511   9.321  17.748  0.00  0.00    +0.000 OA
ATOM     13  C   UNL     1       1.576   8.645  18.770  0.00  0.00    +0.000 C 
ATOM     14  N   UNL     1       0.974   9.029  19.954  0.00  0.00    +0.000 N 
ATOM     15  C   UNL     1       0.159  10.242  20.011  0.00  0.00    +0.000 C 
ATOM     16  C   UNL     1       0.586  11.111  21.196  0.00  0.00    +0.000 C 
ATOM     17  O   UNL     1       0.534  10.362  22.422  0.00  0.00    +0.000 OA
ATOM     18  C   UNL     1       1.411   9.225  22.363  0.00  0.00    +0.000 C 
ATOM     19  C   UNL     1       1.033   8.284  21.211  0.00  0.00    +0.000 C 
ENDBRANCH  11  13
ENDBRANCH   1  11
BRANCH   8  20
ATOM     20  O   UNL     1       4.025   2.720  17.617  0.00  0.00    +0.000 OA
BRANCH  20  21
ATOM     21  C   UNL     1       4.228   2.771  19.002  0.00  0.00    +0.000 C 
ATOM     22  O   UNL     1       5.306   3.032  19.528  0.00  0.00    +0.000 OA
ATOM     23  N   UNL     1       3.101   2.457  19.739  0.00  0.00    +0.000 N 
ATOM     24  C   UNL     1       1.767   2.214  19.196  0.00  0.00    +0.000 C 
ATOM     25  C   UNL     1       0.742   3.096  19.924  0.00  0.00    +0.000 C 
ATOM     26  O   UNL     1       0.820   2.938  21.352  0.00  0.00    +0.000 OA
ATOM     27  C   UNL     1       2.137   3.259  21.837  0.00  0.00    +0.000 C 
ATOM     28  C   UNL     1       3.178   2.343  21.195  0.00  0.00    +0.000 C 
ENDBRANCH  20  21
ENDBRANCH   8  20
TORSDOF 4
ENDMDL
MODEL 2
REMARK VINA RESULT:      -8.4      0.822      1.391
REMARK  Name = 
REMARK  4 active torsions:
REMARK  status: ('A' for Active; 'I' for Inactive)
REMARK    1  A    between atoms: C_2  and  O_3
REMARK    2  A    between atoms: O_3  and  C_4
REMARK    3  A    between atoms: C_11  and  O_12
REMARK    4  A    between atoms: O_12  and  C_13
REMARK                            x       y       z     vdW  Elec       q    Type
REMARK                         _______ _______ _______ _____ _____    ______ ____
ROOT
ATOM      1  C   UNL     1       2.767   6.929  18.163  0.00  0.00    +0.000 A 
ATOM      2  C   UNL     1       3.384   7.923  17.414  0.00  0.00    +0.000 A 
ATOM      3  C   UNL     1       4.445   7.589  16.574  0.00  0.00    +0.000 A 
ATOM      4  C   UNL     1       4.878   6.261  16.444  0.00  0.00    +0.000 A 
ATOM      5  C   UNL     1       5.909   5.962  15.543  0.00  0.00    +0.000 A 
ATOM      6  C   UNL     1       6.330   4.653  15.343  0.00  0.00    +0.000 A 
ATOM      7  C   UNL     1       5.734   3.623  16.057  0.00  0.00    +0.000 A 
ATOM      8  C   UNL     1       4.735   3.904  17.003  0.00  0.00    +0.000 A 
ATOM      9  C   UNL     1       4.258   5.228  17.198  0.00  0.00    +0.000 A 
ATOM     10  C   UNL     1       3.199   5.595  18.068  0.00  0.00    +0.000 A 
ENDROOT
BRANCH   1  11
ATOM     11  O   UNL     1       1.626   7.168  18.978  0.00  0.00    +0.000 OA
BRANCH  11  13
ATOM     12  O   UNL     1       1.986   6.488  21.176  0.00  0.00    +0.000 OA
ATOM     13  C   UNL     1       1.662   7.354  20.369  0.00  0.00    +0.000 C 
ATOM     14  N   UNL     1       1.283   8.626  20.756  0.00  0.00    +0.000 N 
ATOM     15  C   UNL     1       1.324   9.013  22.166  0.00  0.00    +0.000 C 
ATOM     16  C   UNL     1      -0.003   9.654  22.578  0.00  0.00    +0.000 C 
ATOM     17  O   UNL     1      -0.323  10.762  21.718  0.00  0.00    +0.000 OA
ATOM     18  C   UNL     1      -0.440  10.329  20.352  0.00  0.00    +0.000 C 
ATOM     19  C   UNL     1       0.864   9.694  19.851  0.00  0.00    +0.000 C 
ENDBRANCH  11  13
ENDBRANCH   1  11
BRANCH   8  20
ATOM     20  O   UNL     1       4.112   2.817  17.668  0.00  0.00    +0.000 OA
BRANCH  20  21
ATOM     21  C   UNL     1       4.270   2.765  19.059  0.00  0.00    +0.000 C 
ATOM     22  O   UNL     1       5.339   2.949  19.634  0.00  0.00    +0.000 OA
ATOM     23  N   UNL     1       3.109   2.445  19.737  0.00  0.00    +0.000 N 
ATOM     24  C   UNL     1       1.786   2.291  19.139  0.00  0.00    +0.000 C 
ATOM     25  C   UNL     1       0.770   3.160  19.895  0.00  0.00    +0.000 C 
ATOM     26  O   UNL     1       0.796   2.902  21.311  0.00  0.00    +0.000 OA
ATOM     27  C   UNL     1       2.107   3.138  21.856  0.00  0.00    +0.000 C 
ATOM     28  C   UNL     1       3.135   2.229  21.184  0.00  0.00    +0.000 C 
ENDBRANCH  20  21
ENDBRANCH   8  20
TORSDOF 4
ENDMDL
MODEL 3
REMARK VINA RESULT:      -7.9      2.434      6.334
REMARK  Name = 
REMARK  4 active torsions:
REMARK  status: ('A' for Active; 'I' for Inactive)
REMARK    1  A    between atoms: C_2  and  O_3
REMARK    2  A    between atoms: O_3  and  C_4
REMARK    3  A    between atoms: C_11  and  O_12
REMARK    4  A    between atoms: O_12  and  C_13
REMARK                            x       y       z     vdW  Elec       q    Type
REMARK                         _______ _______ _______ _____ _____    ______ ____
ROOT
ATOM      1  C   UNL     1       4.505   3.789  17.241  0.00  0.00    +0.000 A 
ATOM      2  C   UNL     1       3.919   2.551  17.016  0.00  0.00    +0.000 A 
ATOM      3  C   UNL     1       2.799   2.177  17.756  0.00  0.00    +0.000 A 
ATOM      4  C   UNL     1       2.231   3.045  18.700  0.00  0.00    +0.000 A 
ATOM      5  C   UNL     1       1.069   2.653  19.379  0.00  0.00    +0.000 A 
ATOM      6  C   UNL     1       0.443   3.505  20.281  0.00  0.00    +0.000 A 
ATOM      7  C   UNL     1       0.983   4.759  20.529  0.00  0.00    +0.000 A 
ATOM      8  C   UNL     1       2.174   5.154  19.900  0.00  0.00    +0.000 A 
ATOM      9  C   UNL     1       2.812   4.320  18.944  0.00  0.00    +0.000 A 
ATOM     10  C   UNL     1       3.969   4.667  18.199  0.00  0.00    +0.000 A 
ENDROOT
BRANCH   1  11
ATOM     11  O   UNL     1       5.597   4.282  16.473  0.00  0.00    +0.000 OA
BRANCH  11  13
ATOM     12  O   UNL     1       5.573   6.189  15.137  0.00  0.00    +0.000 OA
ATOM     13  C   UNL     1       5.836   5.638  16.201  0.00  0.00    +0.000 C 
ATOM     14  N   UNL     1       6.415   6.310  17.262  0.00  0.00    +0.000 N 
ATOM     15  C   UNL     1       6.674   7.747  17.175  0.00  0.00    +0.000 C 
ATOM     16  C   UNL     1       8.115   8.052  17.589  0.00  0.00    +0.000 C 
ATOM     17  O   UNL     1       8.391   7.526  18.899  0.00  0.00    +0.000 OA
ATOM     18  C   UNL     1       8.210   6.101  18.926  0.00  0.00    +0.000 C 
ATOM     19  C   UNL     1       6.774   5.711  18.545  0.00  0.00    +0.000 C 
ENDBRANCH  11  13
ENDBRANCH   1  11
BRANCH   8  20
ATOM     20  O   UNL     1       2.658   6.466  20.137  0.00  0.00    +0.000 OA
BRANCH  20  21
ATOM     21  C   UNL     1       2.114   7.484  19.344  0.00  0.00    +0.000 C 
ATOM     22  O   UNL     1       2.179   7.506  18.118  0.00  0.00    +0.000 OA
ATOM     23  N   UNL     1       1.523   8.499  20.072  0.00  0.00    +0.000 N 
ATOM     24  C   UNL     1       1.333   8.511  21.520  0.00  0.00    +0.000 C 
ATOM     25  C   UNL     1      -0.136   8.813  21.848  0.00  0.00    +0.000 C 
ATOM     26  O   UNL     1      -0.593  10.012  21.197  0.00  0.00    +0.000 OA
ATOM     27  C   UNL     1      -0.447   9.914  19.769  0.00  0.00    +0.000 C 
ATOM     28  C   UNL     1       1.019   9.695  19.398  0.00  0.00    +0.000 C 
ENDBRANCH  20  21
ENDBRANCH   8  20
TORSDOF 4
ENDMDL
MODEL 4
REMARK VINA RESULT:      -7.8      3.020      8.481
REMARK  Name = 
REMARK  4 active torsions:
REMARK  status: ('A' for Active; 'I' for Inactive)
REMARK    1  A    between atoms: C_2  and  O_3
REMARK    2  A    between atoms: O_3  and  C_4
REMARK    3  A    between atoms: C_11  and  O_12
REMARK    4  A    between atoms: O_12  and  C_13
REMARK                            x       y       z     vdW  Elec       q    Type
REMARK                         _______ _______ _______ _____ _____    ______ ____
ROOT
ATOM      1  C   UNL     1       2.256   7.569  18.911  0.00  0.00    +0.000 A 
ATOM      2  C   UNL     1       2.343   6.908  20.130  0.00  0.00    +0.000 A 
ATOM      3  C   UNL     1       1.734   7.459  21.255  0.00  0.00    +0.000 A 
ATOM      4  C   UNL     1       1.002   8.653  21.172  0.00  0.00    +0.000 A 
ATOM      5  C   UNL     1       0.355   9.141  22.316  0.00  0.00    +0.000 A 
ATOM      6  C   UNL     1      -0.425  10.290  22.264  0.00  0.00    +0.000 A 
ATOM      7  C   UNL     1      -0.555  10.978  21.065  0.00  0.00    +0.000 A 
ATOM      8  C   UNL     1       0.125  10.538  19.919  0.00  0.00    +0.000 A 
ATOM      9  C   UNL     1       0.896   9.345  19.934  0.00  0.00    +0.000 A 
ATOM     10  C   UNL     1       1.549   8.780  18.808  0.00  0.00    +0.000 A 
ENDROOT
BRANCH   1  11
ATOM     11  O   UNL     1       2.776   7.035  17.700  0.00  0.00    +0.000 OA
BRANCH  11  13
ATOM     12  O   UNL     1       2.783   4.713  17.856  0.00  0.00    +0.000 OA
ATOM     13  C   UNL     1       3.350   5.762  17.568  0.00  0.00    +0.000 C 
ATOM     14  N   UNL     1       4.645   5.798  17.084  0.00  0.00    +0.000 N 
ATOM     15  C   UNL     1       5.372   4.556  16.824  0.00  0.00    +0.000 C 
ATOM     16  C   UNL     1       6.756   4.606  17.474  0.00  0.00    +0.000 C 
ATOM     17  O   UNL     1       7.484   5.767  17.035  0.00  0.00    +0.000 OA
ATOM     18  C   UNL     1       6.782   6.972  17.383  0.00  0.00    +0.000 C 
ATOM     19  C   UNL     1       5.386   7.011  16.745  0.00  0.00    +0.000 C 
ENDBRANCH  11  13
ENDBRANCH   1  11
BRANCH   8  20
ATOM     20  O   UNL     1      -0.082  11.237  18.702  0.00  0.00    +0.000 OA
BRANCH  20  21
ATOM     21  C   UNL     1      -1.325  11.865  18.549  0.00  0.00    +0.000 C 
ATOM     22  O   UNL     1      -1.590  12.979  18.991  0.00  0.00    +0.000 OA
ATOM     23  N   UNL     1      -2.257  11.093  17.880  0.00  0.00    +0.000 N 
ATOM     24  C   UNL     1      -2.002   9.798  17.255  0.00  0.00    +0.000 C 
ATOM     25  C   UNL     1      -2.493   9.818  15.801  0.00  0.00    +0.000 C 
ATOM     26  O   UNL     1      -3.865  10.243  15.706  0.00  0.00    +0.000 OA
ATOM     27  C   UNL     1      -4.041  11.554  16.274  0.00  0.00    +0.000 C 
ATOM     28  C   UNL     1      -3.639  11.553  17.749  0.00  0.00    +0.000 C 
ENDBRANCH  20  21
ENDBRANCH   8  20
TORSDOF 4
ENDMDL
MODEL 5
REMARK VINA RESULT:      -7.8      2.974      8.713
REMARK  Name = 
REMARK  4 active torsions:
REMARK  status: ('A' for Active; 'I' for Inactive)
REMARK    1  A    between atoms: C_2  and  O_3
REMARK    2  A    between atoms: O_3  and  C_4
REMARK    3  A    between atoms: C_11  and  O_12
REMARK    4  A    between atoms: O_12  and  C_13
REMARK                            x       y       z     vdW  Elec       q    Type
REMARK                         _______ _______ _______ _____ _____    ______ ____
ROOT
ATOM      1  C   UNL     1       1.693   8.150  19.334  0.00  0.00    +0.000 A 
ATOM      2  C   UNL     1       1.908   7.500  20.542  0.00  0.00    +0.000 A 
ATOM      3  C   UNL     1       1.374   8.034  21.713  0.00  0.00    +0.000 A 
ATOM      4  C   UNL     1       0.591   9.198  21.689  0.00  0.00    +0.000 A 
ATOM      5  C   UNL     1       0.024   9.667  22.882  0.00  0.00    +0.000 A 
ATOM      6  C   UNL     1      -0.803  10.785  22.892  0.00  0.00    +0.000 A 
ATOM      7  C   UNL     1      -1.059  11.460  21.707  0.00  0.00    +0.000 A 
ATOM      8  C   UNL     1      -0.461  11.040  20.509  0.00  0.00    +0.000 A 
ATOM      9  C   UNL     1       0.355   9.878  20.462  0.00  0.00    +0.000 A 
ATOM     10  C   UNL     1       0.933   9.332  19.287  0.00  0.00    +0.000 A 
ENDROOT
BRANCH   1  11
ATOM     11  O   UNL     1       2.130   7.630  18.084  0.00  0.00    +0.000 OA
BRANCH  11  13
ATOM     12  O   UNL     1       4.394   7.646  17.543  0.00  0.00    +0.000 OA
ATOM     13  C   UNL     1       3.380   7.033  17.860  0.00  0.00    +0.000 C 
ATOM     14  N   UNL     1       3.362   5.660  18.021  0.00  0.00    +0.000 N 
ATOM     15  C   UNL     1       4.594   4.883  17.889  0.00  0.00    +0.000 C 
ATOM     16  C   UNL     1       4.374   3.698  16.947  0.00  0.00    +0.000 C 
ATOM     17  O   UNL     1       3.267   2.893  17.390  0.00  0.00    +0.000 OA
ATOM     18  C   UNL     1       2.056   3.666  17.426  0.00  0.00    +0.000 C 
ATOM     19  C   UNL     1       2.186   4.867  18.374  0.00  0.00    +0.000 C 
ENDBRANCH  11  13
ENDBRANCH   1  11
BRANCH   8  20
ATOM     20  O   UNL     1      -0.797  11.724  19.312  0.00  0.00    +0.000 OA
BRANCH  20  21
ATOM     21  C   UNL     1      -2.150  12.039  19.135  0.00  0.00    +0.000 C 
ATOM     22  O   UNL     1      -2.729  12.938  19.739  0.00  0.00    +0.000 OA
ATOM     23  N   UNL     1      -2.799  11.213  18.236  0.00  0.00    +0.000 N 
ATOM     24  C   UNL     1      -2.169  10.179  17.419  0.00  0.00    +0.000 C 
ATOM     25  C   UNL     1      -2.556  10.374  15.946  0.00  0.00    +0.000 C 
ATOM     26  O   UNL     1      -3.982  10.454  15.774  0.00  0.00    +0.000 OA
ATOM     27  C   UNL     1      -4.536  11.534  16.547  0.00  0.00    +0.000 C 
ATOM     28  C   UNL     1      -4.242  11.332  18.033  0.00  0.00    +0.000 C 
ENDBRANCH  20  21
ENDBRANCH   8  20
TORSDOF 4
ENDMDL
MODEL 6
REMARK VINA RESULT:      -7.6      2.056      4.731
REMARK  Name = 
REMARK  4 active torsions:
REMARK  status: ('A' for Active; 'I' for Inactive)
REMARK    1  A    between atoms: C_2  and  O_3
REMARK    2  A    between atoms: O_3  and  C_4
REMARK    3  A    between atoms: C_11  and  O_12
REMARK    4  A    between atoms: O_12  and  C_13
REMARK                            x       y       z     vdW  Elec       q    Type
REMARK                         _______ _______ _______ _____ _____    ______ ____
ROOT
ATOM      1  C   UNL     1       2.107   6.621  19.562  0.00  0.00    +0.000 A 
ATOM      2  C   UNL     1       1.359   6.169  20.641  0.00  0.00    +0.000 A 
ATOM      3  C   UNL     1       1.130   4.804  20.794  0.00  0.00    +0.000 A 
ATOM      4  C   UNL     1       1.674   3.872  19.897  0.00  0.00    +0.000 A 
ATOM      5  C   UNL     1       1.469   2.504  20.122  0.00  0.00    +0.000 A 
ATOM      6  C   UNL     1       2.037   1.546  19.289  0.00  0.00    +0.000 A 
ATOM      7  C   UNL     1       2.805   1.948  18.205  0.00  0.00    +0.000 A 
ATOM      8  C   UNL     1       2.982   3.313  17.930  0.00  0.00    +0.000 A 
ATOM      9  C   UNL     1       2.447   4.312  18.787  0.00  0.00    +0.000 A 
ATOM     10  C   UNL     1       2.642   5.709  18.635  0.00  0.00    +0.000 A 
ENDROOT
BRANCH   1  11
ATOM     11  O   UNL     1       2.457   7.987  19.378  0.00  0.00    +0.000 OA
BRANCH  11  13
ATOM     12  O   UNL     1       2.024   8.955  17.305  0.00  0.00    +0.000 OA
ATOM     13  C   UNL     1       1.800   8.871  18.508  0.00  0.00    +0.000 C 
ATOM     14  N   UNL     1       0.863   9.663  19.146  0.00  0.00    +0.000 N 
ATOM     15  C   UNL     1       0.038  10.597  18.379  0.00  0.00    +0.000 C 
ATOM     16  C   UNL     1       0.071  11.984  19.024  0.00  0.00    +0.000 C 
ATOM     17  O   UNL     1      -0.325  11.914  20.405  0.00  0.00    +0.000 OA
ATOM     18  C   UNL     1       0.558  11.056  21.146  0.00  0.00    +0.000 C 
ATOM     19  C   UNL     1       0.564   9.630  20.576  0.00  0.00    +0.000 C 
ENDBRANCH  11  13
ENDBRANCH   1  11
BRANCH   8  20
ATOM     20  O   UNL     1       3.822   3.679  16.847  0.00  0.00    +0.000 OA
BRANCH  20  21
ATOM     21  C   UNL     1       5.075   4.206  17.183  0.00  0.00    +0.000 C 
ATOM     22  O   UNL     1       5.580   4.118  18.299  0.00  0.00    +0.000 OA
ATOM     23  N   UNL     1       5.689   4.882  16.144  0.00  0.00    +0.000 N 
ATOM     24  C   UNL     1       5.197   4.965  14.772  0.00  0.00    +0.000 C 
ATOM     25  C   UNL     1       6.309   4.550  13.797  0.00  0.00    +0.000 C 
ATOM     26  O   UNL     1       7.520   5.293  14.020  0.00  0.00    +0.000 OA
ATOM     27  C   UNL     1       7.995   5.117  15.368  0.00  0.00    +0.000 C 
ATOM     28  C   UNL     1       6.945   5.597  16.369  0.00  0.00    +0.000 C 
ENDBRANCH  20  21
ENDBRANCH   8  20
TORSDOF 4
ENDMDL
MODEL 7
REMARK VINA RESULT:      -7.6      2.246      4.431
REMARK  Name = 
REMARK  4 active torsions:
REMARK  status: ('A' for Active; 'I' for Inactive)
REMARK    1  A    between atoms: C_2  and  O_3
REMARK    2  A    between atoms: O_3  and  C_4
REMARK    3  A    between atoms: C_11  and  O_12
REMARK    4  A    between atoms: O_12  and  C_13
REMARK                            x       y       z     vdW  Elec       q    Type
REMARK                         _______ _______ _______ _____ _____    ______ ____
ROOT
ATOM      1  C   UNL     1       0.282   9.456  20.379  0.00  0.00    +0.000 A 
ATOM      2  C   UNL     1       0.484  10.266  19.269  0.00  0.00    +0.000 A 
ATOM      3  C   UNL     1       1.428   9.898  18.313  0.00  0.00    +0.000 A 
ATOM      4  C   UNL     1       2.153   8.702  18.433  0.00  0.00    +0.000 A 
ATOM      5  C   UNL     1       3.050   8.341  17.418  0.00  0.00    +0.000 A 
ATOM      6  C   UNL     1       3.746   7.139  17.470  0.00  0.00    +0.000 A 
ATOM      7  C   UNL     1       3.567   6.288  18.552  0.00  0.00    +0.000 A 
ATOM      8  C   UNL     1       2.714   6.652  19.605  0.00  0.00    +0.000 A 
ATOM      9  C   UNL     1       1.960   7.856  19.558  0.00  0.00    +0.000 A 
ATOM     10  C   UNL     1       1.014   8.266  20.534  0.00  0.00    +0.000 A 
ENDROOT
BRANCH   1  11
ATOM     11  O   UNL     1      -0.718   9.714  21.357  0.00  0.00    +0.000 OA
BRANCH  11  13
ATOM     12  O   UNL     1       0.024  10.403  23.453  0.00  0.00    +0.000 OA
ATOM     13  C   UNL     1      -0.586  10.629  22.413  0.00  0.00    +0.000 C 
ATOM     14  N   UNL     1      -1.228  11.830  22.174  0.00  0.00    +0.000 N 
ATOM     15  C   UNL     1      -1.139  12.922  23.143  0.00  0.00    +0.000 C 
ATOM     16  C   UNL     1      -2.534  13.469  23.454  0.00  0.00    +0.000 C 
ATOM     17  O   UNL     1      -3.206  13.865  22.246  0.00  0.00    +0.000 OA
ATOM     18  C   UNL     1      -3.353  12.749  21.353  0.00  0.00    +0.000 C 
ATOM     19  C   UNL     1      -1.990  12.154  20.970  0.00  0.00    +0.000 C 
ENDBRANCH  11  13
ENDBRANCH   1  11
BRANCH   8  20
ATOM     20  O   UNL     1       2.516   5.728  20.662  0.00  0.00    +0.000 OA
BRANCH  20  21
ATOM     21  C   UNL     1       1.671   4.644  20.390  0.00  0.00    +0.000 C 
ATOM     22  O   UNL     1       0.445   4.706  20.416  0.00  0.00    +0.000 OA
ATOM     23  N   UNL     1       2.347   3.467  20.125  0.00  0.00    +0.000 N 
ATOM     24  C   UNL     1       3.795   3.326  19.996  0.00  0.00    +0.000 C 
ATOM     25  C   UNL     1       4.131   2.613  18.678  0.00  0.00    +0.000 C 
ATOM     26  O   UNL     1       3.417   1.372  18.544  0.00  0.00    +0.000 OA
ATOM     27  C   UNL     1       1.995   1.583  18.609  0.00  0.00    +0.000 C 
ATOM     28  C   UNL     1       1.611   2.217  19.945  0.00  0.00    +0.000 C 
ENDBRANCH  20  21
ENDBRANCH   8  20
TORSDOF 4
ENDMDL
MODEL 8
REMARK VINA RESULT:      -7.5      2.882      8.454
REMARK  Name = 
REMARK  4 active torsions:
REMARK  status: ('A' for Active; 'I' for Inactive)
REMARK    1  A    between atoms: C_2  and  O_3
REMARK    2  A    between atoms: O_3  and  C_4
REMARK    3  A    between atoms: C_11  and  O_12
REMARK    4  A    between atoms: O_12  and  C_13
REMARK                            x       y       z     vdW  Elec       q    Type
REMARK                         _______ _______ _______ _____ _____    ______ ____
ROOT
ATOM      1  C   UNL     1       2.422   7.235  18.811  0.00  0.00    +0.000 A 
ATOM      2  C   UNL     1       2.509   6.535  20.008  0.00  0.00    +0.000 A 
ATOM      3  C   UNL     1       1.897   7.048  21.149  0.00  0.00    +0.000 A 
ATOM      4  C   UNL     1       1.161   8.242  21.103  0.00  0.00    +0.000 A 
ATOM      5  C   UNL     1       0.511   8.691  22.261  0.00  0.00    +0.000 A 
ATOM      6  C   UNL     1      -0.273   9.839  22.244  0.00  0.00    +0.000 A 
ATOM      7  C   UNL     1      -0.403  10.564  21.069  0.00  0.00    +0.000 A 
ATOM      8  C   UNL     1       0.280  10.163  19.910  0.00  0.00    +0.000 A 
ATOM      9  C   UNL     1       1.055   8.973  19.888  0.00  0.00    +0.000 A 
ATOM     10  C   UNL     1       1.712   8.446  18.746  0.00  0.00    +0.000 A 
ENDROOT
BRANCH   1  11
ATOM     11  O   UNL     1       2.946   6.742  17.584  0.00  0.00    +0.000 OA
BRANCH  11  13
ATOM     12  O   UNL     1       3.082   4.419  17.651  0.00  0.00    +0.000 OA
ATOM     13  C   UNL     1       3.599   5.510  17.431  0.00  0.00    +0.000 C 
ATOM     14  N   UNL     1       4.910   5.639  17.010  0.00  0.00    +0.000 N 
ATOM     15  C   UNL     1       5.720   4.452  16.736  0.00  0.00    +0.000 C 
ATOM     16  C   UNL     1       7.068   4.555  17.452  0.00  0.00    +0.000 C 
ATOM     17  O   UNL     1       7.745   5.772  17.092  0.00  0.00    +0.000 OA
ATOM     18  C   UNL     1       6.958   6.920  17.452  0.00  0.00    +0.000 C 
ATOM     19  C   UNL     1       5.592   6.906  16.752  0.00  0.00    +0.000 C 
ENDBRANCH  11  13
ENDBRANCH   1  11
BRANCH   8  20
ATOM     20  O   UNL     1       0.073  10.901  18.716  0.00  0.00    +0.000 OA
BRANCH  20  21
ATOM     21  C   UNL     1      -1.093  10.606  17.997  0.00  0.00    +0.000 C 
ATOM     22  O   UNL     1      -1.206   9.650  17.235  0.00  0.00    +0.000 OA
ATOM     23  N   UNL     1      -2.110  11.522  18.191  0.00  0.00    +0.000 N 
ATOM     24  C   UNL     1      -2.087  12.636  19.136  0.00  0.00    +0.000 C 
ATOM     25  C   UNL     1      -3.345  12.596  20.015  0.00  0.00    +0.000 C 
ATOM     26  O   UNL     1      -4.547  12.536  19.226  0.00  0.00    +0.000 OA
ATOM     27  C   UNL     1      -4.544  11.381  18.367  0.00  0.00    +0.000 C 
ATOM     28  C   UNL     1      -3.348  11.427  17.417  0.00  0.00    +0.000 C 
ENDBRANCH  20  21
ENDBRANCH   8  20
TORSDOF 4
ENDMDL
MODEL 9
REMARK VINA RESULT:      -7.5      2.902      8.909
REMARK  Name = 
REMARK  4 active torsions:
REMARK  status: ('A' for Active; 'I' for Inactive)
REMARK    1  A    between atoms: C_2  and  O_3
REMARK    2  A    between atoms: O_3  and  C_4
REMARK    3  A    between atoms: C_11  and  O_12
REMARK    4  A    between atoms: O_12  and  C_13
REMARK                            x       y       z     vdW  Elec       q    Type
REMARK                         _______ _______ _______ _____ _____    ______ ____
ROOT
ATOM      1  C   UNL     1       2.383   7.358  18.842  0.00  0.00    +0.000 A 
ATOM      2  C   UNL     1       2.191   6.624  20.005  0.00  0.00    +0.000 A 
ATOM      3  C   UNL     1       1.492   7.193  21.068  0.00  0.00    +0.000 A 
ATOM      4  C   UNL     1       0.947   8.482  20.970  0.00  0.00    +0.000 A 
ATOM      5  C   UNL     1       0.200   8.992  22.041  0.00  0.00    +0.000 A 
ATOM      6  C   UNL     1      -0.404  10.242  21.964  0.00  0.00    +0.000 A 
ATOM      7  C   UNL     1      -0.253  11.007  20.816  0.00  0.00    +0.000 A 
ATOM      8  C   UNL     1       0.533  10.540  19.752  0.00  0.00    +0.000 A 
ATOM      9  C   UNL     1       1.128   9.250  19.788  0.00  0.00    +0.000 A 
ATOM     10  C   UNL     1       1.868   8.661  18.730  0.00  0.00    +0.000 A 
ENDROOT
BRANCH   1  11
ATOM     11  O   UNL     1       3.011   6.825  17.683  0.00  0.00    +0.000 OA
BRANCH  11  13
ATOM     12  O   UNL     1       3.108   4.513  17.940  0.00  0.00    +0.000 OA
ATOM     13  C   UNL     1       3.638   5.571  17.618  0.00  0.00    +0.000 C 
ATOM     14  N   UNL     1       4.940   5.639  17.157  0.00  0.00    +0.000 N 
ATOM     15  C   UNL     1       5.722   4.418  16.965  0.00  0.00    +0.000 C 
ATOM     16  C   UNL     1       7.089   4.553  17.638  0.00  0.00    +0.000 C 
ATOM     17  O   UNL     1       7.778   5.722  17.162  0.00  0.00    +0.000 OA
ATOM     18  C   UNL     1       7.022   6.911  17.443  0.00  0.00    +0.000 C 
ATOM     19  C   UNL     1       5.638   6.866  16.779  0.00  0.00    +0.000 C 
ENDBRANCH  11  13
ENDBRANCH   1  11
BRANCH   8  20
ATOM     20  O   UNL     1       0.613  11.328  18.575  0.00  0.00    +0.000 OA
BRANCH  20  21
ATOM     21  C   UNL     1       0.128  12.639  18.671  0.00  0.00    +0.000 C 
ATOM     22  O   UNL     1      -1.052  12.945  18.526  0.00  0.00    +0.000 OA
ATOM     23  N   UNL     1       1.114  13.579  18.907  0.00  0.00    +0.000 N 
ATOM     24  C   UNL     1       2.521  13.292  19.170  0.00  0.00    +0.000 C 
ATOM     25  C   UNL     1       2.966  14.009  20.453  0.00  0.00    +0.000 C 
ATOM     26  O   UNL     1       2.662  15.415  20.412  0.00  0.00    +0.000 OA
ATOM     27  C   UNL     1       1.253  15.635  20.221  0.00  0.00    +0.000 C 
ATOM     28  C   UNL     1       0.789  15.005  18.908  0.00  0.00    +0.000 C 
ENDBRANCH  20  21
ENDBRANCH   8  20
TORSDOF 4
ENDMDL
