MODEL 1
REMARK VINA RESULT:      -7.7      0.000      0.000
REMARK  Name = 
REMARK  5 active torsions:
REMARK  status: ('A' for Active; 'I' for Inactive)
REMARK    1  A    between atoms: C_2  and  C_3
REMARK    2  A    between atoms: C_3  and  S_4
REMARK    3  A    between atoms: S_4  and  C_5
REMARK    4  A    between atoms: C_8  and  C_9
REMARK    5  A    between atoms: N_16  and  C_17
REMARK                            x       y       z     vdW  Elec       q    Type
REMARK                         _______ _______ _______ _____ _____    ______ ____
ROOT
ATOM      1  C   UNL     1       2.297   3.251  21.263  0.00  0.00    +0.000 C 
ENDROOT
BRANCH   1   3
ATOM      2  O   UNL     1       0.469   4.515  20.404  0.00  0.00    +0.000 OA
ATOM      3  C   UNL     1       1.678   4.490  20.627  0.00  0.00    +0.000 C 
ATOM      4  N   UNL     1       2.548   5.543  20.398  0.00  0.00    +0.000 N 
ATOM      5  H   UNL     1       3.534   5.314  20.454  0.00  0.00    +0.000 HD
BRANCH   4   6
ATOM      6  C   UNL     1       2.210   6.815  19.880  0.00  0.00    +0.000 A 
ATOM      7  C   UNL     1       2.514   7.227  18.581  0.00  0.00    +0.000 A 
ATOM      8  C   UNL     1       2.194   8.517  18.143  0.00  0.00    +0.000 A 
ATOM      9  C   UNL     1       1.560   9.415  19.002  0.00  0.00    +0.000 A 
ATOM     10 CL   UNL     1       1.229  11.005  18.412  0.00  0.00    +0.000 Cl
ATOM     11  C   UNL     1       1.220   9.004  20.293  0.00  0.00    +0.000 A 
ATOM     12 CL   UNL     1       0.427  10.050  21.417  0.00  0.00    +0.000 Cl
ATOM     13  C   UNL     1       1.534   7.705  20.726  0.00  0.00    +0.000 A 
ENDBRANCH   4   6
ENDBRANCH   1   3
BRANCH   1  14
ATOM     14  S   UNL     1       2.316   1.816  20.157  0.00  0.00    +0.000 S 
BRANCH  14  15
ATOM     15  C   UNL     1       2.971   2.549  18.717  0.00  0.00    +0.000 A 
ATOM     16  N   UNL     1       2.228   2.692  17.622  0.00  0.00    +0.000 NA
ATOM     17  N   UNL     1       3.065   3.348  16.804  0.00  0.00    +0.000 N 
ATOM     18  C   UNL     1       4.274   3.587  17.406  0.00  0.00    +0.000 A 
ATOM     19  N   UNL     1       4.227   3.079  18.628  0.00  0.00    +0.000 NA
ATOM     20  H   UNL     1       2.742   3.640  15.891  0.00  0.00    +0.000 HD
BRANCH  18  21
ATOM     21  C   UNL     1       5.372   4.338  16.803  0.00  0.00    +0.000 A 
ATOM     22  C   UNL     1       5.875   3.932  15.564  0.00  0.00    +0.000 A 
ATOM     23  C   UNL     1       6.933   4.634  15.011  0.00  0.00    +0.000 A 
ATOM     24  N   UNL     1       7.509   5.700  15.599  0.00  0.00    +0.000 NA
ATOM     25  C   UNL     1       7.005   6.089  16.787  0.00  0.00    +0.000 A 
ATOM     26  C   UNL     1       5.953   5.448  17.425  0.00  0.00    +0.000 A 
ENDBRANCH  18  21
ENDBRANCH  14  15
ENDBRANCH   1  14
TORSDOF 5
ENDMDL
MODEL 2
REMARK VINA RESULT:      -7.3      0.956      1.288
REMARK  Name = 
REMARK  5 active torsions:
REMARK  status: ('A' for Active; 'I' for Inactive)
REMARK    1  A    between atoms: C_2  and  C_3
REMARK    2  A    between atoms: C_3  and  S_4
REMARK    3  A    between atoms: S_4  and  C_5
REMARK    4  A    between atoms: C_8  and  C_9
REMARK    5  A    between atoms: N_16  and  C_17
REMARK                            x       y       z     vdW  Elec       q    Type
REMARK                         _______ _______ _______ _____ _____    ______ ____
ROOT
ATOM      1  C   UNL     1       1.853   3.377  21.541  0.00  0.00    +0.000 C 
ENDROOT
BRANCH   1   3
ATOM      2  O   UNL     1       0.306   4.524  20.137  0.00  0.00    +0.000 OA
ATOM      3  C   UNL     1       1.375   4.584  20.742  0.00  0.00    +0.000 C 
ATOM      4  N   UNL     1       2.184   5.707  20.813  0.00  0.00    +0.000 N 
ATOM      5  H   UNL     1       3.114   5.552  21.188  0.00  0.00    +0.000 HD
BRANCH   4   6
ATOM      6  C   UNL     1       1.930   6.964  20.218  0.00  0.00    +0.000 A 
ATOM      7  C   UNL     1       2.343   7.306  18.929  0.00  0.00    +0.000 A 
ATOM      8  C   UNL     1       2.101   8.585  18.413  0.00  0.00    +0.000 A 
ATOM      9  C   UNL     1       1.438   9.541  19.183  0.00  0.00    +0.000 A 
ATOM     10 CL   UNL     1       1.208  11.112  18.502  0.00  0.00    +0.000 Cl
ATOM     11  C   UNL     1       0.991   9.200  20.461  0.00  0.00    +0.000 A 
ATOM     12 CL   UNL     1       0.156  10.321  21.478  0.00  0.00    +0.000 Cl
ATOM     13  C   UNL     1       1.226   7.912  20.972  0.00  0.00    +0.000 A 
ENDBRANCH   4   6
ENDBRANCH   1   3
BRANCH   1  14
ATOM     14  S   UNL     1       2.383   1.995  20.497  0.00  0.00    +0.000 S 
BRANCH  14  15
ATOM     15  C   UNL     1       3.668   2.763  19.603  0.00  0.00    +0.000 A 
ATOM     16  N   UNL     1       4.943   2.572  19.933  0.00  0.00    +0.000 NA
ATOM     17  N   UNL     1       5.582   3.259  18.975  0.00  0.00    +0.000 N 
ATOM     18  C   UNL     1       4.702   3.841  18.098  0.00  0.00    +0.000 A 
ATOM     19  N   UNL     1       3.476   3.531  18.489  0.00  0.00    +0.000 NA
ATOM     20  H   UNL     1       6.593   3.252  18.947  0.00  0.00    +0.000 HD
BRANCH  18  21
ATOM     21  C   UNL     1       5.086   4.596  16.908  0.00  0.00    +0.000 A 
ATOM     22  C   UNL     1       5.727   3.933  15.858  0.00  0.00    +0.000 A 
ATOM     23  C   UNL     1       6.112   4.661  14.745  0.00  0.00    +0.000 A 
ATOM     24  N   UNL     1       5.899   5.984  14.610  0.00  0.00    +0.000 NA
ATOM     25  C   UNL     1       5.268   6.609  15.624  0.00  0.00    +0.000 A 
ATOM     26  C   UNL     1       4.850   5.968  16.782  0.00  0.00    +0.000 A 
ENDBRANCH  18  21
ENDBRANCH  14  15
ENDBRANCH   1  14
TORSDOF 5
ENDMDL
MODEL 3
REMARK VINA RESULT:      -7.2      5.483      7.366
REMARK  Name = 
REMARK  5 active torsions:
REMARK  status: ('A' for Active; 'I' for Inactive)
REMARK    1  A    between atoms: C_2  and  C_3
REMARK    2  A    between atoms: C_3  and  S_4
REMARK    3  A    between atoms: S_4  and  C_5
REMARK    4  A    between atoms: C_8  and  C_9
REMARK    5  A    between atoms: N_16  and  C_17
REMARK                            x       y       z     vdW  Elec       q    Type
REMARK                         _______ _______ _______ _____ _____    ______ ____
ROOT
ATOM      1  C   UNL     1       8.047   7.168  18.405  0.00  0.00    +0.000 C 
ENDROOT
BRANCH   1   3
ATOM      2  O   UNL     1       7.607   9.343  17.537  0.00  0.00    +0.000 OA
ATOM      3  C   UNL     1       8.276   8.673  18.321  0.00  0.00    +0.000 C 
ATOM      4  N   UNL     1       9.210   9.186  19.206  0.00  0.00    +0.000 N 
ATOM      5  H   UNL     1       9.810   8.501  19.653  0.00  0.00    +0.000 HD
BRANCH   4   6
ATOM      6  C   UNL     1       9.554  10.548  19.368  0.00  0.00    +0.000 A 
ATOM      7  C   UNL     1      10.175  11.312  18.378  0.00  0.00    +0.000 A 
ATOM      8  C   UNL     1      10.532  12.644  18.617  0.00  0.00    +0.000 A 
ATOM      9  C   UNL     1      10.270  13.233  19.854  0.00  0.00    +0.000 A 
ATOM     10 CL   UNL     1      10.773  14.867  20.097  0.00  0.00    +0.000 Cl
ATOM     11  C   UNL     1       9.619  12.489  20.841  0.00  0.00    +0.000 A 
ATOM     12 CL   UNL     1       9.250  13.143  22.398  0.00  0.00    +0.000 Cl
ATOM     13  C   UNL     1       9.252  11.156  20.594  0.00  0.00    +0.000 A 
ENDBRANCH   4   6
ENDBRANCH   1   3
BRANCH   1  14
ATOM     14  S   UNL     1       7.033   6.524  17.049  0.00  0.00    +0.000 S 
BRANCH  14  15
ATOM     15  C   UNL     1       6.131   5.296  17.897  0.00  0.00    +0.000 A 
ATOM     16  N   UNL     1       6.737   4.448  18.724  0.00  0.00    +0.000 NA
ATOM     17  N   UNL     1       5.701   3.745  19.207  0.00  0.00    +0.000 N 
ATOM     18  C   UNL     1       4.511   4.172  18.676  0.00  0.00    +0.000 A 
ATOM     19  N   UNL     1       4.773   5.162  17.837  0.00  0.00    +0.000 NA
ATOM     20  H   UNL     1       5.864   3.040  19.914  0.00  0.00    +0.000 HD
BRANCH  18  21
ATOM     21  C   UNL     1       3.198   3.656  19.052  0.00  0.00    +0.000 A 
ATOM     22  C   UNL     1       2.964   3.290  20.380  0.00  0.00    +0.000 A 
ATOM     23  C   UNL     1       1.725   2.776  20.723  0.00  0.00    +0.000 A 
ATOM     24  N   UNL     1       0.718   2.610  19.845  0.00  0.00    +0.000 NA
ATOM     25  C   UNL     1       0.951   2.979  18.570  0.00  0.00    +0.000 A 
ATOM     26  C   UNL     1       2.160   3.498  18.127  0.00  0.00    +0.000 A 
ENDBRANCH  18  21
ENDBRANCH  14  15
ENDBRANCH   1  14
TORSDOF 5
ENDMDL
MODEL 4
REMARK VINA RESULT:      -7.2      0.976      1.650
REMARK  Name = 
REMARK  5 active torsions:
REMARK  status: ('A' for Active; 'I' for Inactive)
REMARK    1  A    between atoms: C_2  and  C_3
REMARK    2  A    between atoms: C_3  and  S_4
REMARK    3  A    between atoms: S_4  and  C_5
REMARK    4  A    between atoms: C_8  and  C_9
REMARK    5  A    between atoms: N_16  and  C_17
REMARK                            x       y       z     vdW  Elec       q    Type
REMARK                         _______ _______ _______ _____ _____    ______ ____
ROOT
ATOM      1  C   UNL     1       2.503   3.379  21.054  0.00  0.00    +0.000 C 
ENDROOT
BRANCH   1   3
ATOM      2  O   UNL     1       0.556   4.592  20.407  0.00  0.00    +0.000 OA
ATOM      3  C   UNL     1       1.779   4.616  20.533  0.00  0.00    +0.000 C 
ATOM      4  N   UNL     1       2.581   5.720  20.292  0.00  0.00    +0.000 N 
ATOM      5  H   UNL     1       3.577   5.537  20.260  0.00  0.00    +0.000 HD
BRANCH   4   6
ATOM      6  C   UNL     1       2.145   6.997  19.869  0.00  0.00    +0.000 A 
ATOM      7  C   UNL     1       2.386   7.513  18.594  0.00  0.00    +0.000 A 
ATOM      8  C   UNL     1       1.969   8.805  18.251  0.00  0.00    +0.000 A 
ATOM      9  C   UNL     1       1.301   9.600  19.183  0.00  0.00    +0.000 A 
ATOM     10 CL   UNL     1       0.850  11.198  18.709  0.00  0.00    +0.000 Cl
ATOM     11  C   UNL     1       1.024   9.082  20.451  0.00  0.00    +0.000 A 
ATOM     12 CL   UNL     1       0.196   9.996  21.661  0.00  0.00    +0.000 Cl
ATOM     13  C   UNL     1       1.435   7.782  20.788  0.00  0.00    +0.000 A 
ENDBRANCH   4   6
ENDBRANCH   1   3
BRANCH   1  14
ATOM     14  S   UNL     1       2.908   2.188  19.750  0.00  0.00    +0.000 S 
BRANCH  14  15
ATOM     15  C   UNL     1       4.170   3.061  18.921  0.00  0.00    +0.000 A 
ATOM     16  N   UNL     1       5.195   3.584  19.588  0.00  0.00    +0.000 NA
ATOM     17  N   UNL     1       5.946   4.083  18.595  0.00  0.00    +0.000 N 
ATOM     18  C   UNL     1       5.375   3.857  17.368  0.00  0.00    +0.000 A 
ATOM     19  N   UNL     1       4.239   3.206  17.564  0.00  0.00    +0.000 NA
ATOM     20  H   UNL     1       6.837   4.511  18.810  0.00  0.00    +0.000 HD
BRANCH  18  21
ATOM     21  C   UNL     1       5.979   4.218  16.088  0.00  0.00    +0.000 A 
ATOM     22  C   UNL     1       6.935   5.236  16.049  0.00  0.00    +0.000 A 
ATOM     23  C   UNL     1       7.484   5.590  14.828  0.00  0.00    +0.000 A 
ATOM     24  N   UNL     1       7.152   5.002  13.663  0.00  0.00    +0.000 NA
ATOM     25  C   UNL     1       6.239   4.012  13.717  0.00  0.00    +0.000 A 
ATOM     26  C   UNL     1       5.628   3.590  14.889  0.00  0.00    +0.000 A 
ENDBRANCH  18  21
ENDBRANCH  14  15
ENDBRANCH   1  14
TORSDOF 5
ENDMDL
MODEL 5
REMARK VINA RESULT:      -7.2      2.484      4.855
REMARK  Name = 
REMARK  5 active torsions:
REMARK  status: ('A' for Active; 'I' for Inactive)
REMARK    1  A    between atoms: C_2  and  C_3
REMARK    2  A    between atoms: C_3  and  S_4
REMARK    3  A    between atoms: S_4  and  C_5
REMARK    4  A    between atoms: C_8  and  C_9
REMARK    5  A    between atoms: N_16  and  C_17
REMARK                            x       y       z     vdW  Elec       q    Type
REMARK                         _______ _______ _______ _____ _____    ______ ____
ROOT
ATOM      1  C   UNL     1       5.350   6.249  15.486  0.00  0.00    +0.000 C 
ENDROOT
BRANCH   1   3
ATOM      2  O   UNL     1       5.684   7.495  17.490  0.00  0.00    +0.000 OA
ATOM      3  C   UNL     1       4.872   6.915  16.771  0.00  0.00    +0.000 C 
ATOM      4  N   UNL     1       3.507   6.859  17.002  0.00  0.00    +0.000 N 
ATOM      5  H   UNL     1       2.995   6.195  16.432  0.00  0.00    +0.000 HD
BRANCH   4   6
ATOM      6  C   UNL     1       2.813   7.451  18.083  0.00  0.00    +0.000 A 
ATOM      7  C   UNL     1       2.696   6.861  19.343  0.00  0.00    +0.000 A 
ATOM      8  C   UNL     1       1.956   7.476  20.359  0.00  0.00    +0.000 A 
ATOM      9  C   UNL     1       1.321   8.697  20.127  0.00  0.00    +0.000 A 
ATOM     10 CL   UNL     1       0.389   9.383  21.409  0.00  0.00    +0.000 Cl
ATOM     11  C   UNL     1       1.458   9.314  18.881  0.00  0.00    +0.000 A 
ATOM     12 CL   UNL     1       0.711  10.828  18.512  0.00  0.00    +0.000 Cl
ATOM     13  C   UNL     1       2.211   8.698  17.867  0.00  0.00    +0.000 A 
ENDBRANCH   4   6
ENDBRANCH   1   3
BRANCH   1  14
ATOM     14  S   UNL     1       6.417   4.815  15.780  0.00  0.00    +0.000 S 
BRANCH  14  15
ATOM     15  C   UNL     1       5.766   4.254  17.297  0.00  0.00    +0.000 A 
ATOM     16  N   UNL     1       6.534   4.154  18.378  0.00  0.00    +0.000 NA
ATOM     17  N   UNL     1       5.649   3.772  19.312  0.00  0.00    +0.000 N 
ATOM     18  C   UNL     1       4.386   3.652  18.790  0.00  0.00    +0.000 A 
ATOM     19  N   UNL     1       4.448   3.956  17.503  0.00  0.00    +0.000 NA
ATOM     20  H   UNL     1       5.952   3.662  20.270  0.00  0.00    +0.000 HD
BRANCH  18  21
ATOM     21  C   UNL     1       3.193   3.319  19.563  0.00  0.00    +0.000 A 
ATOM     22  C   UNL     1       3.333   2.932  20.899  0.00  0.00    +0.000 A 
ATOM     23  C   UNL     1       2.199   2.593  21.618  0.00  0.00    +0.000 A 
ATOM     24  N   UNL     1       0.955   2.618  21.104  0.00  0.00    +0.000 NA
ATOM     25  C   UNL     1       0.832   3.007  19.819  0.00  0.00    +0.000 A 
ATOM     26  C   UNL     1       1.907   3.359  19.015  0.00  0.00    +0.000 A 
ENDBRANCH  18  21
ENDBRANCH  14  15
ENDBRANCH   1  14
TORSDOF 5
ENDMDL
MODEL 6
REMARK VINA RESULT:      -7.2      1.459      2.198
REMARK  Name = 
REMARK  5 active torsions:
REMARK  status: ('A' for Active; 'I' for Inactive)
REMARK    1  A    between atoms: C_2  and  C_3
REMARK    2  A    between atoms: C_3  and  S_4
REMARK    3  A    between atoms: S_4  and  C_5
REMARK    4  A    between atoms: C_8  and  C_9
REMARK    5  A    between atoms: N_16  and  C_17
REMARK                            x       y       z     vdW  Elec       q    Type
REMARK                         _______ _______ _______ _____ _____    ______ ____
ROOT
ATOM      1  C   UNL     1       2.396   3.104  21.043  0.00  0.00    +0.000 C 
ENDROOT
BRANCH   1   3
ATOM      2  O   UNL     1       0.463   4.282  20.299  0.00  0.00    +0.000 OA
ATOM      3  C   UNL     1       1.633   4.369  20.666  0.00  0.00    +0.000 C 
ATOM      4  N   UNL     1       2.327   5.557  20.828  0.00  0.00    +0.000 N 
ATOM      5  H   UNL     1       3.329   5.464  20.954  0.00  0.00    +0.000 HD
BRANCH   4   6
ATOM      6  C   UNL     1       1.824   6.860  20.610  0.00  0.00    +0.000 A 
ATOM      7  C   UNL     1       0.996   7.531  21.512  0.00  0.00    +0.000 A 
ATOM      8  C   UNL     1       0.493   8.803  21.216  0.00  0.00    +0.000 A 
ATOM      9  C   UNL     1       0.814   9.424  20.008  0.00  0.00    +0.000 A 
ATOM     10 CL   UNL     1       0.126  10.976  19.687  0.00  0.00    +0.000 Cl
ATOM     11  C   UNL     1       1.668   8.778  19.112  0.00  0.00    +0.000 A 
ATOM     12 CL   UNL     1       2.122   9.479  17.599  0.00  0.00    +0.000 Cl
ATOM     13  C   UNL     1       2.180   7.506  19.417  0.00  0.00    +0.000 A 
ENDBRANCH   4   6
ENDBRANCH   1   3
BRANCH   1  14
ATOM     14  S   UNL     1       2.772   2.047  19.620  0.00  0.00    +0.000 S 
BRANCH  14  15
ATOM     15  C   UNL     1       3.704   3.159  18.651  0.00  0.00    +0.000 A 
ATOM     16  N   UNL     1       3.395   3.382  17.376  0.00  0.00    +0.000 NA
ATOM     17  N   UNL     1       4.285   4.327  17.038  0.00  0.00    +0.000 N 
ATOM     18  C   UNL     1       5.099   4.654  18.093  0.00  0.00    +0.000 A 
ATOM     19  N   UNL     1       4.738   3.913  19.129  0.00  0.00    +0.000 NA
ATOM     20  H   UNL     1       4.254   4.733  16.112  0.00  0.00    +0.000 HD
BRANCH  18  21
ATOM     21  C   UNL     1       6.122   5.696  18.065  0.00  0.00    +0.000 A 
ATOM     22  C   UNL     1       7.211   5.605  18.937  0.00  0.00    +0.000 A 
ATOM     23  C   UNL     1       8.163   6.610  18.923  0.00  0.00    +0.000 A 
ATOM     24  N   UNL     1       8.105   7.680  18.107  0.00  0.00    +0.000 NA
ATOM     25  C   UNL     1       7.058   7.749  17.262  0.00  0.00    +0.000 A 
ATOM     26  C   UNL     1       6.050   6.796  17.205  0.00  0.00    +0.000 A 
ENDBRANCH  18  21
ENDBRANCH  14  15
ENDBRANCH   1  14
TORSDOF 5
ENDMDL
MODEL 7
REMARK VINA RESULT:      -7.1      5.352      7.209
REMARK  Name = 
REMARK  5 active torsions:
REMARK  status: ('A' for Active; 'I' for Inactive)
REMARK    1  A    between atoms: C_2  and  C_3
REMARK    2  A    between atoms: C_3  and  S_4
REMARK    3  A    between atoms: S_4  and  C_5
REMARK    4  A    between atoms: C_8  and  C_9
REMARK    5  A    between atoms: N_16  and  C_17
REMARK                            x       y       z     vdW  Elec       q    Type
REMARK                         _______ _______ _______ _____ _____    ______ ____
ROOT
ATOM      1  C   UNL     1       7.911   6.860  18.394  0.00  0.00    +0.000 C 
ENDROOT
BRANCH   1   3
ATOM      2  O   UNL     1       7.541   8.953  17.317  0.00  0.00    +0.000 OA
ATOM      3  C   UNL     1       8.155   8.352  18.197  0.00  0.00    +0.000 C 
ATOM      4  N   UNL     1       9.034   8.938  19.092  0.00  0.00    +0.000 N 
ATOM      5  H   UNL     1       9.600   8.293  19.633  0.00  0.00    +0.000 HD
BRANCH   4   6
ATOM      6  C   UNL     1       9.375  10.308  19.159  0.00  0.00    +0.000 A 
ATOM      7  C   UNL     1       9.827  11.047  18.064  0.00  0.00    +0.000 A 
ATOM      8  C   UNL     1      10.194  12.390  18.206  0.00  0.00    +0.000 A 
ATOM      9  C   UNL     1      10.112  13.016  19.450  0.00  0.00    +0.000 A 
ATOM     10 CL   UNL     1      10.618  14.663  19.564  0.00  0.00    +0.000 Cl
ATOM     11  C   UNL     1       9.629  12.297  20.546  0.00  0.00    +0.000 A 
ATOM     12 CL   UNL     1       9.488  12.997  22.120  0.00  0.00    +0.000 Cl
ATOM     13  C   UNL     1       9.252  10.952  20.398  0.00  0.00    +0.000 A 
ENDBRANCH   4   6
ENDBRANCH   1   3
BRANCH   1  14
ATOM     14  S   UNL     1       7.143   6.066  16.958  0.00  0.00    +0.000 S 
BRANCH  14  15
ATOM     15  C   UNL     1       5.488   5.983  17.503  0.00  0.00    +0.000 A 
ATOM     16  N   UNL     1       4.626   6.958  17.230  0.00  0.00    +0.000 NA
ATOM     17  N   UNL     1       3.488   6.474  17.750  0.00  0.00    +0.000 N 
ATOM     18  C   UNL     1       3.677   5.238  18.315  0.00  0.00    +0.000 A 
ATOM     19  N   UNL     1       4.951   4.914  18.165  0.00  0.00    +0.000 NA
ATOM     20  H   UNL     1       2.630   6.999  17.645  0.00  0.00    +0.000 HD
BRANCH  18  21
ATOM     21  C   UNL     1       2.619   4.419  18.901  0.00  0.00    +0.000 A 
ATOM     22  C   UNL     1       1.975   3.467  18.106  0.00  0.00    +0.000 A 
ATOM     23  C   UNL     1       0.956   2.713  18.662  0.00  0.00    +0.000 A 
ATOM     24  N   UNL     1       0.546   2.839  19.938  0.00  0.00    +0.000 NA
ATOM     25  C   UNL     1       1.185   3.750  20.698  0.00  0.00    +0.000 A 
ATOM     26  C   UNL     1       2.213   4.558  20.232  0.00  0.00    +0.000 A 
ENDBRANCH  18  21
ENDBRANCH  14  15
ENDBRANCH   1  14
TORSDOF 5
ENDMDL
MODEL 8
REMARK VINA RESULT:      -7.1      1.277      2.093
REMARK  Name = 
REMARK  5 active torsions:
REMARK  status: ('A' for Active; 'I' for Inactive)
REMARK    1  A    between atoms: C_2  and  C_3
REMARK    2  A    between atoms: C_3  and  S_4
REMARK    3  A    between atoms: S_4  and  C_5
REMARK    4  A    between atoms: C_8  and  C_9
REMARK    5  A    between atoms: N_16  and  C_17
REMARK                            x       y       z     vdW  Elec       q    Type
REMARK                         _______ _______ _______ _____ _____    ______ ____
ROOT
ATOM      1  C   UNL     1       1.507   2.656  21.204  0.00  0.00    +0.000 C 
ENDROOT
BRANCH   1   3
ATOM      2  O   UNL     1       0.689   3.848  19.310  0.00  0.00    +0.000 OA
ATOM      3  C   UNL     1       1.384   3.894  20.324  0.00  0.00    +0.000 C 
ATOM      4  N   UNL     1       2.040   5.024  20.785  0.00  0.00    +0.000 N 
ATOM      5  H   UNL     1       2.718   4.864  21.522  0.00  0.00    +0.000 HD
BRANCH   4   6
ATOM      6  C   UNL     1       2.027   6.305  20.187  0.00  0.00    +0.000 A 
ATOM      7  C   UNL     1       1.372   7.408  20.737  0.00  0.00    +0.000 A 
ATOM      8  C   UNL     1       1.356   8.640  20.072  0.00  0.00    +0.000 A 
ATOM      9  C   UNL     1       2.002   8.785  18.843  0.00  0.00    +0.000 A 
ATOM     10 CL   UNL     1       1.911  10.320  18.056  0.00  0.00    +0.000 Cl
ATOM     11  C   UNL     1       2.689   7.698  18.299  0.00  0.00    +0.000 A 
ATOM     12 CL   UNL     1       3.521   7.793  16.787  0.00  0.00    +0.000 Cl
ATOM     13  C   UNL     1       2.711   6.466  18.974  0.00  0.00    +0.000 A 
ENDBRANCH   4   6
ENDBRANCH   1   3
BRANCH   1  14
ATOM     14  S   UNL     1       3.220   2.108  21.429  0.00  0.00    +0.000 S 
BRANCH  14  15
ATOM     15  C   UNL     1       3.874   2.497  19.860  0.00  0.00    +0.000 A 
ATOM     16  N   UNL     1       3.440   1.879  18.765  0.00  0.00    +0.000 NA
ATOM     17  N   UNL     1       4.127   2.511  17.801  0.00  0.00    +0.000 N 
ATOM     18  C   UNL     1       4.947   3.481  18.320  0.00  0.00    +0.000 A 
ATOM     19  N   UNL     1       4.795   3.481  19.634  0.00  0.00    +0.000 NA
ATOM     20  H   UNL     1       3.960   2.273  16.832  0.00  0.00    +0.000 HD
BRANCH  18  21
ATOM     21  C   UNL     1       5.771   4.388  17.525  0.00  0.00    +0.000 A 
ATOM     22  C   UNL     1       6.148   5.619  18.070  0.00  0.00    +0.000 A 
ATOM     23  C   UNL     1       6.908   6.485  17.301  0.00  0.00    +0.000 A 
ATOM     24  N   UNL     1       7.313   6.208  16.047  0.00  0.00    +0.000 NA
ATOM     25  C   UNL     1       6.954   5.012  15.539  0.00  0.00    +0.000 A 
ATOM     26  C   UNL     1       6.190   4.080  16.227  0.00  0.00    +0.000 A 
ENDBRANCH  18  21
ENDBRANCH  14  15
ENDBRANCH   1  14
TORSDOF 5
ENDMDL
MODEL 9
REMARK VINA RESULT:      -7.0      4.903      6.981
REMARK  Name = 
REMARK  5 active torsions:
REMARK  status: ('A' for Active; 'I' for Inactive)
REMARK    1  A    between atoms: C_2  and  C_3
REMARK    2  A    between atoms: C_3  and  S_4
REMARK    3  A    between atoms: S_4  and  C_5
REMARK    4  A    between atoms: C_8  and  C_9
REMARK    5  A    between atoms: N_16  and  C_17
REMARK                            x       y       z     vdW  Elec       q    Type
REMARK                         _______ _______ _______ _____ _____    ______ ____
ROOT
ATOM      1  C   UNL     1       7.683   6.100  18.437  0.00  0.00    +0.000 C 
ENDROOT
BRANCH   1   3
ATOM      2  O   UNL     1       7.419   7.915  16.915  0.00  0.00    +0.000 OA
ATOM      3  C   UNL     1       7.897   7.541  17.984  0.00  0.00    +0.000 C 
ATOM      4  N   UNL     1       8.586   8.351  18.871  0.00  0.00    +0.000 N 
ATOM      5  H   UNL     1       9.076   7.866  19.615  0.00  0.00    +0.000 HD
BRANCH   4   6
ATOM      6  C   UNL     1       8.856   9.730  18.714  0.00  0.00    +0.000 A 
ATOM      7  C   UNL     1       8.202  10.545  17.788  0.00  0.00    +0.000 A 
ATOM      8  C   UNL     1       8.549  11.894  17.648  0.00  0.00    +0.000 A 
ATOM      9  C   UNL     1       9.557  12.448  18.437  0.00  0.00    +0.000 A 
ATOM     10 CL   UNL     1       9.963  14.108  18.186  0.00  0.00    +0.000 Cl
ATOM     11  C   UNL     1      10.195  11.651  19.391  0.00  0.00    +0.000 A 
ATOM     12 CL   UNL     1      11.448  12.259  20.414  0.00  0.00    +0.000 Cl
ATOM     13  C   UNL     1       9.838  10.300  19.536  0.00  0.00    +0.000 A 
ENDBRANCH   4   6
ENDBRANCH   1   3
BRANCH   1  14
ATOM     14  S   UNL     1       7.425   4.951  17.061  0.00  0.00    +0.000 S 
BRANCH  14  15
ATOM     15  C   UNL     1       5.795   4.431  17.398  0.00  0.00    +0.000 A 
ATOM     16  N   UNL     1       5.007   3.973  16.429  0.00  0.00    +0.000 NA
ATOM     17  N   UNL     1       3.905   3.623  17.111  0.00  0.00    +0.000 N 
ATOM     18  C   UNL     1       4.044   3.868  18.453  0.00  0.00    +0.000 A 
ATOM     19  N   UNL     1       5.246   4.386  18.649  0.00  0.00    +0.000 NA
ATOM     20  H   UNL     1       3.134   3.188  16.622  0.00  0.00    +0.000 HD
BRANCH  18  21
ATOM     21  C   UNL     1       3.049   3.533  19.469  0.00  0.00    +0.000 A 
ATOM     22  C   UNL     1       1.756   4.049  19.351  0.00  0.00    +0.000 A 
ATOM     23  C   UNL     1       0.825   3.748  20.332  0.00  0.00    +0.000 A 
ATOM     24  N   UNL     1       1.094   2.977  21.402  0.00  0.00    +0.000 NA
ATOM     25  C   UNL     1       2.341   2.474  21.496  0.00  0.00    +0.000 A 
ATOM     26  C   UNL     1       3.343   2.723  20.570  0.00  0.00    +0.000 A 
ENDBRANCH  18  21
ENDBRANCH  14  15
ENDBRANCH   1  14
TORSDOF 5
ENDMDL
