MODEL 1
REMARK VINA RESULT:      -8.3      0.000      0.000
REMARK  Name = 
REMARK  6 active torsions:
REMARK  status: ('A' for Active; 'I' for Inactive)
REMARK    1  A    between atoms: C_1  and  N_2
REMARK    2  A    between atoms: C_14  and  C_15
REMARK    3  A    between atoms: C_15  and  C_16
REMARK    4  A    between atoms: N_18  and  C_19
REMARK    5  A    between atoms: C_19  and  C_20
REMARK    6  A    between atoms: N_26  and  C_27
REMARK                            x       y       z     vdW  Elec       q    Type
REMARK                         _______ _______ _______ _____ _____    ______ ____
ROOT
ATOM      1  C   UNL     1       1.540  17.189  19.995  0.00  0.00    +0.000 C 
ATOM      2  N   UNL     1       0.974  15.861  20.209  0.00  0.00    +0.000 NA
ATOM      3  C   UNL     1       1.753  14.813  19.523  0.00  0.00    +0.000 C 
ATOM      4  C   UNL     1       1.172  13.393  19.787  0.00  0.00    +0.000 C 
ATOM      5  N   UNL     1      -0.274  13.293  19.471  0.00  0.00    +0.000 N 
ATOM      6  C   UNL     1      -0.943  12.159  18.970  0.00  0.00    +0.000 C 
ATOM      7  N   UNL     1      -1.876  12.405  18.079  0.00  0.00    +0.000 NA
ATOM      8  C   UNL     1      -2.342  11.392  17.226  0.00  0.00    +0.000 A 
ATOM      9  C   UNL     1      -2.985  11.784  16.037  0.00  0.00    +0.000 A 
ATOM     10  C   UNL     1      -3.252  10.875  15.014  0.00  0.00    +0.000 A 
ATOM     11  C   UNL     1      -2.974   9.524  15.205  0.00  0.00    +0.000 A 
ATOM     12  C   UNL     1      -2.335   9.118  16.377  0.00  0.00    +0.000 A 
ATOM     13  C   UNL     1      -1.920  10.067  17.343  0.00  0.00    +0.000 A 
ATOM     14  C   UNL     1      -0.856   9.721  18.384  0.00  0.00    +0.000 C 
ATOM     15  N   UNL     1      -0.484  10.865  19.301  0.00  0.00    +0.000 N 
ATOM     16  C   UNL     1      -1.080  14.433  19.961  0.00  0.00    +0.000 C 
ATOM     17  C   UNL     1      -0.421  15.804  19.727  0.00  0.00    +0.000 C 
ENDROOT
BRANCH  15  18
ATOM     18  C   UNL     1      -0.151  10.503  20.651  0.00  0.00    +0.000 A 
ATOM     19  C   UNL     1      -0.853  10.940  21.800  0.00  0.00    +0.000 A 
ATOM     20  C   UNL     1      -0.617  10.418  23.076  0.00  0.00    +0.000 A 
ATOM     21  C   UNL     1       0.366   9.452  23.274  0.00  0.00    +0.000 A 
ATOM     22  C   UNL     1       1.149   9.070  22.198  0.00  0.00    +0.000 A 
ATOM     23  C   UNL     1       0.923   9.641  20.942  0.00  0.00    +0.000 A 
ENDBRANCH  15  18
BRANCH  14  24
ATOM     24  C   UNL     1       0.372   8.999  17.725  0.00  0.00    +0.000 C 
BRANCH  24  25
ATOM     25  C   UNL     1       1.893   9.251  17.822  0.00  0.00    +0.000 C 
ATOM     26  O   UNL     1       2.289  10.421  17.699  0.00  0.00    +0.000 OA
ATOM     27  N   UNL     1       2.853   8.337  18.140  0.00  0.00    +0.000 N 
ATOM     28  H   UNL     1       3.779   8.741  18.085  0.00  0.00    +0.000 HD
BRANCH  27  29
ATOM     29  C   UNL     1       2.756   6.993  17.696  0.00  0.00    +0.000 C 
BRANCH  29  30
ATOM     30  C   UNL     1       2.412   5.876  18.624  0.00  0.00    +0.000 A 
ATOM     31  C   UNL     1       2.165   6.084  19.978  0.00  0.00    +0.000 A 
ATOM     32  C   UNL     1       1.535   5.088  20.733  0.00  0.00    +0.000 A 
ATOM     33  C   UNL     1       1.136   3.885  20.146  0.00  0.00    +0.000 A 
ATOM     34  C   UNL     1       1.352   3.671  18.799  0.00  0.00    +0.000 A 
ATOM     35  C   UNL     1       1.983   4.665  18.051  0.00  0.00    +0.000 A 
ENDBRANCH  29  30
ENDBRANCH  27  29
ENDBRANCH  24  25
ENDBRANCH  14  24
TORSDOF 5
ENDMDL
MODEL 2
REMARK VINA RESULT:      -7.6      3.216      6.608
REMARK  Name = 
REMARK  6 active torsions:
REMARK  status: ('A' for Active; 'I' for Inactive)
REMARK    1  A    between atoms: C_1  and  N_2
REMARK    2  A    between atoms: C_14  and  C_15
REMARK    3  A    between atoms: C_15  and  C_16
REMARK    4  A    between atoms: N_18  and  C_19
REMARK    5  A    between atoms: C_19  and  C_20
REMARK    6  A    between atoms: N_26  and  C_27
REMARK                            x       y       z     vdW  Elec       q    Type
REMARK                         _______ _______ _______ _____ _____    ______ ____
ROOT
ATOM      1  C   UNL     1       3.821  15.275  18.329  0.00  0.00    +0.000 C 
ATOM      2  N   UNL     1       3.044  14.462  19.261  0.00  0.00    +0.000 NA
ATOM      3  C   UNL     1       1.634  14.344  18.844  0.00  0.00    +0.000 C 
ATOM      4  C   UNL     1       0.817  13.443  19.815  0.00  0.00    +0.000 C 
ATOM      5  N   UNL     1       0.933  13.867  21.232  0.00  0.00    +0.000 N 
ATOM      6  C   UNL     1      -0.067  13.767  22.219  0.00  0.00    +0.000 C 
ATOM      7  N   UNL     1      -0.134  14.778  23.056  0.00  0.00    +0.000 NA
ATOM      8  C   UNL     1      -1.290  15.003  23.820  0.00  0.00    +0.000 A 
ATOM      9  C   UNL     1      -1.485  16.295  24.343  0.00  0.00    +0.000 A 
ATOM     10  C   UNL     1      -2.706  16.688  24.890  0.00  0.00    +0.000 A 
ATOM     11  C   UNL     1      -3.731  15.756  25.023  0.00  0.00    +0.000 A 
ATOM     12  C   UNL     1      -3.556  14.470  24.509  0.00  0.00    +0.000 A 
ATOM     13  C   UNL     1      -2.374  14.124  23.810  0.00  0.00    +0.000 A 
ATOM     14  C   UNL     1      -2.334  12.915  22.875  0.00  0.00    +0.000 C 
ATOM     15  N   UNL     1      -1.015  12.723  22.160  0.00  0.00    +0.000 N 
ATOM     16  C   UNL     1       2.312  14.203  21.652  0.00  0.00    +0.000 C 
ATOM     17  C   UNL     1       3.088  15.040  20.619  0.00  0.00    +0.000 C 
ENDROOT
BRANCH  15  18
ATOM     18  C   UNL     1      -0.626  11.361  21.920  0.00  0.00    +0.000 A 
ATOM     19  C   UNL     1      -0.443  10.787  20.640  0.00  0.00    +0.000 A 
ATOM     20  C   UNL     1       0.117   9.519  20.450  0.00  0.00    +0.000 A 
ATOM     21  C   UNL     1       0.491   8.741  21.542  0.00  0.00    +0.000 A 
ATOM     22  C   UNL     1       0.235   9.217  22.816  0.00  0.00    +0.000 A 
ATOM     23  C   UNL     1      -0.368  10.468  22.978  0.00  0.00    +0.000 A 
ENDBRANCH  15  18
BRANCH  14  24
ATOM     24  C   UNL     1      -3.589  12.884  21.932  0.00  0.00    +0.000 C 
BRANCH  24  25
ATOM     25  C   UNL     1      -3.919  13.640  20.626  0.00  0.00    +0.000 C 
ATOM     26  O   UNL     1      -4.112  14.863  20.706  0.00  0.00    +0.000 OA
ATOM     27  N   UNL     1      -3.917  13.127  19.364  0.00  0.00    +0.000 N 
ATOM     28  H   UNL     1      -4.219  13.814  18.686  0.00  0.00    +0.000 HD
BRANCH  27  29
ATOM     29  C   UNL     1      -4.358  11.801  19.113  0.00  0.00    +0.000 C 
BRANCH  29  30
ATOM     30  C   UNL     1      -3.931  11.040  17.903  0.00  0.00    +0.000 A 
ATOM     31  C   UNL     1      -4.488  11.265  16.647  0.00  0.00    +0.000 A 
ATOM     32  C   UNL     1      -3.847  10.780  15.502  0.00  0.00    +0.000 A 
ATOM     33  C   UNL     1      -2.642  10.080  15.596  0.00  0.00    +0.000 A 
ATOM     34  C   UNL     1      -2.063   9.867  16.831  0.00  0.00    +0.000 A 
ATOM     35  C   UNL     1      -2.707  10.349  17.970  0.00  0.00    +0.000 A 
ENDBRANCH  29  30
ENDBRANCH  27  29
ENDBRANCH  24  25
ENDBRANCH  14  24
TORSDOF 5
ENDMDL
MODEL 3
REMARK VINA RESULT:      -7.5      4.937      8.672
REMARK  Name = 
REMARK  6 active torsions:
REMARK  status: ('A' for Active; 'I' for Inactive)
REMARK    1  A    between atoms: C_1  and  N_2
REMARK    2  A    between atoms: C_14  and  C_15
REMARK    3  A    between atoms: C_15  and  C_16
REMARK    4  A    between atoms: N_18  and  C_19
REMARK    5  A    between atoms: C_19  and  C_20
REMARK    6  A    between atoms: N_26  and  C_27
REMARK                            x       y       z     vdW  Elec       q    Type
REMARK                         _______ _______ _______ _____ _____    ______ ____
ROOT
ATOM      1  C   UNL     1      -0.281  10.198  19.120  0.00  0.00    +0.000 C 
ATOM      2  N   UNL     1       0.280  11.507  19.440  0.00  0.00    +0.000 NA
ATOM      3  C   UNL     1       1.433  11.837  18.581  0.00  0.00    +0.000 C 
ATOM      4  C   UNL     1       2.003  13.251  18.895  0.00  0.00    +0.000 C 
ATOM      5  N   UNL     1       2.323  13.438  20.332  0.00  0.00    +0.000 N 
ATOM      6  C   UNL     1       3.370  14.218  20.860  0.00  0.00    +0.000 C 
ATOM      7  N   UNL     1       3.974  13.710  21.910  0.00  0.00    +0.000 NA
ATOM      8  C   UNL     1       5.247  14.160  22.296  0.00  0.00    +0.000 A 
ATOM      9  C   UNL     1       6.017  13.315  23.117  0.00  0.00    +0.000 A 
ATOM     10  C   UNL     1       7.373  13.549  23.342  0.00  0.00    +0.000 A 
ATOM     11  C   UNL     1       7.966  14.701  22.832  0.00  0.00    +0.000 A 
ATOM     12  C   UNL     1       7.218  15.550  22.016  0.00  0.00    +0.000 A 
ATOM     13  C   UNL     1       5.887  15.223  21.657  0.00  0.00    +0.000 A 
ATOM     14  C   UNL     1       5.213  15.869  20.447  0.00  0.00    +0.000 C 
ATOM     15  N   UNL     1       3.815  15.365  20.168  0.00  0.00    +0.000 N 
ATOM     16  C   UNL     1       1.282  12.931  21.254  0.00  0.00    +0.000 C 
ATOM     17  C   UNL     1       0.713  11.558  20.851  0.00  0.00    +0.000 C 
ENDROOT
BRANCH  15  18
ATOM     18  C   UNL     1       2.894  16.333  19.639  0.00  0.00    +0.000 A 
ATOM     19  C   UNL     1       2.764  16.658  18.268  0.00  0.00    +0.000 A 
ATOM     20  C   UNL     1       1.732  17.463  17.774  0.00  0.00    +0.000 A 
ATOM     21  C   UNL     1       0.792  18.016  18.638  0.00  0.00    +0.000 A 
ATOM     22  C   UNL     1       0.939  17.811  19.999  0.00  0.00    +0.000 A 
ATOM     23  C   UNL     1       2.006  17.041  20.470  0.00  0.00    +0.000 A 
ENDBRANCH  15  18
BRANCH  14  24
ATOM     24  C   UNL     1       6.162  15.862  19.196  0.00  0.00    +0.000 C 
BRANCH  24  25
ATOM     25  C   UNL     1       6.364  14.836  18.059  0.00  0.00    +0.000 C 
ATOM     26  O   UNL     1       5.347  14.368  17.523  0.00  0.00    +0.000 OA
ATOM     27  N   UNL     1       7.548  14.463  17.497  0.00  0.00    +0.000 N 
ATOM     28  H   UNL     1       7.415  13.736  16.806  0.00  0.00    +0.000 HD
BRANCH  27  29
ATOM     29  C   UNL     1       8.722  14.337  18.284  0.00  0.00    +0.000 C 
BRANCH  29  30
ATOM     30  C   UNL     1       9.200  13.015  18.785  0.00  0.00    +0.000 A 
ATOM     31  C   UNL     1       9.468  12.783  20.132  0.00  0.00    +0.000 A 
ATOM     32  C   UNL     1       9.593  11.471  20.602  0.00  0.00    +0.000 A 
ATOM     33  C   UNL     1       9.440  10.382  19.742  0.00  0.00    +0.000 A 
ATOM     34  C   UNL     1       9.151  10.592  18.408  0.00  0.00    +0.000 A 
ATOM     35  C   UNL     1       9.031  11.901  17.942  0.00  0.00    +0.000 A 
ENDBRANCH  29  30
ENDBRANCH  27  29
ENDBRANCH  24  25
ENDBRANCH  14  24
TORSDOF 5
ENDMDL
MODEL 4
REMARK VINA RESULT:      -7.4      5.681      9.178
REMARK  Name = 
REMARK  6 active torsions:
REMARK  status: ('A' for Active; 'I' for Inactive)
REMARK    1  A    between atoms: C_1  and  N_2
REMARK    2  A    between atoms: C_14  and  C_15
REMARK    3  A    between atoms: C_15  and  C_16
REMARK    4  A    between atoms: N_18  and  C_19
REMARK    5  A    between atoms: C_19  and  C_20
REMARK    6  A    between atoms: N_26  and  C_27
REMARK                            x       y       z     vdW  Elec       q    Type
REMARK                         _______ _______ _______ _____ _____    ______ ____
ROOT
ATOM      1  C   UNL     1      -0.785  10.476  19.385  0.00  0.00    +0.000 C 
ATOM      2  N   UNL     1      -0.036  11.722  19.521  0.00  0.00    +0.000 NA
ATOM      3  C   UNL     1       1.195  11.714  18.709  0.00  0.00    +0.000 C 
ATOM      4  C   UNL     1       1.971  13.060  18.821  0.00  0.00    +0.000 C 
ATOM      5  N   UNL     1       2.246  13.452  20.225  0.00  0.00    +0.000 N 
ATOM      6  C   UNL     1       3.378  14.147  20.692  0.00  0.00    +0.000 C 
ATOM      7  N   UNL     1       3.840  13.751  21.856  0.00  0.00    +0.000 NA
ATOM      8  C   UNL     1       5.148  14.066  22.256  0.00  0.00    +0.000 A 
ATOM      9  C   UNL     1       5.731  13.277  23.265  0.00  0.00    +0.000 A 
ATOM     10  C   UNL     1       7.095  13.340  23.550  0.00  0.00    +0.000 A 
ATOM     11  C   UNL     1       7.890  14.280  22.899  0.00  0.00    +0.000 A 
ATOM     12  C   UNL     1       7.329  15.071  21.896  0.00  0.00    +0.000 A 
ATOM     13  C   UNL     1       5.982  14.889  21.497  0.00  0.00    +0.000 A 
ATOM     14  C   UNL     1       5.482  15.401  20.147  0.00  0.00    +0.000 C 
ATOM     15  N   UNL     1       4.036  15.071  19.851  0.00  0.00    +0.000 N 
ATOM     16  C   UNL     1       1.093  13.281  21.138  0.00  0.00    +0.000 C 
ATOM     17  C   UNL     1       0.330  11.960  20.932  0.00  0.00    +0.000 C 
ENDROOT
BRANCH  15  18
ATOM     18  C   UNL     1       3.310  16.056  19.097  0.00  0.00    +0.000 A 
ATOM     19  C   UNL     1       3.464  16.283  17.709  0.00  0.00    +0.000 A 
ATOM     20  C   UNL     1       2.610  17.115  16.978  0.00  0.00    +0.000 A 
ATOM     21  C   UNL     1       1.573  17.795  17.610  0.00  0.00    +0.000 A 
ATOM     22  C   UNL     1       1.448  17.686  18.985  0.00  0.00    +0.000 A 
ATOM     23  C   UNL     1       2.343  16.884  19.698  0.00  0.00    +0.000 A 
ENDBRANCH  15  18
BRANCH  14  24
ATOM     24  C   UNL     1       6.477  15.027  18.992  0.00  0.00    +0.000 C 
BRANCH  24  25
ATOM     25  C   UNL     1       7.669  15.786  18.368  0.00  0.00    +0.000 C 
ATOM     26  O   UNL     1       7.528  17.002  18.161  0.00  0.00    +0.000 OA
ATOM     27  N   UNL     1       8.911  15.288  18.114  0.00  0.00    +0.000 N 
ATOM     28  H   UNL     1       9.496  15.973  17.654  0.00  0.00    +0.000 HD
BRANCH  27  29
ATOM     29  C   UNL     1       9.085  13.952  17.669  0.00  0.00    +0.000 C 
BRANCH  29  30
ATOM     30  C   UNL     1       9.929  12.972  18.414  0.00  0.00    +0.000 A 
ATOM     31  C   UNL     1      11.157  12.529  17.931  0.00  0.00    +0.000 A 
ATOM     32  C   UNL     1      12.053  11.882  18.790  0.00  0.00    +0.000 A 
ATOM     33  C   UNL     1      11.740  11.683  20.136  0.00  0.00    +0.000 A 
ATOM     34  C   UNL     1      10.536  12.137  20.639  0.00  0.00    +0.000 A 
ATOM     35  C   UNL     1       9.645  12.777  19.778  0.00  0.00    +0.000 A 
ENDBRANCH  29  30
ENDBRANCH  27  29
ENDBRANCH  24  25
ENDBRANCH  14  24
TORSDOF 5
ENDMDL
MODEL 5
REMARK VINA RESULT:      -7.3      3.153      6.554
REMARK  Name = 
REMARK  6 active torsions:
REMARK  status: ('A' for Active; 'I' for Inactive)
REMARK    1  A    between atoms: C_1  and  N_2
REMARK    2  A    between atoms: C_14  and  C_15
REMARK    3  A    between atoms: C_15  and  C_16
REMARK    4  A    between atoms: N_18  and  C_19
REMARK    5  A    between atoms: C_19  and  C_20
REMARK    6  A    between atoms: N_26  and  C_27
REMARK                            x       y       z     vdW  Elec       q    Type
REMARK                         _______ _______ _______ _____ _____    ______ ____
ROOT
ATOM      1  C   UNL     1       5.467  15.832  18.703  0.00  0.00    +0.000 C 
ATOM      2  N   UNL     1       4.630  14.708  19.114  0.00  0.00    +0.000 NA
ATOM      3  C   UNL     1       3.436  14.569  18.260  0.00  0.00    +0.000 C 
ATOM      4  C   UNL     1       2.567  13.345  18.674  0.00  0.00    +0.000 C 
ATOM      5  N   UNL     1       2.209  13.352  20.114  0.00  0.00    +0.000 N 
ATOM      6  C   UNL     1       1.014  12.866  20.680  0.00  0.00    +0.000 C 
ATOM      7  N   UNL     1       0.534  13.579  21.673  0.00  0.00    +0.000 NA
ATOM      8  C   UNL     1      -0.808  13.453  22.066  0.00  0.00    +0.000 A 
ATOM      9  C   UNL     1      -1.376  14.510  22.800  0.00  0.00    +0.000 A 
ATOM     10  C   UNL     1      -2.751  14.599  23.015  0.00  0.00    +0.000 A 
ATOM     11  C   UNL     1      -3.581  13.566  22.586  0.00  0.00    +0.000 A 
ATOM     12  C   UNL     1      -3.036  12.510  21.856  0.00  0.00    +0.000 A 
ATOM     13  C   UNL     1      -1.664  12.506  21.501  0.00  0.00    +0.000 A 
ATOM     14  C   UNL     1      -1.146  11.631  20.361  0.00  0.00    +0.000 C 
ATOM     15  N   UNL     1       0.331  11.792  20.072  0.00  0.00    +0.000 N 
ATOM     16  C   UNL     1       3.333  13.693  21.014  0.00  0.00    +0.000 C 
ATOM     17  C   UNL     1       4.192  14.869  20.516  0.00  0.00    +0.000 C 
ENDROOT
BRANCH  15  18
ATOM     18  C   UNL     1       1.017  10.605  19.642  0.00  0.00    +0.000 A 
ATOM     19  C   UNL     1       1.240   9.464  20.449  0.00  0.00    +0.000 A 
ATOM     20  C   UNL     1       1.742   8.262  19.940  0.00  0.00    +0.000 A 
ATOM     21  C   UNL     1       2.084   8.151  18.595  0.00  0.00    +0.000 A 
ATOM     22  C   UNL     1       1.981   9.272  17.789  0.00  0.00    +0.000 A 
ATOM     23  C   UNL     1       1.520  10.474  18.333  0.00  0.00    +0.000 A 
ENDBRANCH  15  18
BRANCH  14  24
ATOM     24  C   UNL     1      -2.065  11.743  19.093  0.00  0.00    +0.000 C 
BRANCH  24  25
ATOM     25  C   UNL     1      -2.615  10.678  18.118  0.00  0.00    +0.000 C 
ATOM     26  O   UNL     1      -1.793   9.934  17.560  0.00  0.00    +0.000 OA
ATOM     27  N   UNL     1      -3.925  10.388  17.880  0.00  0.00    +0.000 N 
ATOM     28  H   UNL     1      -4.022   9.686  17.159  0.00  0.00    +0.000 HD
BRANCH  27  29
ATOM     29  C   UNL     1      -4.907  11.413  17.857  0.00  0.00    +0.000 C 
BRANCH  29  30
ATOM     30  C   UNL     1      -5.683  11.792  19.074  0.00  0.00    +0.000 A 
ATOM     31  C   UNL     1      -5.694  13.091  19.575  0.00  0.00    +0.000 A 
ATOM     32  C   UNL     1      -6.671  13.475  20.500  0.00  0.00    +0.000 A 
ATOM     33  C   UNL     1      -7.651  12.575  20.924  0.00  0.00    +0.000 A 
ATOM     34  C   UNL     1      -7.670  11.289  20.420  0.00  0.00    +0.000 A 
ATOM     35  C   UNL     1      -6.692  10.910  19.502  0.00  0.00    +0.000 A 
ENDBRANCH  29  30
ENDBRANCH  27  29
ENDBRANCH  24  25
ENDBRANCH  14  24
TORSDOF 5
ENDMDL
MODEL 6
REMARK VINA RESULT:      -7.2      3.510      6.132
REMARK  Name = 
REMARK  6 active torsions:
REMARK  status: ('A' for Active; 'I' for Inactive)
REMARK    1  A    between atoms: C_1  and  N_2
REMARK    2  A    between atoms: C_14  and  C_15
REMARK    3  A    between atoms: C_15  and  C_16
REMARK    4  A    between atoms: N_18  and  C_19
REMARK    5  A    between atoms: C_19  and  C_20
REMARK    6  A    between atoms: N_26  and  C_27
REMARK                            x       y       z     vdW  Elec       q    Type
REMARK                         _______ _______ _______ _____ _____    ______ ____
ROOT
ATOM      1  C   UNL     1       1.075  17.687  24.653  0.00  0.00    +0.000 C 
ATOM      2  N   UNL     1       0.510  16.382  24.323  0.00  0.00    +0.000 NA
ATOM      3  C   UNL     1       0.371  16.195  22.866  0.00  0.00    +0.000 C 
ATOM      4  C   UNL     1      -0.193  14.787  22.514  0.00  0.00    +0.000 C 
ATOM      5  N   UNL     1      -1.457  14.477  23.227  0.00  0.00    +0.000 N 
ATOM      6  C   UNL     1      -2.525  13.702  22.734  0.00  0.00    +0.000 C 
ATOM      7  N   UNL     1      -3.725  14.134  23.050  0.00  0.00    +0.000 NA
ATOM      8  C   UNL     1      -4.854  13.713  22.330  0.00  0.00    +0.000 A 
ATOM      9  C   UNL     1      -6.011  14.510  22.404  0.00  0.00    +0.000 A 
ATOM     10  C   UNL     1      -7.087  14.323  21.537  0.00  0.00    +0.000 A 
ATOM     11  C   UNL     1      -7.071  13.257  20.642  0.00  0.00    +0.000 A 
ATOM     12  C   UNL     1      -5.932  12.456  20.555  0.00  0.00    +0.000 A 
ATOM     13  C   UNL     1      -4.779  12.749  21.323  0.00  0.00    +0.000 A 
ATOM     14  C   UNL     1      -3.409  12.192  20.936  0.00  0.00    +0.000 C 
ATOM     15  N   UNL     1      -2.275  12.651  21.826  0.00  0.00    +0.000 N 
ATOM     16  C   UNL     1      -1.447  14.840  24.662  0.00  0.00    +0.000 C 
ATOM     17  C   UNL     1      -0.818  16.215  24.949  0.00  0.00    +0.000 C 
ENDROOT
BRANCH  15  18
ATOM     18  C   UNL     1      -1.225  11.695  22.046  0.00  0.00    +0.000 A 
ATOM     19  C   UNL     1      -1.194  10.762  23.110  0.00  0.00    +0.000 A 
ATOM     20  C   UNL     1      -0.256   9.727  23.182  0.00  0.00    +0.000 A 
ATOM     21  C   UNL     1       0.728   9.594  22.206  0.00  0.00    +0.000 A 
ATOM     22  C   UNL     1       0.800  10.544  21.202  0.00  0.00    +0.000 A 
ATOM     23  C   UNL     1      -0.121  11.595  21.179  0.00  0.00    +0.000 A 
ENDBRANCH  15  18
BRANCH  14  24
ATOM     24  C   UNL     1      -3.135  12.368  19.401  0.00  0.00    +0.000 C 
BRANCH  24  25
ATOM     25  C   UNL     1      -1.980  11.886  18.495  0.00  0.00    +0.000 C 
ATOM     26  O   UNL     1      -1.912  10.670  18.253  0.00  0.00    +0.000 OA
ATOM     27  N   UNL     1      -1.079  12.666  17.836  0.00  0.00    +0.000 N 
ATOM     28  H   UNL     1      -0.391  12.106  17.351  0.00  0.00    +0.000 HD
BRANCH  27  29
ATOM     29  C   UNL     1      -0.580  13.859  18.422  0.00  0.00    +0.000 C 
BRANCH  29  30
ATOM     30  C   UNL     1       0.871  14.050  18.714  0.00  0.00    +0.000 A 
ATOM     31  C   UNL     1       1.838  13.132  18.312  0.00  0.00    +0.000 A 
ATOM     32  C   UNL     1       3.189  13.497  18.311  0.00  0.00    +0.000 A 
ATOM     33  C   UNL     1       3.587  14.779  18.696  0.00  0.00    +0.000 A 
ATOM     34  C   UNL     1       2.640  15.710  19.076  0.00  0.00    +0.000 A 
ATOM     35  C   UNL     1       1.295  15.340  19.080  0.00  0.00    +0.000 A 
ENDBRANCH  29  30
ENDBRANCH  27  29
ENDBRANCH  24  25
ENDBRANCH  14  24
TORSDOF 5
ENDMDL
MODEL 7
REMARK VINA RESULT:      -7.2      3.967      6.346
REMARK  Name = 
REMARK  6 active torsions:
REMARK  status: ('A' for Active; 'I' for Inactive)
REMARK    1  A    between atoms: C_1  and  N_2
REMARK    2  A    between atoms: C_14  and  C_15
REMARK    3  A    between atoms: C_15  and  C_16
REMARK    4  A    between atoms: N_18  and  C_19
REMARK    5  A    between atoms: C_19  and  C_20
REMARK    6  A    between atoms: N_26  and  C_27
REMARK                            x       y       z     vdW  Elec       q    Type
REMARK                         _______ _______ _______ _____ _____    ______ ____
ROOT
ATOM      1  C   UNL     1       0.311  18.337  17.895  0.00  0.00    +0.000 C 
ATOM      2  N   UNL     1      -0.476  17.944  19.061  0.00  0.00    +0.000 NA
ATOM      3  C   UNL     1      -0.167  16.568  19.495  0.00  0.00    +0.000 C 
ATOM      4  C   UNL     1      -0.975  16.165  20.763  0.00  0.00    +0.000 C 
ATOM      5  N   UNL     1      -2.436  16.373  20.607  0.00  0.00    +0.000 N 
ATOM      6  C   UNL     1      -3.457  15.590  21.179  0.00  0.00    +0.000 C 
ATOM      7  N   UNL     1      -4.504  15.385  20.413  0.00  0.00    +0.000 NA
ATOM      8  C   UNL     1      -5.397  14.336  20.680  0.00  0.00    +0.000 A 
ATOM      9  C   UNL     1      -6.215  13.890  19.626  0.00  0.00    +0.000 A 
ATOM     10  C   UNL     1      -6.942  12.703  19.713  0.00  0.00    +0.000 A 
ATOM     11  C   UNL     1      -6.948  11.986  20.906  0.00  0.00    +0.000 A 
ATOM     12  C   UNL     1      -6.142  12.413  21.963  0.00  0.00    +0.000 A 
ATOM     13  C   UNL     1      -5.282  13.529  21.813  0.00  0.00    +0.000 A 
ATOM     14  C   UNL     1      -4.097  13.744  22.754  0.00  0.00    +0.000 C 
ATOM     15  N   UNL     1      -3.244  14.948  22.418  0.00  0.00    +0.000 N 
ATOM     16  C   UNL     1      -2.799  17.664  19.979  0.00  0.00    +0.000 C 
ATOM     17  C   UNL     1      -1.921  18.034  18.771  0.00  0.00    +0.000 C 
ENDROOT
BRANCH  15  18
ATOM     18  C   UNL     1      -2.668  15.639  23.539  0.00  0.00    +0.000 A 
ATOM     19  C   UNL     1      -3.172  16.842  24.090  0.00  0.00    +0.000 A 
ATOM     20  C   UNL     1      -2.699  17.380  25.291  0.00  0.00    +0.000 A 
ATOM     21  C   UNL     1      -1.667  16.758  25.988  0.00  0.00    +0.000 A 
ATOM     22  C   UNL     1      -1.073  15.637  25.434  0.00  0.00    +0.000 A 
ATOM     23  C   UNL     1      -1.533  15.146  24.209  0.00  0.00    +0.000 A 
ENDBRANCH  15  18
BRANCH  14  24
ATOM     24  C   UNL     1      -3.284  12.417  22.959  0.00  0.00    +0.000 C 
BRANCH  24  25
ATOM     25  C   UNL     1      -1.888  11.974  22.467  0.00  0.00    +0.000 C 
ATOM     26  O   UNL     1      -1.006  11.806  23.324  0.00  0.00    +0.000 OA
ATOM     27  N   UNL     1      -1.540  11.638  21.194  0.00  0.00    +0.000 N 
ATOM     28  H   UNL     1      -0.552  11.434  21.123  0.00  0.00    +0.000 HD
BRANCH  27  29
ATOM     29  C   UNL     1      -2.094  12.324  20.081  0.00  0.00    +0.000 C 
BRANCH  29  30
ATOM     30  C   UNL     1      -2.339  11.645  18.775  0.00  0.00    +0.000 A 
ATOM     31  C   UNL     1      -1.430  10.748  18.220  0.00  0.00    +0.000 A 
ATOM     32  C   UNL     1      -1.831   9.899  17.183  0.00  0.00    +0.000 A 
ATOM     33  C   UNL     1      -3.141   9.924  16.700  0.00  0.00    +0.000 A 
ATOM     34  C   UNL     1      -4.063  10.790  17.254  0.00  0.00    +0.000 A 
ATOM     35  C   UNL     1      -3.658  11.638  18.284  0.00  0.00    +0.000 A 
ENDBRANCH  29  30
ENDBRANCH  27  29
ENDBRANCH  24  25
ENDBRANCH  14  24
TORSDOF 5
ENDMDL
MODEL 8
REMARK VINA RESULT:      -7.2      3.807      6.625
REMARK  Name = 
REMARK  6 active torsions:
REMARK  status: ('A' for Active; 'I' for Inactive)
REMARK    1  A    between atoms: C_1  and  N_2
REMARK    2  A    between atoms: C_14  and  C_15
REMARK    3  A    between atoms: C_15  and  C_16
REMARK    4  A    between atoms: N_18  and  C_19
REMARK    5  A    between atoms: C_19  and  C_20
REMARK    6  A    between atoms: N_26  and  C_27
REMARK                            x       y       z     vdW  Elec       q    Type
REMARK                         _______ _______ _______ _____ _____    ______ ____
ROOT
ATOM      1  C   UNL     1       1.897  17.427  20.300  0.00  0.00    +0.000 C 
ATOM      2  N   UNL     1       1.174  16.293  20.868  0.00  0.00    +0.000 NA
ATOM      3  C   UNL     1       0.112  15.809  19.966  0.00  0.00    +0.000 C 
ATOM      4  C   UNL     1      -0.630  14.575  20.556  0.00  0.00    +0.000 C 
ATOM      5  N   UNL     1      -1.146  14.812  21.926  0.00  0.00    +0.000 N 
ATOM      6  C   UNL     1      -2.324  14.273  22.480  0.00  0.00    +0.000 C 
ATOM      7  N   UNL     1      -3.003  15.087  23.256  0.00  0.00    +0.000 NA
ATOM      8  C   UNL     1      -4.352  14.839  23.553  0.00  0.00    +0.000 A 
ATOM      9  C   UNL     1      -5.133  15.922  23.996  0.00  0.00    +0.000 A 
ATOM     10  C   UNL     1      -6.524  15.842  24.071  0.00  0.00    +0.000 A 
ATOM     11  C   UNL     1      -7.158  14.632  23.803  0.00  0.00    +0.000 A 
ATOM     12  C   UNL     1      -6.399  13.547  23.362  0.00  0.00    +0.000 A 
ATOM     13  C   UNL     1      -5.008  13.681  23.132  0.00  0.00    +0.000 A 
ATOM     14  C   UNL     1      -4.254  12.686  22.251  0.00  0.00    +0.000 C 
ATOM     15  N   UNL     1      -2.788  13.008  22.059  0.00  0.00    +0.000 N 
ATOM     16  C   UNL     1      -0.186  15.490  22.825  0.00  0.00    +0.000 C 
ATOM     17  C   UNL     1       0.563  16.661  22.162  0.00  0.00    +0.000 C 
ENDROOT
BRANCH  15  18
ATOM     18  C   UNL     1      -1.908  11.878  21.949  0.00  0.00    +0.000 A 
ATOM     19  C   UNL     1      -1.340  11.412  20.739  0.00  0.00    +0.000 A 
ATOM     20  C   UNL     1      -0.344  10.431  20.698  0.00  0.00    +0.000 A 
ATOM     21  C   UNL     1       0.112   9.836  21.872  0.00  0.00    +0.000 A 
ATOM     22  C   UNL     1      -0.487  10.185  23.070  0.00  0.00    +0.000 A 
ATOM     23  C   UNL     1      -1.513  11.135  23.078  0.00  0.00    +0.000 A 
ENDBRANCH  15  18
BRANCH  14  24
ATOM     24  C   UNL     1      -5.031  12.404  20.916  0.00  0.00    +0.000 C 
BRANCH  24  25
ATOM     25  C   UNL     1      -5.460  13.330  19.755  0.00  0.00    +0.000 C 
ATOM     26  O   UNL     1      -5.985  14.414  20.052  0.00  0.00    +0.000 OA
ATOM     27  N   UNL     1      -5.227  13.134  18.427  0.00  0.00    +0.000 N 
ATOM     28  H   UNL     1      -5.656  13.859  17.867  0.00  0.00    +0.000 HD
BRANCH  27  29
ATOM     29  C   UNL     1      -5.270  11.833  17.862  0.00  0.00    +0.000 C 
BRANCH  29  30
ATOM     30  C   UNL     1      -4.101  11.242  17.148  0.00  0.00    +0.000 A 
ATOM     31  C   UNL     1      -3.147  10.465  17.798  0.00  0.00    +0.000 A 
ATOM     32  C   UNL     1      -2.267   9.671  17.054  0.00  0.00    +0.000 A 
ATOM     33  C   UNL     1      -2.339   9.634  15.659  0.00  0.00    +0.000 A 
ATOM     34  C   UNL     1      -3.294  10.380  14.998  0.00  0.00    +0.000 A 
ATOM     35  C   UNL     1      -4.166  11.173  15.744  0.00  0.00    +0.000 A 
ENDBRANCH  29  30
ENDBRANCH  27  29
ENDBRANCH  24  25
ENDBRANCH  14  24
TORSDOF 5
ENDMDL
MODEL 9
REMARK VINA RESULT:      -7.1      4.291      8.253
REMARK  Name = 
REMARK  6 active torsions:
REMARK  status: ('A' for Active; 'I' for Inactive)
REMARK    1  A    between atoms: C_1  and  N_2
REMARK    2  A    between atoms: C_14  and  C_15
REMARK    3  A    between atoms: C_15  and  C_16
REMARK    4  A    between atoms: N_18  and  C_19
REMARK    5  A    between atoms: C_19  and  C_20
REMARK    6  A    between atoms: N_26  and  C_27
REMARK                            x       y       z     vdW  Elec       q    Type
REMARK                         _______ _______ _______ _____ _____    ______ ____
ROOT
ATOM      1  C   UNL     1       1.835   8.213  19.782  0.00  0.00    +0.000 C 
ATOM      2  N   UNL     1       1.113   9.479  19.866  0.00  0.00    +0.000 NA
ATOM      3  C   UNL     1       0.184   9.508  21.011  0.00  0.00    +0.000 C 
ATOM      4  C   UNL     1      -0.553  10.875  21.124  0.00  0.00    +0.000 C 
ATOM      5  N   UNL     1      -1.228  11.272  19.864  0.00  0.00    +0.000 N 
ATOM      6  C   UNL     1      -2.430  11.999  19.753  0.00  0.00    +0.000 C 
ATOM      7  N   UNL     1      -3.231  11.615  18.786  0.00  0.00    +0.000 NA
ATOM      8  C   UNL     1      -4.590  11.966  18.796  0.00  0.00    +0.000 A 
ATOM      9  C   UNL     1      -5.471  11.192  18.018  0.00  0.00    +0.000 A 
ATOM     10  C   UNL     1      -6.855  11.294  18.156  0.00  0.00    +0.000 A 
ATOM     11  C   UNL     1      -7.391  12.257  19.007  0.00  0.00    +0.000 A 
ATOM     12  C   UNL     1      -6.533  13.033  19.787  0.00  0.00    +0.000 A 
ATOM     13  C   UNL     1      -5.134  12.814  19.763  0.00  0.00    +0.000 A 
ATOM     14  C   UNL     1      -4.237  13.314  20.894  0.00  0.00    +0.000 C 
ATOM     15  N   UNL     1      -2.778  12.943  20.744  0.00  0.00    +0.000 N 
ATOM     16  C   UNL     1      -0.409  11.067  18.648  0.00  0.00    +0.000 C 
ATOM     17  C   UNL     1       0.346   9.725  18.629  0.00  0.00    +0.000 C 
ENDROOT
BRANCH  15  18
ATOM     18  C   UNL     1      -1.833  13.908  21.234  0.00  0.00    +0.000 A 
ATOM     19  C   UNL     1      -1.192  13.841  22.495  0.00  0.00    +0.000 A 
ATOM     20  C   UNL     1      -0.143  14.691  22.857  0.00  0.00    +0.000 A 
ATOM     21  C   UNL     1       0.298  15.682  21.985  0.00  0.00    +0.000 A 
ATOM     22  C   UNL     1      -0.367  15.853  20.783  0.00  0.00    +0.000 A 
ATOM     23  C   UNL     1      -1.443  15.020  20.464  0.00  0.00    +0.000 A 
ENDBRANCH  15  18
BRANCH  14  24
ATOM     24  C   UNL     1      -4.847  12.969  22.299  0.00  0.00    +0.000 C 
BRANCH  24  25
ATOM     25  C   UNL     1      -5.832  13.732  23.213  0.00  0.00    +0.000 C 
ATOM     26  O   UNL     1      -6.993  13.300  23.290  0.00  0.00    +0.000 OA
ATOM     27  N   UNL     1      -5.538  14.776  24.038  0.00  0.00    +0.000 N 
ATOM     28  H   UNL     1      -6.369  15.133  24.491  0.00  0.00    +0.000 HD
BRANCH  27  29
ATOM     29  C   UNL     1      -4.589  15.761  23.659  0.00  0.00    +0.000 C 
BRANCH  29  30
ATOM     30  C   UNL     1      -3.447  16.139  24.542  0.00  0.00    +0.000 A 
ATOM     31  C   UNL     1      -2.883  15.250  25.452  0.00  0.00    +0.000 A 
ATOM     32  C   UNL     1      -1.631  15.525  26.014  0.00  0.00    +0.000 A 
ATOM     33  C   UNL     1      -0.925  16.678  25.664  0.00  0.00    +0.000 A 
ATOM     34  C   UNL     1      -1.458  17.561  24.744  0.00  0.00    +0.000 A 
ATOM     35  C   UNL     1      -2.708  17.284  24.191  0.00  0.00    +0.000 A 
ENDBRANCH  29  30
ENDBRANCH  27  29
ENDBRANCH  24  25
ENDBRANCH  14  24
TORSDOF 5
ENDMDL
