MODEL 1
REMARK VINA RESULT:      -7.7      0.000      0.000
REMARK  Name = 
REMARK  4 active torsions:
REMARK  status: ('A' for Active; 'I' for Inactive)
REMARK    1  A    between atoms: C_1  and  N_2
REMARK    2  A    between atoms: C_4  and  C_5
REMARK    3  A    between atoms: N_9  and  C_10
REMARK    4  A    between atoms: C_10  and  C_11
REMARK                            x       y       z     vdW  Elec       q    Type
REMARK                         _______ _______ _______ _____ _____    ______ ____
ROOT
ATOM      1  C   UNL     1       7.339   5.032  14.081  0.00  0.00    +0.000 C 
ATOM      2  N   UNL     1       6.642   5.148  15.337  0.00  0.00    +0.000 N 
ATOM      3  C   UNL     1       7.037   4.609  16.518  0.00  0.00    +0.000 A 
ATOM      4  C   UNL     1       6.082   4.955  17.468  0.00  0.00    +0.000 A 
ATOM      5  C   UNL     1       5.108   5.713  16.690  0.00  0.00    +0.000 A 
ATOM      6  N   UNL     1       3.928   6.280  17.076  0.00  0.00    +0.000 N 
ATOM      7  N   UNL     1       5.503   5.845  15.418  0.00  0.00    +0.000 NA
ATOM      8  H   UNL     1       3.550   6.998  16.474  0.00  0.00    +0.000 HD
ENDROOT
BRANCH   4   9
ATOM      9  C   UNL     1       6.175   4.564  18.883  0.00  0.00    +0.000 C 
ATOM     10  N   UNL     1       5.532   3.413  19.248  0.00  0.00    +0.000 N 
ATOM     11  O   UNL     1       6.805   5.133  19.768  0.00  0.00    +0.000 OA
ATOM     12  H   UNL     1       5.093   2.781  18.601  0.00  0.00    +0.000 HD
ATOM     13  H   UNL     1       5.666   3.115  20.206  0.00  0.00    +0.000 HD
ENDBRANCH   4   9
BRANCH   6  14
ATOM     14  C   UNL     1       3.557   6.293  18.469  0.00  0.00    +0.000 C 
BRANCH  14  15
ATOM     15  C   UNL     1       2.163   5.833  18.922  0.00  0.00    +0.000 C 
ATOM     16  C   UNL     1       1.678   4.876  17.801  0.00  0.00    +0.000 C 
ATOM     17  C   UNL     1       2.351   3.498  17.845  0.00  0.00    +0.000 C 
ATOM     18  C   UNL     1       1.512   2.476  18.593  0.00  0.00    +0.000 C 
ATOM     19  C   UNL     1       1.349   2.742  20.090  0.00  0.00    +0.000 C 
ATOM     20  C   UNL     1       0.957   4.167  20.498  0.00  0.00    +0.000 C 
ATOM     21  C   UNL     1       2.093   5.193  20.319  0.00  0.00    +0.000 C 
ENDBRANCH  14  15
ENDBRANCH   6  14
TORSDOF 3
ENDMDL
MODEL 2
REMARK VINA RESULT:      -7.6      1.602      1.835
REMARK  Name = 
REMARK  4 active torsions:
REMARK  status: ('A' for Active; 'I' for Inactive)
REMARK    1  A    between atoms: C_1  and  N_2
REMARK    2  A    between atoms: C_4  and  C_5
REMARK    3  A    between atoms: N_9  and  C_10
REMARK    4  A    between atoms: C_10  and  C_11
REMARK                            x       y       z     vdW  Elec       q    Type
REMARK                         _______ _______ _______ _____ _____    ______ ____
ROOT
ATOM      1  C   UNL     1       6.814   4.069  12.342  0.00  0.00    +0.000 C 
ATOM      2  N   UNL     1       6.517   4.290  13.735  0.00  0.00    +0.000 N 
ATOM      3  C   UNL     1       7.379   4.778  14.663  0.00  0.00    +0.000 A 
ATOM      4  C   UNL     1       6.695   4.829  15.872  0.00  0.00    +0.000 A 
ATOM      5  C   UNL     1       5.381   4.295  15.527  0.00  0.00    +0.000 A 
ATOM      6  N   UNL     1       4.293   4.067  16.318  0.00  0.00    +0.000 N 
ATOM      7  N   UNL     1       5.299   4.022  14.219  0.00  0.00    +0.000 NA
ATOM      8  H   UNL     1       3.402   3.974  15.849  0.00  0.00    +0.000 HD
ENDROOT
BRANCH   4   9
ATOM      9  C   UNL     1       7.299   5.324  17.119  0.00  0.00    +0.000 C 
ATOM     10  N   UNL     1       7.802   4.384  17.976  0.00  0.00    +0.000 N 
ATOM     11  O   UNL     1       7.442   6.494  17.458  0.00  0.00    +0.000 OA
ATOM     12  H   UNL     1       7.872   3.404  17.764  0.00  0.00    +0.000 HD
ATOM     13  H   UNL     1       8.282   4.741  18.793  0.00  0.00    +0.000 HD
ENDBRANCH   4   9
BRANCH   6  14
ATOM     14  C   UNL     1       4.297   4.499  17.693  0.00  0.00    +0.000 C 
BRANCH  14  15
ATOM     15  C   UNL     1       3.036   5.088  18.343  0.00  0.00    +0.000 C 
ATOM     16  C   UNL     1       1.863   4.264  17.749  0.00  0.00    +0.000 C 
ATOM     17  C   UNL     1       1.743   2.858  18.351  0.00  0.00    +0.000 C 
ATOM     18  C   UNL     1       0.736   2.808  19.489  0.00  0.00    +0.000 C 
ATOM     19  C   UNL     1       1.128   3.599  20.736  0.00  0.00    +0.000 C 
ATOM     20  C   UNL     1       1.624   5.033  20.514  0.00  0.00    +0.000 C 
ATOM     21  C   UNL     1       3.027   5.110  19.881  0.00  0.00    +0.000 C 
ENDBRANCH  14  15
ENDBRANCH   6  14
TORSDOF 3
ENDMDL
MODEL 3
REMARK VINA RESULT:      -7.0      1.708      2.370
REMARK  Name = 
REMARK  4 active torsions:
REMARK  status: ('A' for Active; 'I' for Inactive)
REMARK    1  A    between atoms: C_1  and  N_2
REMARK    2  A    between atoms: C_4  and  C_5
REMARK    3  A    between atoms: N_9  and  C_10
REMARK    4  A    between atoms: C_10  and  C_11
REMARK                            x       y       z     vdW  Elec       q    Type
REMARK                         _______ _______ _______ _____ _____    ______ ____
ROOT
ATOM      1  C   UNL     1       6.947   4.186  12.279  0.00  0.00    +0.000 C 
ATOM      2  N   UNL     1       6.613   4.367  13.670  0.00  0.00    +0.000 N 
ATOM      3  C   UNL     1       7.458   4.796  14.640  0.00  0.00    +0.000 A 
ATOM      4  C   UNL     1       6.738   4.825  15.829  0.00  0.00    +0.000 A 
ATOM      5  C   UNL     1       5.422   4.343  15.425  0.00  0.00    +0.000 A 
ATOM      6  N   UNL     1       4.302   4.119  16.173  0.00  0.00    +0.000 N 
ATOM      7  N   UNL     1       5.373   4.118  14.106  0.00  0.00    +0.000 NA
ATOM      8  H   UNL     1       3.425   4.068  15.674  0.00  0.00    +0.000 HD
ENDROOT
BRANCH   4   9
ATOM      9  C   UNL     1       7.316   5.259  17.111  0.00  0.00    +0.000 C 
ATOM     10  N   UNL     1       7.794   4.277  17.935  0.00  0.00    +0.000 N 
ATOM     11  O   UNL     1       7.459   6.411  17.506  0.00  0.00    +0.000 OA
ATOM     12  H   UNL     1       7.862   3.307  17.680  0.00  0.00    +0.000 HD
ATOM     13  H   UNL     1       8.256   4.593  18.778  0.00  0.00    +0.000 HD
ENDBRANCH   4   9
BRANCH   6  14
ATOM     14  C   UNL     1       4.275   4.503  17.562  0.00  0.00    +0.000 C 
BRANCH  14  15
ATOM     15  C   UNL     1       3.847   3.508  18.651  0.00  0.00    +0.000 C 
ATOM     16  C   UNL     1       3.577   4.384  19.903  0.00  0.00    +0.000 C 
ATOM     17  C   UNL     1       2.254   5.157  19.829  0.00  0.00    +0.000 C 
ATOM     18  C   UNL     1       1.124   4.426  20.533  0.00  0.00    +0.000 C 
ATOM     19  C   UNL     1       0.700   3.109  19.883  0.00  0.00    +0.000 C 
ATOM     20  C   UNL     1       1.822   2.135  19.503  0.00  0.00    +0.000 C 
ATOM     21  C   UNL     1       2.658   2.599  18.295  0.00  0.00    +0.000 C 
ENDBRANCH  14  15
ENDBRANCH   6  14
TORSDOF 3
ENDMDL
MODEL 4
REMARK VINA RESULT:      -7.0      1.668      2.352
REMARK  Name = 
REMARK  4 active torsions:
REMARK  status: ('A' for Active; 'I' for Inactive)
REMARK    1  A    between atoms: C_1  and  N_2
REMARK    2  A    between atoms: C_4  and  C_5
REMARK    3  A    between atoms: N_9  and  C_10
REMARK    4  A    between atoms: C_10  and  C_11
REMARK                            x       y       z     vdW  Elec       q    Type
REMARK                         _______ _______ _______ _____ _____    ______ ____
ROOT
ATOM      1  C   UNL     1       7.017   4.106  12.195  0.00  0.00    +0.000 C 
ATOM      2  N   UNL     1       6.678   4.349  13.575  0.00  0.00    +0.000 N 
ATOM      3  C   UNL     1       7.355   5.157  14.429  0.00  0.00    +0.000 A 
ATOM      4  C   UNL     1       6.700   5.102  15.654  0.00  0.00    +0.000 A 
ATOM      5  C   UNL     1       5.612   4.163  15.401  0.00  0.00    +0.000 A 
ATOM      6  N   UNL     1       4.654   3.683  16.245  0.00  0.00    +0.000 N 
ATOM      7  N   UNL     1       5.607   3.764  14.123  0.00  0.00    +0.000 NA
ATOM      8  H   UNL     1       3.832   3.279  15.818  0.00  0.00    +0.000 HD
ENDROOT
BRANCH   4   9
ATOM      9  C   UNL     1       7.132   5.868  16.834  0.00  0.00    +0.000 C 
ATOM     10  N   UNL     1       6.816   7.198  16.854  0.00  0.00    +0.000 N 
ATOM     11  O   UNL     1       7.707   5.435  17.827  0.00  0.00    +0.000 OA
ATOM     12  H   UNL     1       6.233   7.652  16.172  0.00  0.00    +0.000 HD
ATOM     13  H   UNL     1       7.051   7.697  17.704  0.00  0.00    +0.000 HD
ENDBRANCH   4   9
BRANCH   6  14
ATOM     14  C   UNL     1       4.537   4.215  17.579  0.00  0.00    +0.000 C 
BRANCH  14  15
ATOM     15  C   UNL     1       3.400   5.179  17.952  0.00  0.00    +0.000 C 
ATOM     16  C   UNL     1       2.106   4.332  17.826  0.00  0.00    +0.000 C 
ATOM     17  C   UNL     1       1.907   3.352  18.989  0.00  0.00    +0.000 C 
ATOM     18  C   UNL     1       1.005   3.923  20.070  0.00  0.00    +0.000 C 
ATOM     19  C   UNL     1       1.579   5.122  20.826  0.00  0.00    +0.000 C 
ATOM     20  C   UNL     1       2.187   6.245  19.977  0.00  0.00    +0.000 C 
ATOM     21  C   UNL     1       3.529   5.865  19.322  0.00  0.00    +0.000 C 
ENDBRANCH  14  15
ENDBRANCH   6  14
TORSDOF 3
ENDMDL
MODEL 5
REMARK VINA RESULT:      -7.0      1.566      1.955
REMARK  Name = 
REMARK  4 active torsions:
REMARK  status: ('A' for Active; 'I' for Inactive)
REMARK    1  A    between atoms: C_1  and  N_2
REMARK    2  A    between atoms: C_4  and  C_5
REMARK    3  A    between atoms: N_9  and  C_10
REMARK    4  A    between atoms: C_10  and  C_11
REMARK                            x       y       z     vdW  Elec       q    Type
REMARK                         _______ _______ _______ _____ _____    ______ ____
ROOT
ATOM      1  C   UNL     1       6.639   3.905  13.113  0.00  0.00    +0.000 C 
ATOM      2  N   UNL     1       6.398   4.397  14.447  0.00  0.00    +0.000 N 
ATOM      3  C   UNL     1       7.348   4.772  15.340  0.00  0.00    +0.000 A 
ATOM      4  C   UNL     1       6.690   5.176  16.496  0.00  0.00    +0.000 A 
ATOM      5  C   UNL     1       5.286   4.960  16.164  0.00  0.00    +0.000 A 
ATOM      6  N   UNL     1       4.168   5.143  16.924  0.00  0.00    +0.000 N 
ATOM      7  N   UNL     1       5.148   4.531  14.903  0.00  0.00    +0.000 NA
ATOM      8  H   UNL     1       3.289   5.219  16.430  0.00  0.00    +0.000 HD
ENDROOT
BRANCH   4   9
ATOM      9  C   UNL     1       7.391   5.672  17.690  0.00  0.00    +0.000 C 
ATOM     10  N   UNL     1       7.834   4.732  18.580  0.00  0.00    +0.000 N 
ATOM     11  O   UNL     1       7.664   6.837  17.957  0.00  0.00    +0.000 OA
ATOM     12  H   UNL     1       7.797   3.741  18.421  0.00  0.00    +0.000 HD
ATOM     13  H   UNL     1       8.380   5.081  19.358  0.00  0.00    +0.000 HD
ENDBRANCH   4   9
BRANCH   6  14
ATOM     14  C   UNL     1       4.272   5.755  18.225  0.00  0.00    +0.000 C 
BRANCH  14  15
ATOM     15  C   UNL     1       4.127   4.922  19.507  0.00  0.00    +0.000 C 
ATOM     16  C   UNL     1       2.775   5.372  20.121  0.00  0.00    +0.000 C 
ATOM     17  C   UNL     1       1.555   4.798  19.388  0.00  0.00    +0.000 C 
ATOM     18  C   UNL     1       1.032   3.535  20.052  0.00  0.00    +0.000 C 
ATOM     19  C   UNL     1       1.972   2.332  19.987  0.00  0.00    +0.000 C 
ATOM     20  C   UNL     1       3.436   2.580  20.372  0.00  0.00    +0.000 C 
ATOM     21  C   UNL     1       4.219   3.397  19.326  0.00  0.00    +0.000 C 
ENDBRANCH  14  15
ENDBRANCH   6  14
TORSDOF 3
ENDMDL
MODEL 6
REMARK VINA RESULT:      -6.9      1.804      2.564
REMARK  Name = 
REMARK  4 active torsions:
REMARK  status: ('A' for Active; 'I' for Inactive)
REMARK    1  A    between atoms: C_1  and  N_2
REMARK    2  A    between atoms: C_4  and  C_5
REMARK    3  A    between atoms: N_9  and  C_10
REMARK    4  A    between atoms: C_10  and  C_11
REMARK                            x       y       z     vdW  Elec       q    Type
REMARK                         _______ _______ _______ _____ _____    ______ ____
ROOT
ATOM      1  C   UNL     1       6.284   3.641  13.086  0.00  0.00    +0.000 C 
ATOM      2  N   UNL     1       6.031   4.170  14.403  0.00  0.00    +0.000 N 
ATOM      3  C   UNL     1       5.926   5.484  14.724  0.00  0.00    +0.000 A 
ATOM      4  C   UNL     1       5.684   5.556  16.091  0.00  0.00    +0.000 A 
ATOM      5  C   UNL     1       5.695   4.155  16.498  0.00  0.00    +0.000 A 
ATOM      6  N   UNL     1       5.550   3.600  17.736  0.00  0.00    +0.000 N 
ATOM      7  N   UNL     1       5.864   3.347  15.443  0.00  0.00    +0.000 NA
ATOM      8  H   UNL     1       5.297   2.622  17.770  0.00  0.00    +0.000 HD
ENDROOT
BRANCH   4   9
ATOM      9  C   UNL     1       5.492   6.825  16.810  0.00  0.00    +0.000 C 
ATOM     10  N   UNL     1       6.621   7.528  17.131  0.00  0.00    +0.000 N 
ATOM     11  O   UNL     1       4.426   7.348  17.116  0.00  0.00    +0.000 OA
ATOM     12  H   UNL     1       7.546   7.283  16.825  0.00  0.00    +0.000 HD
ATOM     13  H   UNL     1       6.472   8.434  17.557  0.00  0.00    +0.000 HD
ENDBRANCH   4   9
BRANCH   6  14
ATOM     14  C   UNL     1       5.207   4.432  18.862  0.00  0.00    +0.000 C 
BRANCH  14  15
ATOM     15  C   UNL     1       3.975   4.127  19.727  0.00  0.00    +0.000 C 
ATOM     16  C   UNL     1       2.860   5.049  19.167  0.00  0.00    +0.000 C 
ATOM     17  C   UNL     1       2.277   4.557  17.835  0.00  0.00    +0.000 C 
ATOM     18  C   UNL     1       1.012   3.739  18.033  0.00  0.00    +0.000 C 
ATOM     19  C   UNL     1       1.209   2.402  18.748  0.00  0.00    +0.000 C 
ATOM     20  C   UNL     1       2.045   2.426  20.033  0.00  0.00    +0.000 C 
ATOM     21  C   UNL     1       3.550   2.650  19.786  0.00  0.00    +0.000 C 
ENDBRANCH  14  15
ENDBRANCH   6  14
TORSDOF 3
ENDMDL
MODEL 7
REMARK VINA RESULT:      -6.8      1.069      1.069
REMARK  Name = 
REMARK  4 active torsions:
REMARK  status: ('A' for Active; 'I' for Inactive)
REMARK    1  A    between atoms: C_1  and  N_2
REMARK    2  A    between atoms: C_4  and  C_5
REMARK    3  A    between atoms: N_9  and  C_10
REMARK    4  A    between atoms: C_10  and  C_11
REMARK                            x       y       z     vdW  Elec       q    Type
REMARK                         _______ _______ _______ _____ _____    ______ ____
ROOT
ATOM      1  C   UNL     1       7.285   4.745  13.487  0.00  0.00    +0.000 C 
ATOM      2  N   UNL     1       6.745   4.951  14.808  0.00  0.00    +0.000 N 
ATOM      3  C   UNL     1       7.454   4.950  15.965  0.00  0.00    +0.000 A 
ATOM      4  C   UNL     1       6.554   5.181  16.998  0.00  0.00    +0.000 A 
ATOM      5  C   UNL     1       5.275   5.281  16.302  0.00  0.00    +0.000 A 
ATOM      6  N   UNL     1       4.018   5.466  16.800  0.00  0.00    +0.000 N 
ATOM      7  N   UNL     1       5.438   5.180  14.977  0.00  0.00    +0.000 NA
ATOM      8  H   UNL     1       3.317   5.796  16.151  0.00  0.00    +0.000 HD
ENDROOT
BRANCH   4   9
ATOM      9  C   UNL     1       6.955   5.270  18.411  0.00  0.00    +0.000 C 
ATOM     10  N   UNL     1       7.813   6.281  18.746  0.00  0.00    +0.000 N 
ATOM     11  O   UNL     1       6.569   4.562  19.336  0.00  0.00    +0.000 OA
ATOM     12  H   UNL     1       8.100   7.010  18.117  0.00  0.00    +0.000 HD
ATOM     13  H   UNL     1       8.020   6.377  19.732  0.00  0.00    +0.000 HD
ENDBRANCH   4   9
BRANCH   6  14
ATOM     14  C   UNL     1       3.831   5.738  18.202  0.00  0.00    +0.000 C 
BRANCH  14  15
ATOM     15  C   UNL     1       2.450   5.601  18.859  0.00  0.00    +0.000 C 
ATOM     16  C   UNL     1       1.626   4.732  17.872  0.00  0.00    +0.000 C 
ATOM     17  C   UNL     1       2.000   3.245  17.914  0.00  0.00    +0.000 C 
ATOM     18  C   UNL     1       1.080   2.451  18.826  0.00  0.00    +0.000 C 
ATOM     19  C   UNL     1       1.186   2.794  20.312  0.00  0.00    +0.000 C 
ATOM     20  C   UNL     1       1.158   4.283  20.678  0.00  0.00    +0.000 C 
ATOM     21  C   UNL     1       2.445   5.037  20.291  0.00  0.00    +0.000 C 
ENDBRANCH  14  15
ENDBRANCH   6  14
TORSDOF 3
ENDMDL
MODEL 8
REMARK VINA RESULT:      -6.8      2.495      2.851
REMARK  Name = 
REMARK  4 active torsions:
REMARK  status: ('A' for Active; 'I' for Inactive)
REMARK    1  A    between atoms: C_1  and  N_2
REMARK    2  A    between atoms: C_4  and  C_5
REMARK    3  A    between atoms: N_9  and  C_10
REMARK    4  A    between atoms: C_10  and  C_11
REMARK                            x       y       z     vdW  Elec       q    Type
REMARK                         _______ _______ _______ _____ _____    ______ ____
ROOT
ATOM      1  C   UNL     1       8.793   9.874  18.028  0.00  0.00    +0.000 C 
ATOM      2  N   UNL     1       8.044   8.645  17.930  0.00  0.00    +0.000 N 
ATOM      3  C   UNL     1       8.289   7.508  18.628  0.00  0.00    +0.000 A 
ATOM      4  C   UNL     1       7.343   6.570  18.232  0.00  0.00    +0.000 A 
ATOM      5  C   UNL     1       6.570   7.292  17.226  0.00  0.00    +0.000 A 
ATOM      6  N   UNL     1       5.525   6.871  16.455  0.00  0.00    +0.000 N 
ATOM      7  N   UNL     1       6.997   8.555  17.104  0.00  0.00    +0.000 NA
ATOM      8  H   UNL     1       4.948   7.590  16.041  0.00  0.00    +0.000 HD
ENDROOT
BRANCH   4   9
ATOM      9  C   UNL     1       7.274   5.210  18.787  0.00  0.00    +0.000 C 
ATOM     10  N   UNL     1       7.930   4.229  18.096  0.00  0.00    +0.000 N 
ATOM     11  O   UNL     1       6.731   4.863  19.830  0.00  0.00    +0.000 OA
ATOM     12  H   UNL     1       8.525   4.396  17.303  0.00  0.00    +0.000 HD
ATOM     13  H   UNL     1       7.940   3.313  18.528  0.00  0.00    +0.000 HD
ENDBRANCH   4   9
BRANCH   6  14
ATOM     14  C   UNL     1       4.942   5.572  16.678  0.00  0.00    +0.000 C 
BRANCH  14  15
ATOM     15  C   UNL     1       3.562   5.425  17.336  0.00  0.00    +0.000 C 
ATOM     16  C   UNL     1       3.262   3.904  17.291  0.00  0.00    +0.000 C 
ATOM     17  C   UNL     1       4.050   3.099  18.333  0.00  0.00    +0.000 C 
ATOM     18  C   UNL     1       3.244   2.861  19.599  0.00  0.00    +0.000 C 
ATOM     19  C   UNL     1       2.931   4.117  20.413  0.00  0.00    +0.000 C 
ATOM     20  C   UNL     1       2.380   5.320  19.639  0.00  0.00    +0.000 C 
ATOM     21  C   UNL     1       3.430   6.015  18.751  0.00  0.00    +0.000 C 
ENDBRANCH  14  15
ENDBRANCH   6  14
TORSDOF 3
ENDMDL
MODEL 9
REMARK VINA RESULT:      -6.7      1.714      2.220
REMARK  Name = 
REMARK  4 active torsions:
REMARK  status: ('A' for Active; 'I' for Inactive)
REMARK    1  A    between atoms: C_1  and  N_2
REMARK    2  A    between atoms: C_4  and  C_5
REMARK    3  A    between atoms: N_9  and  C_10
REMARK    4  A    between atoms: C_10  and  C_11
REMARK                            x       y       z     vdW  Elec       q    Type
REMARK                         _______ _______ _______ _____ _____    ______ ____
ROOT
ATOM      1  C   UNL     1       7.548   4.911  12.856  0.00  0.00    +0.000 C 
ATOM      2  N   UNL     1       6.903   4.768  14.138  0.00  0.00    +0.000 N 
ATOM      3  C   UNL     1       7.434   5.116  15.337  0.00  0.00    +0.000 A 
ATOM      4  C   UNL     1       6.490   4.809  16.310  0.00  0.00    +0.000 A 
ATOM      5  C   UNL     1       5.397   4.233  15.533  0.00  0.00    +0.000 A 
ATOM      6  N   UNL     1       4.206   3.711  15.949  0.00  0.00    +0.000 N 
ATOM      7  N   UNL     1       5.667   4.265  14.222  0.00  0.00    +0.000 NA
ATOM      8  H   UNL     1       3.477   3.634  15.253  0.00  0.00    +0.000 HD
ENDROOT
BRANCH   4   9
ATOM      9  C   UNL     1       6.698   5.063  17.744  0.00  0.00    +0.000 C 
ATOM     10  N   UNL     1       7.663   4.320  18.367  0.00  0.00    +0.000 N 
ATOM     11  O   UNL     1       6.132   5.900  18.437  0.00  0.00    +0.000 OA
ATOM     12  H   UNL     1       8.292   3.696  17.892  0.00  0.00    +0.000 HD
ATOM     13  H   UNL     1       7.849   4.556  19.334  0.00  0.00    +0.000 HD
ENDBRANCH   4   9
BRANCH   6  14
ATOM     14  C   UNL     1       3.821   3.809  17.333  0.00  0.00    +0.000 C 
BRANCH  14  15
ATOM     15  C   UNL     1       2.692   2.938  17.906  0.00  0.00    +0.000 C 
ATOM     16  C   UNL     1       3.378   2.060  18.986  0.00  0.00    +0.000 C 
ATOM     17  C   UNL     1       3.695   2.824  20.278  0.00  0.00    +0.000 C 
ATOM     18  C   UNL     1       2.611   2.646  21.327  0.00  0.00    +0.000 C 
ATOM     19  C   UNL     1       1.259   3.268  20.975  0.00  0.00    +0.000 C 
ATOM     20  C   UNL     1       0.710   2.973  19.574  0.00  0.00    +0.000 C 
ATOM     21  C   UNL     1       1.471   3.701  18.448  0.00  0.00    +0.000 C 
ENDBRANCH  14  15
ENDBRANCH   6  14
TORSDOF 3
ENDMDL
