MODEL 1
REMARK VINA RESULT:      -8.1      0.000      0.000
REMARK  Name = 
REMARK  7 active torsions:
REMARK  status: ('A' for Active; 'I' for Inactive)
REMARK    1  A    between atoms: C_1  and  O_2
REMARK    2  A    between atoms: O_2  and  C_3
REMARK    3  A    between atoms: C_6  and  C_7
REMARK    4  A    between atoms: C_7  and  N_8
REMARK    5  A    between atoms: N_14  and  C_15
REMARK    6  A    between atoms: C_18  and  C_19
REMARK    7  A    between atoms: C_21  and  C_22
REMARK                            x       y       z     vdW  Elec       q    Type
REMARK                         _______ _______ _______ _____ _____    ______ ____
ROOT
ATOM      1  N   UNL     1       3.148   3.604  19.741  0.00  0.00    +0.000 N 
ATOM      2  C   UNL     1       2.249   2.633  19.488  0.00  0.00    +0.000 C 
ATOM      3  O   UNL     1       2.540   1.476  19.230  0.00  0.00    +0.000 OA
ATOM      4  C   UNL     1       0.863   3.177  19.567  0.00  0.00    +0.000 C 
ATOM      5  N   UNL     1       1.123   4.573  19.837  0.00  0.00    +0.000 NA
ATOM      6  C   UNL     1       2.390   4.779  19.924  0.00  0.00    +0.000 C 
ATOM      7  N   UNL     1       2.946   6.066  20.212  0.00  0.00    +0.000 N 
ATOM      8  H   UNL     1       3.870   6.106  20.662  0.00  0.00    +0.000 HD
ENDROOT
BRANCH   7   9
ATOM      9  C   UNL     1       2.262   7.284  19.892  0.00  0.00    +0.000 A 
ATOM     10  C   UNL     1       1.397   7.869  20.842  0.00  0.00    +0.000 A 
ATOM     11  C   UNL     1       0.693   9.033  20.557  0.00  0.00    +0.000 A 
ATOM     12  C   UNL     1       0.838   9.657  19.318  0.00  0.00    +0.000 A 
ATOM     13  C   UNL     1       0.089  10.919  19.013  0.00  0.00    +0.000 C 
ATOM     14  C   UNL     1       1.688   9.092  18.356  0.00  0.00    +0.000 A 
ATOM     15  C   UNL     1       2.394   7.902  18.622  0.00  0.00    +0.000 A 
ATOM     16  C   UNL     1       3.295   7.335  17.556  0.00  0.00    +0.000 C 
ENDBRANCH   7   9
BRANCH   1  17
ATOM     17  C   UNL     1       4.591   3.491  19.698  0.00  0.00    +0.000 C 
BRANCH  17  21
ATOM     18  C   UNL     1       6.069   5.140  15.997  0.00  0.00    +0.000 A 
ATOM     19  C   UNL     1       5.014   4.206  16.001  0.00  0.00    +0.000 A 
ATOM     20  C   UNL     1       4.539   3.691  17.202  0.00  0.00    +0.000 A 
ATOM     21  C   UNL     1       5.101   4.090  18.422  0.00  0.00    +0.000 A 
ATOM     22  C   UNL     1       6.137   5.034  18.426  0.00  0.00    +0.000 A 
ATOM     23  C   UNL     1       6.617   5.554  17.218  0.00  0.00    +0.000 A 
BRANCH  18  25
ATOM     24  C   UNL     1       7.122   4.894  13.821  0.00  0.00    +0.000 C 
ATOM     25  O   UNL     1       6.582   5.645  14.846  0.00  0.00    +0.000 OA
ENDBRANCH  18  25
ENDBRANCH  17  21
ENDBRANCH   1  17
TORSDOF 4
ENDMDL
MODEL 2
REMARK VINA RESULT:      -8.1      0.281      1.027
REMARK  Name = 
REMARK  7 active torsions:
REMARK  status: ('A' for Active; 'I' for Inactive)
REMARK    1  A    between atoms: C_1  and  O_2
REMARK    2  A    between atoms: O_2  and  C_3
REMARK    3  A    between atoms: C_6  and  C_7
REMARK    4  A    between atoms: C_7  and  N_8
REMARK    5  A    between atoms: N_14  and  C_15
REMARK    6  A    between atoms: C_18  and  C_19
REMARK    7  A    between atoms: C_21  and  C_22
REMARK                            x       y       z     vdW  Elec       q    Type
REMARK                         _______ _______ _______ _____ _____    ______ ____
ROOT
ATOM      1  N   UNL     1       3.292   3.624  19.523  0.00  0.00    +0.000 N 
ATOM      2  C   UNL     1       2.416   2.653  19.199  0.00  0.00    +0.000 C 
ATOM      3  O   UNL     1       2.730   1.503  18.936  0.00  0.00    +0.000 OA
ATOM      4  C   UNL     1       1.023   3.186  19.207  0.00  0.00    +0.000 C 
ATOM      5  N   UNL     1       1.257   4.579  19.519  0.00  0.00    +0.000 NA
ATOM      6  C   UNL     1       2.516   4.791  19.685  0.00  0.00    +0.000 C 
ATOM      7  N   UNL     1       3.044   6.075  20.030  0.00  0.00    +0.000 N 
ATOM      8  H   UNL     1       3.940   6.112  20.534  0.00  0.00    +0.000 HD
ENDROOT
BRANCH   7   9
ATOM      9  C   UNL     1       2.371   7.295  19.694  0.00  0.00    +0.000 A 
ATOM     10  C   UNL     1       1.500   7.892  20.630  0.00  0.00    +0.000 A 
ATOM     11  C   UNL     1       0.806   9.058  20.330  0.00  0.00    +0.000 A 
ATOM     12  C   UNL     1       0.968   9.672  19.088  0.00  0.00    +0.000 A 
ATOM     13  C   UNL     1       0.230  10.937  18.767  0.00  0.00    +0.000 C 
ATOM     14  C   UNL     1       1.825   9.095  18.140  0.00  0.00    +0.000 A 
ATOM     15  C   UNL     1       2.520   7.903  18.421  0.00  0.00    +0.000 A 
ATOM     16  C   UNL     1       3.429   7.323  17.369  0.00  0.00    +0.000 C 
ENDBRANCH   7   9
BRANCH   1  17
ATOM     17  C   UNL     1       4.736   3.521  19.563  0.00  0.00    +0.000 C 
BRANCH  17  21
ATOM     18  C   UNL     1       6.374   5.108  15.902  0.00  0.00    +0.000 A 
ATOM     19  C   UNL     1       6.906   5.479  17.152  0.00  0.00    +0.000 A 
ATOM     20  C   UNL     1       6.377   4.951  18.325  0.00  0.00    +0.000 A 
ATOM     21  C   UNL     1       5.308   4.046  18.282  0.00  0.00    +0.000 A 
ATOM     22  C   UNL     1       4.787   3.657  17.040  0.00  0.00    +0.000 A 
ATOM     23  C   UNL     1       5.318   4.187  15.858  0.00  0.00    +0.000 A 
BRANCH  18  25
ATOM     24  C   UNL     1       7.123   4.886  13.601  0.00  0.00    +0.000 C 
ATOM     25  O   UNL     1       6.841   5.622  14.736  0.00  0.00    +0.000 OA
ENDBRANCH  18  25
ENDBRANCH  17  21
ENDBRANCH   1  17
TORSDOF 4
ENDMDL
MODEL 3
REMARK VINA RESULT:      -7.6      1.829      4.630
REMARK  Name = 
REMARK  7 active torsions:
REMARK  status: ('A' for Active; 'I' for Inactive)
REMARK    1  A    between atoms: C_1  and  O_2
REMARK    2  A    between atoms: O_2  and  C_3
REMARK    3  A    between atoms: C_6  and  C_7
REMARK    4  A    between atoms: C_7  and  N_8
REMARK    5  A    between atoms: N_14  and  C_15
REMARK    6  A    between atoms: C_18  and  C_19
REMARK    7  A    between atoms: C_21  and  C_22
REMARK                            x       y       z     vdW  Elec       q    Type
REMARK                         _______ _______ _______ _____ _____    ______ ____
ROOT
ATOM      1  N   UNL     1       5.471   5.237  16.862  0.00  0.00    +0.000 N 
ATOM      2  C   UNL     1       6.774   5.478  17.102  0.00  0.00    +0.000 C 
ATOM      3  O   UNL     1       7.670   4.671  16.912  0.00  0.00    +0.000 OA
ATOM      4  C   UNL     1       6.958   6.862  17.627  0.00  0.00    +0.000 C 
ATOM      5  N   UNL     1       5.589   7.320  17.698  0.00  0.00    +0.000 NA
ATOM      6  C   UNL     1       4.792   6.402  17.274  0.00  0.00    +0.000 C 
ATOM      7  N   UNL     1       3.374   6.582  17.203  0.00  0.00    +0.000 N 
ATOM      8  H   UNL     1       2.848   6.030  16.513  0.00  0.00    +0.000 HD
ENDROOT
BRANCH   7   9
ATOM      9  C   UNL     1       2.675   7.496  18.058  0.00  0.00    +0.000 A 
ATOM     10  C   UNL     1       2.275   8.753  17.557  0.00  0.00    +0.000 A 
ATOM     11  C   UNL     1       1.622   9.678  18.364  0.00  0.00    +0.000 A 
ATOM     12  C   UNL     1       1.338   9.372  19.695  0.00  0.00    +0.000 A 
ATOM     13  C   UNL     1       0.623  10.363  20.564  0.00  0.00    +0.000 C 
ATOM     14  C   UNL     1       1.731   8.131  20.217  0.00  0.00    +0.000 A 
ATOM     15  C   UNL     1       2.410   7.191  19.418  0.00  0.00    +0.000 A 
ATOM     16  C   UNL     1       2.809   5.871  20.025  0.00  0.00    +0.000 C 
ENDBRANCH   7   9
BRANCH   1  17
ATOM     17  C   UNL     1       4.881   3.995  16.408  0.00  0.00    +0.000 C 
BRANCH  17  21
ATOM     18  C   UNL     1       2.315   2.447  19.510  0.00  0.00    +0.000 A 
ATOM     19  C   UNL     1       1.788   2.826  18.260  0.00  0.00    +0.000 A 
ATOM     20  C   UNL     1       2.628   3.312  17.263  0.00  0.00    +0.000 A 
ATOM     21  C   UNL     1       4.006   3.434  17.488  0.00  0.00    +0.000 A 
ATOM     22  C   UNL     1       4.539   3.040  18.723  0.00  0.00    +0.000 A 
ATOM     23  C   UNL     1       3.695   2.550  19.727  0.00  0.00    +0.000 A 
BRANCH  18  25
ATOM     24  C   UNL     1       1.456   2.552  21.780  0.00  0.00    +0.000 C 
ATOM     25  O   UNL     1       1.526   1.996  20.519  0.00  0.00    +0.000 OA
ENDBRANCH  18  25
ENDBRANCH  17  21
ENDBRANCH   1  17
TORSDOF 4
ENDMDL
MODEL 4
REMARK VINA RESULT:      -7.5      1.195      1.300
REMARK  Name = 
REMARK  7 active torsions:
REMARK  status: ('A' for Active; 'I' for Inactive)
REMARK    1  A    between atoms: C_1  and  O_2
REMARK    2  A    between atoms: O_2  and  C_3
REMARK    3  A    between atoms: C_6  and  C_7
REMARK    4  A    between atoms: C_7  and  N_8
REMARK    5  A    between atoms: N_14  and  C_15
REMARK    6  A    between atoms: C_18  and  C_19
REMARK    7  A    between atoms: C_21  and  C_22
REMARK                            x       y       z     vdW  Elec       q    Type
REMARK                         _______ _______ _______ _____ _____    ______ ____
ROOT
ATOM      1  N   UNL     1       3.684   4.821  19.421  0.00  0.00    +0.000 N 
ATOM      2  C   UNL     1       3.093   3.686  19.000  0.00  0.00    +0.000 C 
ATOM      3  O   UNL     1       3.696   2.706  18.592  0.00  0.00    +0.000 OA
ATOM      4  C   UNL     1       1.610   3.804  19.103  0.00  0.00    +0.000 C 
ATOM      5  N   UNL     1       1.468   5.162  19.578  0.00  0.00    +0.000 NA
ATOM      6  C   UNL     1       2.627   5.698  19.740  0.00  0.00    +0.000 C 
ATOM      7  N   UNL     1       2.799   7.032  20.228  0.00  0.00    +0.000 N 
ATOM      8  H   UNL     1       3.677   7.262  20.714  0.00  0.00    +0.000 HD
ENDROOT
BRANCH   7   9
ATOM      9  C   UNL     1       1.799   8.045  20.058  0.00  0.00    +0.000 A 
ATOM     10  C   UNL     1       0.919   8.341  21.121  0.00  0.00    +0.000 A 
ATOM     11  C   UNL     1      -0.083   9.294  20.984  0.00  0.00    +0.000 A 
ATOM     12  C   UNL     1      -0.232   9.991  19.784  0.00  0.00    +0.000 A 
ATOM     13  C   UNL     1      -1.304  11.029  19.639  0.00  0.00    +0.000 C 
ATOM     14  C   UNL     1       0.628   9.710  18.712  0.00  0.00    +0.000 A 
ATOM     15  C   UNL     1       1.636   8.734  18.828  0.00  0.00    +0.000 A 
ATOM     16  C   UNL     1       2.535   8.469  17.649  0.00  0.00    +0.000 C 
ENDBRANCH   7   9
BRANCH   1  17
ATOM     17  C   UNL     1       5.100   5.122  19.417  0.00  0.00    +0.000 C 
BRANCH  17  21
ATOM     18  C   UNL     1       6.470   5.160  15.327  0.00  0.00    +0.000 A 
ATOM     19  C   UNL     1       5.310   5.862  15.706  0.00  0.00    +0.000 A 
ATOM     20  C   UNL     1       4.885   5.852  17.031  0.00  0.00    +0.000 A 
ATOM     21  C   UNL     1       5.601   5.144  18.004  0.00  0.00    +0.000 A 
ATOM     22  C   UNL     1       6.769   4.459  17.637  0.00  0.00    +0.000 A 
ATOM     23  C   UNL     1       7.198   4.468  16.305  0.00  0.00    +0.000 A 
BRANCH  18  25
ATOM     24  C   UNL     1       6.621   4.111  13.140  0.00  0.00    +0.000 C 
ATOM     25  O   UNL     1       6.903   5.119  14.041  0.00  0.00    +0.000 OA
ENDBRANCH  18  25
ENDBRANCH  17  21
ENDBRANCH   1  17
TORSDOF 4
ENDMDL
MODEL 5
REMARK VINA RESULT:      -7.4      1.188      1.534
REMARK  Name = 
REMARK  7 active torsions:
REMARK  status: ('A' for Active; 'I' for Inactive)
REMARK    1  A    between atoms: C_1  and  O_2
REMARK    2  A    between atoms: O_2  and  C_3
REMARK    3  A    between atoms: C_6  and  C_7
REMARK    4  A    between atoms: C_7  and  N_8
REMARK    5  A    between atoms: N_14  and  C_15
REMARK    6  A    between atoms: C_18  and  C_19
REMARK    7  A    between atoms: C_21  and  C_22
REMARK                            x       y       z     vdW  Elec       q    Type
REMARK                         _______ _______ _______ _____ _____    ______ ____
ROOT
ATOM      1  N   UNL     1       3.382   3.373  19.137  0.00  0.00    +0.000 N 
ATOM      2  C   UNL     1       2.630   2.514  18.423  0.00  0.00    +0.000 C 
ATOM      3  O   UNL     1       3.035   1.455  17.972  0.00  0.00    +0.000 OA
ATOM      4  C   UNL     1       1.244   3.044  18.267  0.00  0.00    +0.000 C 
ATOM      5  N   UNL     1       1.355   4.322  18.935  0.00  0.00    +0.000 NA
ATOM      6  C   UNL     1       2.544   4.477  19.401  0.00  0.00    +0.000 C 
ATOM      7  N   UNL     1       2.941   5.639  20.135  0.00  0.00    +0.000 N 
ATOM      8  H   UNL     1       3.714   5.548  20.808  0.00  0.00    +0.000 HD
ENDROOT
BRANCH   7   9
ATOM      9  C   UNL     1       2.302   6.910  19.960  0.00  0.00    +0.000 A 
ATOM     10  C   UNL     1       1.452   7.410  20.970  0.00  0.00    +0.000 A 
ATOM     11  C   UNL     1       0.792   8.624  20.823  0.00  0.00    +0.000 A 
ATOM     12  C   UNL     1       0.966   9.384  19.666  0.00  0.00    +0.000 A 
ATOM     13  C   UNL     1       0.264  10.699  19.511  0.00  0.00    +0.000 C 
ATOM     14  C   UNL     1       1.801   8.905  18.646  0.00  0.00    +0.000 A 
ATOM     15  C   UNL     1       2.463   7.669  18.771  0.00  0.00    +0.000 A 
ATOM     16  C   UNL     1       3.350   7.199  17.648  0.00  0.00    +0.000 C 
ENDBRANCH   7   9
BRANCH   1  17
ATOM     17  C   UNL     1       4.791   3.250  19.449  0.00  0.00    +0.000 C 
BRANCH  17  21
ATOM     18  C   UNL     1       7.021   6.320  17.398  0.00  0.00    +0.000 A 
ATOM     19  C   UNL     1       6.273   5.369  16.678  0.00  0.00    +0.000 A 
ATOM     20  C   UNL     1       5.548   4.391  17.352  0.00  0.00    +0.000 A 
ATOM     21  C   UNL     1       5.553   4.336  18.752  0.00  0.00    +0.000 A 
ATOM     22  C   UNL     1       6.280   5.293  19.475  0.00  0.00    +0.000 A 
ATOM     23  C   UNL     1       7.010   6.277  18.799  0.00  0.00    +0.000 A 
BRANCH  18  25
ATOM     24  C   UNL     1       8.122   8.485  17.335  0.00  0.00    +0.000 C 
ATOM     25  O   UNL     1       7.766   7.272  16.780  0.00  0.00    +0.000 OA
ENDBRANCH  18  25
ENDBRANCH  17  21
ENDBRANCH   1  17
TORSDOF 4
ENDMDL
MODEL 6
REMARK VINA RESULT:      -7.4      1.251      1.926
REMARK  Name = 
REMARK  7 active torsions:
REMARK  status: ('A' for Active; 'I' for Inactive)
REMARK    1  A    between atoms: C_1  and  O_2
REMARK    2  A    between atoms: O_2  and  C_3
REMARK    3  A    between atoms: C_6  and  C_7
REMARK    4  A    between atoms: C_7  and  N_8
REMARK    5  A    between atoms: N_14  and  C_15
REMARK    6  A    between atoms: C_18  and  C_19
REMARK    7  A    between atoms: C_21  and  C_22
REMARK                            x       y       z     vdW  Elec       q    Type
REMARK                         _______ _______ _______ _____ _____    ______ ____
ROOT
ATOM      1  N   UNL     1       3.773   4.915  19.540  0.00  0.00    +0.000 N 
ATOM      2  C   UNL     1       3.192   3.717  19.333  0.00  0.00    +0.000 C 
ATOM      3  O   UNL     1       3.804   2.681  19.128  0.00  0.00    +0.000 OA
ATOM      4  C   UNL     1       1.707   3.844  19.389  0.00  0.00    +0.000 C 
ATOM      5  N   UNL     1       1.553   5.267  19.594  0.00  0.00    +0.000 NA
ATOM      6  C   UNL     1       2.708   5.831  19.670  0.00  0.00    +0.000 C 
ATOM      7  N   UNL     1       2.869   7.234  19.898  0.00  0.00    +0.000 N 
ATOM      8  H   UNL     1       3.737   7.557  20.345  0.00  0.00    +0.000 HD
ENDROOT
BRANCH   7   9
ATOM      9  C   UNL     1       1.869   8.190  19.524  0.00  0.00    +0.000 A 
ATOM     10  C   UNL     1       1.715   8.545  18.167  0.00  0.00    +0.000 A 
ATOM     11  C   UNL     1       0.778   9.491  17.769  0.00  0.00    +0.000 A 
ATOM     12  C   UNL     1      -0.045  10.105  18.714  0.00  0.00    +0.000 A 
ATOM     13  C   UNL     1      -1.065  11.117  18.285  0.00  0.00    +0.000 C 
ATOM     14  C   UNL     1       0.093   9.773  20.069  0.00  0.00    +0.000 A 
ATOM     15  C   UNL     1       1.050   8.830  20.491  0.00  0.00    +0.000 A 
ATOM     16  C   UNL     1       1.159   8.506  21.958  0.00  0.00    +0.000 C 
ENDBRANCH   7   9
BRANCH   1  17
ATOM     17  C   UNL     1       5.188   5.218  19.501  0.00  0.00    +0.000 C 
BRANCH  17  21
ATOM     18  C   UNL     1       6.470   5.193  15.383  0.00  0.00    +0.000 A 
ATOM     19  C   UNL     1       5.337   5.928  15.781  0.00  0.00    +0.000 A 
ATOM     20  C   UNL     1       4.940   5.938  17.115  0.00  0.00    +0.000 A 
ATOM     21  C   UNL     1       5.659   5.218  18.078  0.00  0.00    +0.000 A 
ATOM     22  C   UNL     1       6.800   4.500  17.691  0.00  0.00    +0.000 A 
ATOM     23  C   UNL     1       7.200   4.489  16.350  0.00  0.00    +0.000 A 
BRANCH  18  25
ATOM     24  C   UNL     1       6.605   4.093  13.220  0.00  0.00    +0.000 C 
ATOM     25  O   UNL     1       6.873   5.133  14.088  0.00  0.00    +0.000 OA
ENDBRANCH  18  25
ENDBRANCH  17  21
ENDBRANCH   1  17
TORSDOF 4
ENDMDL
MODEL 7
REMARK VINA RESULT:      -7.3      0.681      1.806
REMARK  Name = 
REMARK  7 active torsions:
REMARK  status: ('A' for Active; 'I' for Inactive)
REMARK    1  A    between atoms: C_1  and  O_2
REMARK    2  A    between atoms: O_2  and  C_3
REMARK    3  A    between atoms: C_6  and  C_7
REMARK    4  A    between atoms: C_7  and  N_8
REMARK    5  A    between atoms: N_14  and  C_15
REMARK    6  A    between atoms: C_18  and  C_19
REMARK    7  A    between atoms: C_21  and  C_22
REMARK                            x       y       z     vdW  Elec       q    Type
REMARK                         _______ _______ _______ _____ _____    ______ ____
ROOT
ATOM      1  N   UNL     1       3.362   3.744  19.279  0.00  0.00    +0.000 N 
ATOM      2  C   UNL     1       2.543   2.765  18.850  0.00  0.00    +0.000 C 
ATOM      3  O   UNL     1       2.902   1.623  18.609  0.00  0.00    +0.000 OA
ATOM      4  C   UNL     1       1.148   3.276  18.713  0.00  0.00    +0.000 C 
ATOM      5  N   UNL     1       1.324   4.668  19.066  0.00  0.00    +0.000 NA
ATOM      6  C   UNL     1       2.554   4.897  19.369  0.00  0.00    +0.000 C 
ATOM      7  N   UNL     1       3.020   6.183  19.785  0.00  0.00    +0.000 N 
ATOM      8  H   UNL     1       3.856   6.227  20.384  0.00  0.00    +0.000 HD
ENDROOT
BRANCH   7   9
ATOM      9  C   UNL     1       2.368   7.398  19.393  0.00  0.00    +0.000 A 
ATOM     10  C   UNL     1       2.602   7.934  18.109  0.00  0.00    +0.000 A 
ATOM     11  C   UNL     1       2.012   9.125  17.704  0.00  0.00    +0.000 A 
ATOM     12  C   UNL     1       1.159   9.815  18.566  0.00  0.00    +0.000 A 
ATOM     13  C   UNL     1       0.512  11.094  18.127  0.00  0.00    +0.000 C 
ATOM     14  C   UNL     1       0.915   9.305  19.849  0.00  0.00    +0.000 A 
ATOM     15  C   UNL     1       1.520   8.109  20.281  0.00  0.00    +0.000 A 
ATOM     16  C   UNL     1       1.225   7.602  21.668  0.00  0.00    +0.000 C 
ENDBRANCH   7   9
BRANCH   1  17
ATOM     17  C   UNL     1       4.794   3.662  19.475  0.00  0.00    +0.000 C 
BRANCH  17  21
ATOM     18  C   UNL     1       6.803   5.106  15.942  0.00  0.00    +0.000 A 
ATOM     19  C   UNL     1       7.282   5.427  17.226  0.00  0.00    +0.000 A 
ATOM     20  C   UNL     1       6.632   4.945  18.358  0.00  0.00    +0.000 A 
ATOM     21  C   UNL     1       5.494   4.138  18.238  0.00  0.00    +0.000 A 
ATOM     22  C   UNL     1       5.024   3.798  16.961  0.00  0.00    +0.000 A 
ATOM     23  C   UNL     1       5.675   4.281  15.821  0.00  0.00    +0.000 A 
BRANCH  18  25
ATOM     24  C   UNL     1       7.344   4.964  13.577  0.00  0.00    +0.000 C 
ATOM     25  O   UNL     1       7.389   5.579  14.812  0.00  0.00    +0.000 OA
ENDBRANCH  18  25
ENDBRANCH  17  21
ENDBRANCH   1  17
TORSDOF 4
ENDMDL
MODEL 8
REMARK VINA RESULT:      -7.3      0.849      1.588
REMARK  Name = 
REMARK  7 active torsions:
REMARK  status: ('A' for Active; 'I' for Inactive)
REMARK    1  A    between atoms: C_1  and  O_2
REMARK    2  A    between atoms: O_2  and  C_3
REMARK    3  A    between atoms: C_6  and  C_7
REMARK    4  A    between atoms: C_7  and  N_8
REMARK    5  A    between atoms: N_14  and  C_15
REMARK    6  A    between atoms: C_18  and  C_19
REMARK    7  A    between atoms: C_21  and  C_22
REMARK                            x       y       z     vdW  Elec       q    Type
REMARK                         _______ _______ _______ _____ _____    ______ ____
ROOT
ATOM      1  N   UNL     1       3.437   3.848  19.020  0.00  0.00    +0.000 N 
ATOM      2  C   UNL     1       2.640   2.880  18.528  0.00  0.00    +0.000 C 
ATOM      3  O   UNL     1       3.023   1.761  18.226  0.00  0.00    +0.000 OA
ATOM      4  C   UNL     1       1.238   3.373  18.409  0.00  0.00    +0.000 C 
ATOM      5  N   UNL     1       1.384   4.745  18.841  0.00  0.00    +0.000 NA
ATOM      6  C   UNL     1       2.607   4.978  19.169  0.00  0.00    +0.000 C 
ATOM      7  N   UNL     1       3.045   6.248  19.661  0.00  0.00    +0.000 N 
ATOM      8  H   UNL     1       3.875   6.272  20.270  0.00  0.00    +0.000 HD
ENDROOT
BRANCH   7   9
ATOM      9  C   UNL     1       2.373   7.470  19.334  0.00  0.00    +0.000 A 
ATOM     10  C   UNL     1       2.619   8.091  18.091  0.00  0.00    +0.000 A 
ATOM     11  C   UNL     1       2.010   9.293  17.750  0.00  0.00    +0.000 A 
ATOM     12  C   UNL     1       1.126   9.908  18.636  0.00  0.00    +0.000 A 
ATOM     13  C   UNL     1       0.458  11.199  18.266  0.00  0.00    +0.000 C 
ATOM     14  C   UNL     1       0.869   9.313  19.880  0.00  0.00    +0.000 A 
ATOM     15  C   UNL     1       1.493   8.105  20.248  0.00  0.00    +0.000 A 
ATOM     16  C   UNL     1       1.184   7.505  21.594  0.00  0.00    +0.000 C 
ENDBRANCH   7   9
BRANCH   1  17
ATOM     17  C   UNL     1       4.869   3.781  19.224  0.00  0.00    +0.000 C 
BRANCH  17  21
ATOM     18  C   UNL     1       6.915   5.160  15.686  0.00  0.00    +0.000 A 
ATOM     19  C   UNL     1       6.022   4.073  15.625  0.00  0.00    +0.000 A 
ATOM     20  C   UNL     1       5.359   3.645  16.771  0.00  0.00    +0.000 A 
ATOM     21  C   UNL     1       5.571   4.286  17.999  0.00  0.00    +0.000 A 
ATOM     22  C   UNL     1       6.443   5.382  18.061  0.00  0.00    +0.000 A 
ATOM     23  C   UNL     1       7.111   5.814  16.910  0.00  0.00    +0.000 A 
BRANCH  18  25
ATOM     24  C   UNL     1       7.529   5.031  13.338  0.00  0.00    +0.000 C 
ATOM     25  O   UNL     1       7.605   5.590  14.598  0.00  0.00    +0.000 OA
ENDBRANCH  18  25
ENDBRANCH  17  21
ENDBRANCH   1  17
TORSDOF 4
ENDMDL
MODEL 9
REMARK VINA RESULT:      -7.3      1.422      2.014
REMARK  Name = 
REMARK  7 active torsions:
REMARK  status: ('A' for Active; 'I' for Inactive)
REMARK    1  A    between atoms: C_1  and  O_2
REMARK    2  A    between atoms: O_2  and  C_3
REMARK    3  A    between atoms: C_6  and  C_7
REMARK    4  A    between atoms: C_7  and  N_8
REMARK    5  A    between atoms: N_14  and  C_15
REMARK    6  A    between atoms: C_18  and  C_19
REMARK    7  A    between atoms: C_21  and  C_22
REMARK                            x       y       z     vdW  Elec       q    Type
REMARK                         _______ _______ _______ _____ _____    ______ ____
ROOT
ATOM      1  N   UNL     1       3.537   3.721  18.975  0.00  0.00    +0.000 N 
ATOM      2  C   UNL     1       2.891   2.902  18.123  0.00  0.00    +0.000 C 
ATOM      3  O   UNL     1       3.382   1.905  17.620  0.00  0.00    +0.000 OA
ATOM      4  C   UNL     1       1.500   3.389  17.889  0.00  0.00    +0.000 C 
ATOM      5  N   UNL     1       1.493   4.604  18.673  0.00  0.00    +0.000 NA
ATOM      6  C   UNL     1       2.629   4.763  19.257  0.00  0.00    +0.000 C 
ATOM      7  N   UNL     1       2.906   5.867  20.122  0.00  0.00    +0.000 N 
ATOM      8  H   UNL     1       3.621   5.746  20.852  0.00  0.00    +0.000 HD
ENDROOT
BRANCH   7   9
ATOM      9  C   UNL     1       2.226   7.124  20.002  0.00  0.00    +0.000 A 
ATOM     10  C   UNL     1       1.409   7.580  21.059  0.00  0.00    +0.000 A 
ATOM     11  C   UNL     1       0.711   8.778  20.966  0.00  0.00    +0.000 A 
ATOM     12  C   UNL     1       0.813   9.564  19.819  0.00  0.00    +0.000 A 
ATOM     13  C   UNL     1       0.069  10.863  19.722  0.00  0.00    +0.000 C 
ATOM     14  C   UNL     1       1.614   9.129  18.753  0.00  0.00    +0.000 A 
ATOM     15  C   UNL     1       2.313   7.909  18.823  0.00  0.00    +0.000 A 
ATOM     16  C   UNL     1       3.161   7.486  17.653  0.00  0.00    +0.000 C 
ENDBRANCH   7   9
BRANCH   1  17
ATOM     17  C   UNL     1       4.918   3.625  19.401  0.00  0.00    +0.000 C 
BRANCH  17  21
ATOM     18  C   UNL     1       7.208   6.781  17.558  0.00  0.00    +0.000 A 
ATOM     19  C   UNL     1       7.450   6.398  18.891  0.00  0.00    +0.000 A 
ATOM     20  C   UNL     1       6.712   5.370  19.471  0.00  0.00    +0.000 A 
ATOM     21  C   UNL     1       5.720   4.704  18.740  0.00  0.00    +0.000 A 
ATOM     22  C   UNL     1       5.488   5.067  17.405  0.00  0.00    +0.000 A 
ATOM     23  C   UNL     1       6.229   6.101  16.820  0.00  0.00    +0.000 A 
BRANCH  18  25
ATOM     24  C   UNL     1       8.080   9.049  17.515  0.00  0.00    +0.000 C 
ATOM     25  O   UNL     1       7.884   7.798  16.964  0.00  0.00    +0.000 OA
ENDBRANCH  18  25
ENDBRANCH  17  21
ENDBRANCH   1  17
TORSDOF 4
ENDMDL
