MODEL 1
REMARK VINA RESULT:      -7.6      0.000      0.000
REMARK  Name = 
REMARK  8 active torsions:
REMARK  status: ('A' for Active; 'I' for Inactive)
REMARK    1  A    between atoms: C_1  and  N_2
REMARK    2  A    between atoms: N_2  and  C_3
REMARK    3  A    between atoms: N_2  and  C_4
REMARK    4  A    between atoms: C_9  and  C_10
REMARK    5  A    between atoms: C_10  and  S_11
REMARK    6  A    between atoms: S_11  and  C_13
REMARK    7  A    between atoms: N_17  and  C_18
REMARK    8  A    between atoms: C_18  and  C_19
REMARK                            x       y       z     vdW  Elec       q    Type
REMARK                         _______ _______ _______ _____ _____    ______ ____
ROOT
ATOM      1  C   UNL     1       2.369   6.605  19.405  0.00  0.00    +0.000 A 
ATOM      2  N   UNL     1       1.727   6.061  20.443  0.00  0.00    +0.000 NA
ATOM      3  C   UNL     1       1.817   4.731  20.231  0.00  0.00    +0.000 A 
ATOM      4  C   UNL     1       2.482   4.451  19.078  0.00  0.00    +0.000 A 
ATOM      5  N   UNL     1       2.976   5.631  18.615  0.00  0.00    +0.000 N 
ATOM      6  C   UNL     1       2.321   3.066  18.607  0.00  0.00    +0.000 C 
ATOM      7  C   UNL     1       1.107   2.622  19.509  0.00  0.00    +0.000 C 
ATOM      8  C   UNL     1       1.122   3.554  20.776  0.00  0.00    +0.000 C 
ENDROOT
BRANCH   1   9
ATOM      9  S   UNL     1       2.317   8.333  19.107  0.00  0.00    +0.000 S 
ATOM     10  O   UNL     1       2.648   8.558  17.587  0.00  0.00    +0.000 OA
BRANCH   9  11
ATOM     11  C   UNL     1       0.524   8.593  19.408  0.00  0.00    +0.000 C 
BRANCH  11  17
ATOM     12  C   UNL     1      -0.118  10.885  20.426  0.00  0.00    +0.000 A 
ATOM     13  C   UNL     1      -0.484  11.606  21.588  0.00  0.00    +0.000 A 
ATOM     14  C   UNL     1      -0.677  11.005  22.834  0.00  0.00    +0.000 A 
ATOM     15  C   UNL     1      -0.492   9.644  22.965  0.00  0.00    +0.000 A 
ATOM     16  C   UNL     1      -0.116   8.892  21.856  0.00  0.00    +0.000 A 
ATOM     17  C   UNL     1       0.072   9.473  20.577  0.00  0.00    +0.000 A 
BRANCH  12  19
ATOM     18  C   UNL     1       1.218  12.344  18.886  0.00  0.00    +0.000 C 
ATOM     19  N   UNL     1       0.013  11.578  19.217  0.00  0.00    +0.000 N 
ATOM     20  C   UNL     1      -1.150  11.821  18.372  0.00  0.00    +0.000 C 
ENDBRANCH  12  19
ENDBRANCH  11  17
ENDBRANCH   9  11
ENDBRANCH   1   9
BRANCH   5  21
ATOM     21  C   UNL     1       3.826   5.793  17.447  0.00  0.00    +0.000 C 
BRANCH  21  22
ATOM     22  C   UNL     1       5.282   6.012  17.796  0.00  0.00    +0.000 A 
ATOM     23  C   UNL     1       6.072   6.951  17.115  0.00  0.00    +0.000 A 
ATOM     24  C   UNL     1       7.387   7.215  17.509  0.00  0.00    +0.000 A 
ATOM     25  C   UNL     1       7.932   6.548  18.612  0.00  0.00    +0.000 A 
ATOM     26  C   UNL     1       7.165   5.611  19.296  0.00  0.00    +0.000 A 
ATOM     27  C   UNL     1       5.855   5.339  18.889  0.00  0.00    +0.000 A 
ENDBRANCH  21  22
ENDBRANCH   5  21
TORSDOF 6
ENDMDL
MODEL 2
REMARK VINA RESULT:      -7.6      3.521      5.964
REMARK  Name = 
REMARK  8 active torsions:
REMARK  status: ('A' for Active; 'I' for Inactive)
REMARK    1  A    between atoms: C_1  and  N_2
REMARK    2  A    between atoms: N_2  and  C_3
REMARK    3  A    between atoms: N_2  and  C_4
REMARK    4  A    between atoms: C_9  and  C_10
REMARK    5  A    between atoms: C_10  and  S_11
REMARK    6  A    between atoms: S_11  and  C_13
REMARK    7  A    between atoms: N_17  and  C_18
REMARK    8  A    between atoms: C_18  and  C_19
REMARK                            x       y       z     vdW  Elec       q    Type
REMARK                         _______ _______ _______ _____ _____    ______ ____
ROOT
ATOM      1  C   UNL     1       4.943   4.353  17.895  0.00  0.00    +0.000 A 
ATOM      2  N   UNL     1       5.470   4.301  19.122  0.00  0.00    +0.000 NA
ATOM      3  C   UNL     1       6.393   5.284  19.130  0.00  0.00    +0.000 A 
ATOM      4  C   UNL     1       6.456   5.924  17.931  0.00  0.00    +0.000 A 
ATOM      5  N   UNL     1       5.430   5.444  17.178  0.00  0.00    +0.000 N 
ATOM      6  C   UNL     1       7.655   6.759  17.751  0.00  0.00    +0.000 C 
ATOM      7  C   UNL     1       8.529   6.223  18.948  0.00  0.00    +0.000 C 
ATOM      8  C   UNL     1       7.530   5.621  20.003  0.00  0.00    +0.000 C 
ENDROOT
BRANCH   1   9
ATOM      9  S   UNL     1       3.853   3.105  17.319  0.00  0.00    +0.000 S 
ATOM     10  O   UNL     1       3.866   1.944  18.379  0.00  0.00    +0.000 OA
BRANCH   9  11
ATOM     11  C   UNL     1       2.286   4.054  17.440  0.00  0.00    +0.000 C 
BRANCH  11  17
ATOM     12  C   UNL     1       1.829   4.916  19.837  0.00  0.00    +0.000 A 
ATOM     13  C   UNL     1       1.683   6.039  20.686  0.00  0.00    +0.000 A 
ATOM     14  C   UNL     1       1.861   7.355  20.252  0.00  0.00    +0.000 A 
ATOM     15  C   UNL     1       2.179   7.596  18.932  0.00  0.00    +0.000 A 
ATOM     16  C   UNL     1       2.318   6.526  18.053  0.00  0.00    +0.000 A 
ATOM     17  C   UNL     1       2.158   5.181  18.469  0.00  0.00    +0.000 A 
BRANCH  12  19
ATOM     18  C   UNL     1       0.680   2.687  19.857  0.00  0.00    +0.000 C 
ATOM     19  N   UNL     1       1.667   3.636  20.381  0.00  0.00    +0.000 N 
ATOM     20  C   UNL     1       2.252   3.299  21.673  0.00  0.00    +0.000 C 
ENDBRANCH  12  19
ENDBRANCH  11  17
ENDBRANCH   9  11
ENDBRANCH   1   9
BRANCH   5  21
ATOM     21  C   UNL     1       5.064   5.908  15.850  0.00  0.00    +0.000 C 
BRANCH  21  22
ATOM     22  C   UNL     1       5.759   5.149  14.740  0.00  0.00    +0.000 A 
ATOM     23  C   UNL     1       5.097   4.166  13.990  0.00  0.00    +0.000 A 
ATOM     24  C   UNL     1       5.718   3.540  12.905  0.00  0.00    +0.000 A 
ATOM     25  C   UNL     1       7.019   3.905  12.540  0.00  0.00    +0.000 A 
ATOM     26  C   UNL     1       7.691   4.875  13.276  0.00  0.00    +0.000 A 
ATOM     27  C   UNL     1       7.072   5.487  14.370  0.00  0.00    +0.000 A 
ENDBRANCH  21  22
ENDBRANCH   5  21
TORSDOF 6
ENDMDL
MODEL 3
REMARK VINA RESULT:      -7.6      1.263      1.595
REMARK  Name = 
REMARK  8 active torsions:
REMARK  status: ('A' for Active; 'I' for Inactive)
REMARK    1  A    between atoms: C_1  and  N_2
REMARK    2  A    between atoms: N_2  and  C_3
REMARK    3  A    between atoms: N_2  and  C_4
REMARK    4  A    between atoms: C_9  and  C_10
REMARK    5  A    between atoms: C_10  and  S_11
REMARK    6  A    between atoms: S_11  and  C_13
REMARK    7  A    between atoms: N_17  and  C_18
REMARK    8  A    between atoms: C_18  and  C_19
REMARK                            x       y       z     vdW  Elec       q    Type
REMARK                         _______ _______ _______ _____ _____    ______ ____
ROOT
ATOM      1  C   UNL     1       2.483   5.920  19.913  0.00  0.00    +0.000 A 
ATOM      2  N   UNL     1       1.452   5.122  20.205  0.00  0.00    +0.000 NA
ATOM      3  C   UNL     1       1.923   3.877  19.991  0.00  0.00    +0.000 A 
ATOM      4  C   UNL     1       3.212   3.895  19.557  0.00  0.00    +0.000 A 
ATOM      5  N   UNL     1       3.636   5.184  19.647  0.00  0.00    +0.000 N 
ATOM      6  C   UNL     1       3.675   2.623  18.979  0.00  0.00    +0.000 C 
ATOM      7  C   UNL     1       2.288   1.897  18.798  0.00  0.00    +0.000 C 
ATOM      8  C   UNL     1       1.297   2.554  19.827  0.00  0.00    +0.000 C 
ENDROOT
BRANCH   1   9
ATOM      9  S   UNL     1       2.287   7.660  19.810  0.00  0.00    +0.000 S 
ATOM     10  O   UNL     1       2.362   8.053  18.289  0.00  0.00    +0.000 OA
BRANCH   9  11
ATOM     11  C   UNL     1       0.552   7.761  20.403  0.00  0.00    +0.000 C 
BRANCH  11  17
ATOM     12  C   UNL     1      -0.029  10.281  20.487  0.00  0.00    +0.000 A 
ATOM     13  C   UNL     1      -0.427  11.381  21.285  0.00  0.00    +0.000 A 
ATOM     14  C   UNL     1      -0.729  11.271  22.645  0.00  0.00    +0.000 A 
ATOM     15  C   UNL     1      -0.625  10.043  23.265  0.00  0.00    +0.000 A 
ATOM     16  C   UNL     1      -0.222   8.934  22.528  0.00  0.00    +0.000 A 
ATOM     17  C   UNL     1       0.076   9.013  21.144  0.00  0.00    +0.000 A 
BRANCH  12  19
ATOM     18  C   UNL     1       1.384  11.233  18.648  0.00  0.00    +0.000 C 
ATOM     19  N   UNL     1       0.213  10.491  19.124  0.00  0.00    +0.000 N 
ATOM     20  C   UNL     1      -0.834  10.251  18.140  0.00  0.00    +0.000 C 
ENDBRANCH  12  19
ENDBRANCH  11  17
ENDBRANCH   9  11
ENDBRANCH   1   9
BRANCH   5  21
ATOM     21  C   UNL     1       4.982   5.655  19.365  0.00  0.00    +0.000 C 
BRANCH  21  22
ATOM     22  C   UNL     1       5.407   5.422  17.932  0.00  0.00    +0.000 A 
ATOM     23  C   UNL     1       4.754   6.044  16.857  0.00  0.00    +0.000 A 
ATOM     24  C   UNL     1       5.215   5.899  15.545  0.00  0.00    +0.000 A 
ATOM     25  C   UNL     1       6.359   5.135  15.289  0.00  0.00    +0.000 A 
ATOM     26  C   UNL     1       7.017   4.509  16.342  0.00  0.00    +0.000 A 
ATOM     27  C   UNL     1       6.543   4.643  17.650  0.00  0.00    +0.000 A 
ENDBRANCH  21  22
ENDBRANCH   5  21
TORSDOF 6
ENDMDL
MODEL 4
REMARK VINA RESULT:      -7.6      1.749      8.097
REMARK  Name = 
REMARK  8 active torsions:
REMARK  status: ('A' for Active; 'I' for Inactive)
REMARK    1  A    between atoms: C_1  and  N_2
REMARK    2  A    between atoms: N_2  and  C_3
REMARK    3  A    between atoms: N_2  and  C_4
REMARK    4  A    between atoms: C_9  and  C_10
REMARK    5  A    between atoms: C_10  and  S_11
REMARK    6  A    between atoms: S_11  and  C_13
REMARK    7  A    between atoms: N_17  and  C_18
REMARK    8  A    between atoms: C_18  and  C_19
REMARK                            x       y       z     vdW  Elec       q    Type
REMARK                         _______ _______ _______ _____ _____    ______ ____
ROOT
ATOM      1  C   UNL     1       0.725   9.202  19.313  0.00  0.00    +0.000 A 
ATOM      2  N   UNL     1       0.743   8.459  20.424  0.00  0.00    +0.000 NA
ATOM      3  C   UNL     1      -0.019   9.148  21.298  0.00  0.00    +0.000 A 
ATOM      4  C   UNL     1      -0.488  10.303  20.754  0.00  0.00    +0.000 A 
ATOM      5  N   UNL     1      -0.148  10.280  19.437  0.00  0.00    +0.000 N 
ATOM      6  C   UNL     1      -1.027  11.260  21.734  0.00  0.00    +0.000 C 
ATOM      7  C   UNL     1      -0.462  10.622  23.061  0.00  0.00    +0.000 C 
ATOM      8  C   UNL     1      -0.210   9.099  22.757  0.00  0.00    +0.000 C 
ENDROOT
BRANCH   1   9
ATOM      9  S   UNL     1       1.776   8.837  17.957  0.00  0.00    +0.000 S 
ATOM     10  O   UNL     1       2.727  10.072  17.753  0.00  0.00    +0.000 OA
BRANCH   9  11
ATOM     11  C   UNL     1       2.703   7.445  18.715  0.00  0.00    +0.000 C 
BRANCH  11  17
ATOM     12  C   UNL     1       3.426   5.086  17.934  0.00  0.00    +0.000 A 
ATOM     13  C   UNL     1       4.278   4.321  17.100  0.00  0.00    +0.000 A 
ATOM     14  C   UNL     1       5.174   4.891  16.193  0.00  0.00    +0.000 A 
ATOM     15  C   UNL     1       5.262   6.264  16.099  0.00  0.00    +0.000 A 
ATOM     16  C   UNL     1       4.458   7.060  16.908  0.00  0.00    +0.000 A 
ATOM     17  C   UNL     1       3.528   6.510  17.826  0.00  0.00    +0.000 A 
BRANCH  12  19
ATOM     18  C   UNL     1       2.906   4.021  20.143  0.00  0.00    +0.000 C 
ATOM     19  N   UNL     1       2.535   4.416  18.781  0.00  0.00    +0.000 N 
ATOM     20  C   UNL     1       1.317   3.816  18.252  0.00  0.00    +0.000 C 
ENDBRANCH  12  19
ENDBRANCH  11  17
ENDBRANCH   9  11
ENDBRANCH   1   9
BRANCH   5  21
ATOM     21  C   UNL     1      -0.521  11.279  18.449  0.00  0.00    +0.000 C 
BRANCH  21  22
ATOM     22  C   UNL     1      -1.919  11.086  17.903  0.00  0.00    +0.000 A 
ATOM     23  C   UNL     1      -3.028  11.734  18.466  0.00  0.00    +0.000 A 
ATOM     24  C   UNL     1      -4.300  11.626  17.895  0.00  0.00    +0.000 A 
ATOM     25  C   UNL     1      -4.479  10.872  16.729  0.00  0.00    +0.000 A 
ATOM     26  C   UNL     1      -3.390  10.220  16.159  0.00  0.00    +0.000 A 
ATOM     27  C   UNL     1      -2.124  10.318  16.743  0.00  0.00    +0.000 A 
ENDBRANCH  21  22
ENDBRANCH   5  21
TORSDOF 6
ENDMDL
MODEL 5
REMARK VINA RESULT:      -7.6      0.487      1.244
REMARK  Name = 
REMARK  8 active torsions:
REMARK  status: ('A' for Active; 'I' for Inactive)
REMARK    1  A    between atoms: C_1  and  N_2
REMARK    2  A    between atoms: N_2  and  C_3
REMARK    3  A    between atoms: N_2  and  C_4
REMARK    4  A    between atoms: C_9  and  C_10
REMARK    5  A    between atoms: C_10  and  S_11
REMARK    6  A    between atoms: S_11  and  C_13
REMARK    7  A    between atoms: N_17  and  C_18
REMARK    8  A    between atoms: C_18  and  C_19
REMARK                            x       y       z     vdW  Elec       q    Type
REMARK                         _______ _______ _______ _____ _____    ______ ____
ROOT
ATOM      1  C   UNL     1       2.293   6.207  19.628  0.00  0.00    +0.000 A 
ATOM      2  N   UNL     1       1.659   5.488  20.559  0.00  0.00    +0.000 NA
ATOM      3  C   UNL     1       1.744   4.218  20.113  0.00  0.00    +0.000 A 
ATOM      4  C   UNL     1       2.399   4.145  18.924  0.00  0.00    +0.000 A 
ATOM      5  N   UNL     1       2.892   5.389  18.673  0.00  0.00    +0.000 N 
ATOM      6  C   UNL     1       2.230   2.866  18.215  0.00  0.00    +0.000 C 
ATOM      7  C   UNL     1       1.023   2.270  19.035  0.00  0.00    +0.000 C 
ATOM      8  C   UNL     1       1.050   2.963  20.447  0.00  0.00    +0.000 C 
ENDROOT
BRANCH   1   9
ATOM      9  S   UNL     1       2.243   7.961  19.642  0.00  0.00    +0.000 S 
ATOM     10  O   UNL     1       2.570   8.453  18.186  0.00  0.00    +0.000 OA
BRANCH   9  11
ATOM     11  C   UNL     1       0.453   8.166  19.992  0.00  0.00    +0.000 C 
BRANCH  11  17
ATOM     12  C   UNL     1      -0.197  10.615  20.520  0.00  0.00    +0.000 A 
ATOM     13  C   UNL     1      -0.575  11.555  21.509  0.00  0.00    +0.000 A 
ATOM     14  C   UNL     1      -0.783  11.216  22.848  0.00  0.00    +0.000 A 
ATOM     15  C   UNL     1      -0.602   9.910  23.252  0.00  0.00    +0.000 A 
ATOM     16  C   UNL     1      -0.215   8.951  22.322  0.00  0.00    +0.000 A 
ATOM     17  C   UNL     1      -0.012   9.263  20.954  0.00  0.00    +0.000 A 
BRANCH  12  19
ATOM     18  C   UNL     1      -1.032  10.723  18.158  0.00  0.00    +0.000 C 
ATOM     19  N   UNL     1      -0.051  11.050  19.198  0.00  0.00    +0.000 N 
ATOM     20  C   UNL     1       1.221  11.584  18.728  0.00  0.00    +0.000 C 
ENDBRANCH  12  19
ENDBRANCH  11  17
ENDBRANCH   9  11
ENDBRANCH   1   9
BRANCH   5  21
ATOM     21  C   UNL     1       3.733   5.755  17.546  0.00  0.00    +0.000 C 
BRANCH  21  22
ATOM     22  C   UNL     1       5.163   6.054  17.941  0.00  0.00    +0.000 A 
ATOM     23  C   UNL     1       5.798   5.371  18.989  0.00  0.00    +0.000 A 
ATOM     24  C   UNL     1       7.148   5.586  19.283  0.00  0.00    +0.000 A 
ATOM     25  C   UNL     1       7.894   6.486  18.514  0.00  0.00    +0.000 A 
ATOM     26  C   UNL     1       7.280   7.174  17.473  0.00  0.00    +0.000 A 
ATOM     27  C   UNL     1       5.926   6.968  17.193  0.00  0.00    +0.000 A 
ENDBRANCH  21  22
ENDBRANCH   5  21
TORSDOF 6
ENDMDL
MODEL 6
REMARK VINA RESULT:      -7.6      1.412      2.215
REMARK  Name = 
REMARK  8 active torsions:
REMARK  status: ('A' for Active; 'I' for Inactive)
REMARK    1  A    between atoms: C_1  and  N_2
REMARK    2  A    between atoms: N_2  and  C_3
REMARK    3  A    between atoms: N_2  and  C_4
REMARK    4  A    between atoms: C_9  and  C_10
REMARK    5  A    between atoms: C_10  and  S_11
REMARK    6  A    between atoms: S_11  and  C_13
REMARK    7  A    between atoms: N_17  and  C_18
REMARK    8  A    between atoms: C_18  and  C_19
REMARK                            x       y       z     vdW  Elec       q    Type
REMARK                         _______ _______ _______ _____ _____    ______ ____
ROOT
ATOM      1  C   UNL     1       2.446   7.019  19.057  0.00  0.00    +0.000 A 
ATOM      2  N   UNL     1       1.680   6.617  20.075  0.00  0.00    +0.000 NA
ATOM      3  C   UNL     1       1.745   5.271  20.029  0.00  0.00    +0.000 A 
ATOM      4  C   UNL     1       2.518   4.840  18.997  0.00  0.00    +0.000 A 
ATOM      5  N   UNL     1       3.100   5.945  18.457  0.00  0.00    +0.000 N 
ATOM      6  C   UNL     1       2.360   3.412  18.675  0.00  0.00    +0.000 C 
ATOM      7  C   UNL     1       1.042   3.106  19.484  0.00  0.00    +0.000 C 
ATOM      8  C   UNL     1       0.955   4.182  20.628  0.00  0.00    +0.000 C 
ENDROOT
BRANCH   1   9
ATOM      9  S   UNL     1       2.487   8.700  18.557  0.00  0.00    +0.000 S 
ATOM     10  O   UNL     1       2.101   8.747  17.034  0.00  0.00    +0.000 OA
BRANCH   9  11
ATOM     11  C   UNL     1       1.090   9.309  19.581  0.00  0.00    +0.000 C 
BRANCH  11  17
ATOM     12  C   UNL     1       0.190  11.618  18.836  0.00  0.00    +0.000 A 
ATOM     13  C   UNL     1      -0.891  12.349  18.285  0.00  0.00    +0.000 A 
ATOM     14  C   UNL     1      -2.074  11.751  17.845  0.00  0.00    +0.000 A 
ATOM     15  C   UNL     1      -2.226  10.385  17.960  0.00  0.00    +0.000 A 
ATOM     16  C   UNL     1      -1.200   9.624  18.509  0.00  0.00    +0.000 A 
ATOM     17  C   UNL     1       0.018  10.201  18.949  0.00  0.00    +0.000 A 
BRANCH  12  19
ATOM     18  C   UNL     1       2.475  12.493  18.290  0.00  0.00    +0.000 C 
ATOM     19  N   UNL     1       1.349  12.309  19.210  0.00  0.00    +0.000 N 
ATOM     20  C   UNL     1       1.614  12.608  20.612  0.00  0.00    +0.000 C 
ENDBRANCH  12  19
ENDBRANCH  11  17
ENDBRANCH   9  11
ENDBRANCH   1   9
BRANCH   5  21
ATOM     21  C   UNL     1       4.075   5.948  17.379  0.00  0.00    +0.000 C 
BRANCH  21  22
ATOM     22  C   UNL     1       5.481   6.254  17.848  0.00  0.00    +0.000 A 
ATOM     23  C   UNL     1       6.111   5.490  18.841  0.00  0.00    +0.000 A 
ATOM     24  C   UNL     1       7.444   5.720  19.198  0.00  0.00    +0.000 A 
ATOM     25  C   UNL     1       8.177   6.718  18.547  0.00  0.00    +0.000 A 
ATOM     26  C   UNL     1       7.567   7.488  17.562  0.00  0.00    +0.000 A 
ATOM     27  C   UNL     1       6.230   7.265  17.220  0.00  0.00    +0.000 A 
ENDBRANCH  21  22
ENDBRANCH   5  21
TORSDOF 6
ENDMDL
MODEL 7
REMARK VINA RESULT:      -7.6      0.991      2.132
REMARK  Name = 
REMARK  8 active torsions:
REMARK  status: ('A' for Active; 'I' for Inactive)
REMARK    1  A    between atoms: C_1  and  N_2
REMARK    2  A    between atoms: N_2  and  C_3
REMARK    3  A    between atoms: N_2  and  C_4
REMARK    4  A    between atoms: C_9  and  C_10
REMARK    5  A    between atoms: C_10  and  S_11
REMARK    6  A    between atoms: S_11  and  C_13
REMARK    7  A    between atoms: N_17  and  C_18
REMARK    8  A    between atoms: C_18  and  C_19
REMARK                            x       y       z     vdW  Elec       q    Type
REMARK                         _______ _______ _______ _____ _____    ______ ____
ROOT
ATOM      1  C   UNL     1       2.434   7.025  19.150  0.00  0.00    +0.000 A 
ATOM      2  N   UNL     1       1.734   6.552  20.185  0.00  0.00    +0.000 NA
ATOM      3  C   UNL     1       1.797   5.212  20.046  0.00  0.00    +0.000 A 
ATOM      4  C   UNL     1       2.503   4.854  18.940  0.00  0.00    +0.000 A 
ATOM      5  N   UNL     1       3.048   5.996  18.439  0.00  0.00    +0.000 N 
ATOM      6  C   UNL     1       2.326   3.451  18.535  0.00  0.00    +0.000 C 
ATOM      7  C   UNL     1       1.063   3.085  19.404  0.00  0.00    +0.000 C 
ATOM      8  C   UNL     1       1.048   4.082  20.620  0.00  0.00    +0.000 C 
ENDROOT
BRANCH   1   9
ATOM      9  S   UNL     1       2.441   8.735  18.762  0.00  0.00    +0.000 S 
ATOM     10  O   UNL     1       2.057   8.875  17.244  0.00  0.00    +0.000 OA
BRANCH   9  11
ATOM     11  C   UNL     1       1.032   9.247  19.820  0.00  0.00    +0.000 C 
BRANCH  11  17
ATOM     12  C   UNL     1      -0.672  11.193  19.923  0.00  0.00    +0.000 A 
ATOM     13  C   UNL     1      -1.754  11.857  19.296  0.00  0.00    +0.000 A 
ATOM     14  C   UNL     1      -2.258  11.489  18.046  0.00  0.00    +0.000 A 
ATOM     15  C   UNL     1      -1.700  10.418  17.380  0.00  0.00    +0.000 A 
ATOM     16  C   UNL     1      -0.645   9.721  17.961  0.00  0.00    +0.000 A 
ATOM     17  C   UNL     1      -0.103  10.082  19.220  0.00  0.00    +0.000 A 
BRANCH  12  19
ATOM     18  C   UNL     1      -0.698  11.112  22.429  0.00  0.00    +0.000 C 
ATOM     19  N   UNL     1      -0.217  11.666  21.160  0.00  0.00    +0.000 N 
ATOM     20  C   UNL     1       0.515  12.923  21.249  0.00  0.00    +0.000 C 
ENDBRANCH  12  19
ENDBRANCH  11  17
ENDBRANCH   9  11
ENDBRANCH   1   9
BRANCH   5  21
ATOM     21  C   UNL     1       3.953   6.076  17.304  0.00  0.00    +0.000 C 
BRANCH  21  22
ATOM     22  C   UNL     1       5.403   6.233  17.707  0.00  0.00    +0.000 A 
ATOM     23  C   UNL     1       6.223   7.221  17.141  0.00  0.00    +0.000 A 
ATOM     24  C   UNL     1       7.532   7.422  17.590  0.00  0.00    +0.000 A 
ATOM     25  C   UNL     1       8.039   6.639  18.633  0.00  0.00    +0.000 A 
ATOM     26  C   UNL     1       7.241   5.653  19.202  0.00  0.00    +0.000 A 
ATOM     27  C   UNL     1       5.938   5.445  18.740  0.00  0.00    +0.000 A 
ENDBRANCH  21  22
ENDBRANCH   5  21
TORSDOF 6
ENDMDL
MODEL 8
REMARK VINA RESULT:      -7.5      0.983      1.249
REMARK  Name = 
REMARK  8 active torsions:
REMARK  status: ('A' for Active; 'I' for Inactive)
REMARK    1  A    between atoms: C_1  and  N_2
REMARK    2  A    between atoms: N_2  and  C_3
REMARK    3  A    between atoms: N_2  and  C_4
REMARK    4  A    between atoms: C_9  and  C_10
REMARK    5  A    between atoms: C_10  and  S_11
REMARK    6  A    between atoms: S_11  and  C_13
REMARK    7  A    between atoms: N_17  and  C_18
REMARK    8  A    between atoms: C_18  and  C_19
REMARK                            x       y       z     vdW  Elec       q    Type
REMARK                         _______ _______ _______ _____ _____    ______ ____
ROOT
ATOM      1  C   UNL     1       2.215   6.208  19.741  0.00  0.00    +0.000 A 
ATOM      2  N   UNL     1       1.674   5.392  20.651  0.00  0.00    +0.000 NA
ATOM      3  C   UNL     1       1.783   4.164  20.104  0.00  0.00    +0.000 A 
ATOM      4  C   UNL     1       2.362   4.211  18.875  0.00  0.00    +0.000 A 
ATOM      5  N   UNL     1       2.784   5.491  18.690  0.00  0.00    +0.000 N 
ATOM      6  C   UNL     1       2.202   2.981  18.082  0.00  0.00    +0.000 C 
ATOM      7  C   UNL     1       1.076   2.270  18.925  0.00  0.00    +0.000 C 
ATOM      8  C   UNL     1       1.166   2.856  20.382  0.00  0.00    +0.000 C 
ENDROOT
BRANCH   1   9
ATOM      9  S   UNL     1       2.092   7.951  19.894  0.00  0.00    +0.000 S 
ATOM     10  O   UNL     1       2.239   8.560  18.452  0.00  0.00    +0.000 OA
BRANCH   9  11
ATOM     11  C   UNL     1       0.342   8.040  20.443  0.00  0.00    +0.000 C 
BRANCH  11  17
ATOM     12  C   UNL     1      -0.315  10.539  20.574  0.00  0.00    +0.000 A 
ATOM     13  C   UNL     1      -0.722  11.618  21.396  0.00  0.00    +0.000 A 
ATOM     14  C   UNL     1      -0.976  11.484  22.763  0.00  0.00    +0.000 A 
ATOM     15  C   UNL     1      -0.813  10.254  23.366  0.00  0.00    +0.000 A 
ATOM     16  C   UNL     1      -0.399   9.166  22.604  0.00  0.00    +0.000 A 
ATOM     17  C   UNL     1      -0.149   9.268  21.213  0.00  0.00    +0.000 A 
BRANCH  12  19
ATOM     18  C   UNL     1       0.903  11.691  18.709  0.00  0.00    +0.000 C 
ATOM     19  N   UNL     1      -0.125  10.771  19.206  0.00  0.00    +0.000 N 
ATOM     20  C   UNL     1      -1.127  10.349  18.236  0.00  0.00    +0.000 C 
ENDBRANCH  12  19
ENDBRANCH  11  17
ENDBRANCH   9  11
ENDBRANCH   1   9
BRANCH   5  21
ATOM     21  C   UNL     1       3.535   5.979  17.545  0.00  0.00    +0.000 C 
BRANCH  21  22
ATOM     22  C   UNL     1       4.991   5.570  17.569  0.00  0.00    +0.000 A 
ATOM     23  C   UNL     1       5.783   5.719  18.718  0.00  0.00    +0.000 A 
ATOM     24  C   UNL     1       7.099   5.249  18.759  0.00  0.00    +0.000 A 
ATOM     25  C   UNL     1       7.643   4.601  17.645  0.00  0.00    +0.000 A 
ATOM     26  C   UNL     1       6.874   4.448  16.496  0.00  0.00    +0.000 A 
ATOM     27  C   UNL     1       5.564   4.934  16.454  0.00  0.00    +0.000 A 
ENDBRANCH  21  22
ENDBRANCH   5  21
TORSDOF 6
ENDMDL
MODEL 9
REMARK VINA RESULT:      -7.5      1.745      7.892
REMARK  Name = 
REMARK  8 active torsions:
REMARK  status: ('A' for Active; 'I' for Inactive)
REMARK    1  A    between atoms: C_1  and  N_2
REMARK    2  A    between atoms: N_2  and  C_3
REMARK    3  A    between atoms: N_2  and  C_4
REMARK    4  A    between atoms: C_9  and  C_10
REMARK    5  A    between atoms: C_10  and  S_11
REMARK    6  A    between atoms: S_11  and  C_13
REMARK    7  A    between atoms: N_17  and  C_18
REMARK    8  A    between atoms: C_18  and  C_19
REMARK                            x       y       z     vdW  Elec       q    Type
REMARK                         _______ _______ _______ _____ _____    ______ ____
ROOT
ATOM      1  C   UNL     1       0.842   9.056  19.317  0.00  0.00    +0.000 A 
ATOM      2  N   UNL     1       0.848   8.333  20.441  0.00  0.00    +0.000 NA
ATOM      3  C   UNL     1       0.074   9.035  21.293  0.00  0.00    +0.000 A 
ATOM      4  C   UNL     1      -0.390  10.180  20.724  0.00  0.00    +0.000 A 
ATOM      5  N   UNL     1      -0.034  10.135  19.411  0.00  0.00    +0.000 N 
ATOM      6  C   UNL     1      -0.943  11.153  21.680  0.00  0.00    +0.000 C 
ATOM      7  C   UNL     1      -0.394  10.539  23.024  0.00  0.00    +0.000 C 
ATOM      8  C   UNL     1      -0.135   9.012  22.750  0.00  0.00    +0.000 C 
ENDROOT
BRANCH   1   9
ATOM      9  S   UNL     1       1.911   8.670  17.981  0.00  0.00    +0.000 S 
ATOM     10  O   UNL     1       2.801   9.937  17.708  0.00  0.00    +0.000 OA
BRANCH   9  11
ATOM     11  C   UNL     1       2.903   7.367  18.811  0.00  0.00    +0.000 C 
BRANCH  11  17
ATOM     12  C   UNL     1       4.053   5.255  17.855  0.00  0.00    +0.000 A 
ATOM     13  C   UNL     1       3.890   3.950  17.331  0.00  0.00    +0.000 A 
ATOM     14  C   UNL     1       2.651   3.312  17.236  0.00  0.00    +0.000 A 
ATOM     15  C   UNL     1       1.515   3.975  17.650  0.00  0.00    +0.000 A 
ATOM     16  C   UNL     1       1.619   5.266  18.158  0.00  0.00    +0.000 A 
ATOM     17  C   UNL     1       2.865   5.931  18.281  0.00  0.00    +0.000 A 
BRANCH  12  19
ATOM     18  C   UNL     1       6.210   5.541  19.101  0.00  0.00    +0.000 C 
ATOM     19  N   UNL     1       5.345   5.789  17.944  0.00  0.00    +0.000 N 
ATOM     20  C   UNL     1       5.771   6.853  17.044  0.00  0.00    +0.000 C 
ENDBRANCH  12  19
ENDBRANCH  11  17
ENDBRANCH   9  11
ENDBRANCH   1   9
BRANCH   5  21
ATOM     21  C   UNL     1      -0.396  11.116  18.401  0.00  0.00    +0.000 C 
BRANCH  21  22
ATOM     22  C   UNL     1      -1.807  10.944  17.881  0.00  0.00    +0.000 A 
ATOM     23  C   UNL     1      -2.878  11.696  18.387  0.00  0.00    +0.000 A 
ATOM     24  C   UNL     1      -4.158  11.600  17.834  0.00  0.00    +0.000 A 
ATOM     25  C   UNL     1      -4.384  10.753  16.743  0.00  0.00    +0.000 A 
ATOM     26  C   UNL     1      -3.335   9.997  16.231  0.00  0.00    +0.000 A 
ATOM     27  C   UNL     1      -2.060  10.085  16.798  0.00  0.00    +0.000 A 
ENDBRANCH  21  22
ENDBRANCH   5  21
TORSDOF 6
ENDMDL
