MODEL 1
REMARK VINA RESULT:      -7.3      0.000      0.000
REMARK  Name = 
REMARK  5 active torsions:
REMARK  status: ('A' for Active; 'I' for Inactive)
REMARK    1  A    between atoms: C_1  and  O_2
REMARK    2  A    between atoms: O_2  and  C_3
REMARK    3  A    between atoms: C_9  and  C_10
REMARK    4  A    between atoms: C_16  and  C_17
REMARK    5  A    between atoms: N_18  and  C_19
REMARK                            x       y       z     vdW  Elec       q    Type
REMARK                         _______ _______ _______ _____ _____    ______ ____
ROOT
ATOM      1  C   UNL     1       6.779   6.265  16.837  0.00  0.00    +0.000 A 
ATOM      2  C   UNL     1       6.982   4.915  16.574  0.00  0.00    +0.000 A 
ATOM      3  C   UNL     1       5.997   3.972  16.839  0.00  0.00    +0.000 A 
ATOM      4  C   UNL     1       4.783   4.411  17.389  0.00  0.00    +0.000 A 
ATOM      5  C   UNL     1       4.538   5.758  17.666  0.00  0.00    +0.000 A 
ATOM      6  C   UNL     1       5.560   6.693  17.381  0.00  0.00    +0.000 A 
ATOM      7  C   UNL     1       3.223   5.831  18.227  0.00  0.00    +0.000 A 
ATOM      8  C   UNL     1       2.703   4.542  18.285  0.00  0.00    +0.000 A 
ATOM      9  C   UNL     1       1.384   4.060  18.773  0.00  0.00    +0.000 C 
ATOM     10  N   UNL     1       3.662   3.702  17.767  0.00  0.00    +0.000 N 
ATOM     11  C   UNL     1       3.554   2.261  17.630  0.00  0.00    +0.000 C 
ENDROOT
BRANCH   7  12
ATOM     12  C   UNL     1       2.571   7.073  18.649  0.00  0.00    +0.000 A 
ATOM     13  C   UNL     1       2.120   7.351  19.924  0.00  0.00    +0.000 A 
ATOM     14  S   UNL     1       1.397   8.901  19.961  0.00  0.00    +0.000 S 
ATOM     15  C   UNL     1       1.785   9.103  18.300  0.00  0.00    +0.000 A 
ATOM     16  N   UNL     1       1.483  10.248  17.661  0.00  0.00    +0.000 N 
ATOM     17  N   UNL     1       2.382   8.092  17.731  0.00  0.00    +0.000 NA
ATOM     18  H   UNL     1       0.856  10.919  18.079  0.00  0.00    +0.000 HD
ATOM     19  H   UNL     1       1.580  10.272  16.654  0.00  0.00    +0.000 HD
ENDBRANCH   7  12
BRANCH   1  21
ATOM     20  C   UNL     1       7.842   8.190  17.686  0.00  0.00    +0.000 C 
ATOM     21  O   UNL     1       7.715   7.244  16.626  0.00  0.00    +0.000 OA
ENDBRANCH   1  21
TORSDOF 2
ENDMDL
MODEL 2
REMARK VINA RESULT:      -7.2      1.136      1.264
REMARK  Name = 
REMARK  5 active torsions:
REMARK  status: ('A' for Active; 'I' for Inactive)
REMARK    1  A    between atoms: C_1  and  O_2
REMARK    2  A    between atoms: O_2  and  C_3
REMARK    3  A    between atoms: C_9  and  C_10
REMARK    4  A    between atoms: C_16  and  C_17
REMARK    5  A    between atoms: N_18  and  C_19
REMARK                            x       y       z     vdW  Elec       q    Type
REMARK                         _______ _______ _______ _____ _____    ______ ____
ROOT
ATOM      1  C   UNL     1       6.817   6.311  16.862  0.00  0.00    +0.000 A 
ATOM      2  C   UNL     1       7.039   4.956  16.639  0.00  0.00    +0.000 A 
ATOM      3  C   UNL     1       6.055   4.012  16.903  0.00  0.00    +0.000 A 
ATOM      4  C   UNL     1       4.824   4.454  17.411  0.00  0.00    +0.000 A 
ATOM      5  C   UNL     1       4.560   5.804  17.647  0.00  0.00    +0.000 A 
ATOM      6  C   UNL     1       5.581   6.742  17.363  0.00  0.00    +0.000 A 
ATOM      7  C   UNL     1       3.231   5.879  18.172  0.00  0.00    +0.000 A 
ATOM      8  C   UNL     1       2.721   4.588  18.251  0.00  0.00    +0.000 A 
ATOM      9  C   UNL     1       1.394   4.106  18.718  0.00  0.00    +0.000 C 
ATOM     10  N   UNL     1       3.699   3.744  17.779  0.00  0.00    +0.000 N 
ATOM     11  C   UNL     1       3.607   2.299  17.677  0.00  0.00    +0.000 C 
ENDROOT
BRANCH   7  12
ATOM     12  C   UNL     1       2.557   7.126  18.545  0.00  0.00    +0.000 A 
ATOM     13  C   UNL     1       2.232   8.152  17.681  0.00  0.00    +0.000 A 
ATOM     14  S   UNL     1       1.485   9.426  18.545  0.00  0.00    +0.000 S 
ATOM     15  C   UNL     1       1.602   8.495  19.984  0.00  0.00    +0.000 A 
ATOM     16  N   UNL     1       1.112   8.966  21.146  0.00  0.00    +0.000 N 
ATOM     17  N   UNL     1       2.179   7.332  19.861  0.00  0.00    +0.000 NA
ATOM     18  H   UNL     1       0.854   9.937  21.238  0.00  0.00    +0.000 HD
ATOM     19  H   UNL     1       1.339   8.468  21.997  0.00  0.00    +0.000 HD
ENDBRANCH   7  12
BRANCH   1  21
ATOM     20  C   UNL     1       7.858   8.254  17.697  0.00  0.00    +0.000 C 
ATOM     21  O   UNL     1       7.750   7.292  16.649  0.00  0.00    +0.000 OA
ENDBRANCH   1  21
TORSDOF 2
ENDMDL
MODEL 3
REMARK VINA RESULT:      -6.8      3.353      5.205
REMARK  Name = 
REMARK  5 active torsions:
REMARK  status: ('A' for Active; 'I' for Inactive)
REMARK    1  A    between atoms: C_1  and  O_2
REMARK    2  A    between atoms: O_2  and  C_3
REMARK    3  A    between atoms: C_9  and  C_10
REMARK    4  A    between atoms: C_16  and  C_17
REMARK    5  A    between atoms: N_18  and  C_19
REMARK                            x       y       z     vdW  Elec       q    Type
REMARK                         _______ _______ _______ _____ _____    ______ ____
ROOT
ATOM      1  C   UNL     1       2.156   8.213  18.809  0.00  0.00    +0.000 A 
ATOM      2  C   UNL     1       1.491   7.902  19.990  0.00  0.00    +0.000 A 
ATOM      3  C   UNL     1       1.646   6.665  20.602  0.00  0.00    +0.000 A 
ATOM      4  C   UNL     1       2.491   5.722  19.996  0.00  0.00    +0.000 A 
ATOM      5  C   UNL     1       3.178   5.994  18.811  0.00  0.00    +0.000 A 
ATOM      6  C   UNL     1       3.001   7.266  18.216  0.00  0.00    +0.000 A 
ATOM      7  C   UNL     1       3.918   4.814  18.483  0.00  0.00    +0.000 A 
ATOM      8  C   UNL     1       3.664   3.856  19.459  0.00  0.00    +0.000 A 
ATOM      9  C   UNL     1       4.179   2.468  19.600  0.00  0.00    +0.000 C 
ATOM     10  N   UNL     1       2.804   4.430  20.366  0.00  0.00    +0.000 N 
ATOM     11  C   UNL     1       2.266   3.796  21.556  0.00  0.00    +0.000 C 
ENDROOT
BRANCH   7  12
ATOM     12  C   UNL     1       4.788   4.681  17.312  0.00  0.00    +0.000 A 
ATOM     13  C   UNL     1       4.626   3.767  16.290  0.00  0.00    +0.000 A 
ATOM     14  S   UNL     1       5.886   3.943  15.145  0.00  0.00    +0.000 S 
ATOM     15  C   UNL     1       6.515   5.251  16.066  0.00  0.00    +0.000 A 
ATOM     16  N   UNL     1       7.603   5.922  15.646  0.00  0.00    +0.000 N 
ATOM     17  N   UNL     1       5.870   5.533  17.163  0.00  0.00    +0.000 NA
ATOM     18  H   UNL     1       8.179   5.553  14.904  0.00  0.00    +0.000 HD
ATOM     19  H   UNL     1       8.038   6.574  16.285  0.00  0.00    +0.000 HD
ENDBRANCH   7  12
BRANCH   1  21
ATOM     20  C   UNL     1       0.773  10.057  18.318  0.00  0.00    +0.000 C 
ATOM     21  O   UNL     1       2.027   9.401  18.138  0.00  0.00    +0.000 OA
ENDBRANCH   1  21
TORSDOF 2
ENDMDL
MODEL 4
REMARK VINA RESULT:      -6.7      3.476      5.352
REMARK  Name = 
REMARK  5 active torsions:
REMARK  status: ('A' for Active; 'I' for Inactive)
REMARK    1  A    between atoms: C_1  and  O_2
REMARK    2  A    between atoms: O_2  and  C_3
REMARK    3  A    between atoms: C_9  and  C_10
REMARK    4  A    between atoms: C_16  and  C_17
REMARK    5  A    between atoms: N_18  and  C_19
REMARK                            x       y       z     vdW  Elec       q    Type
REMARK                         _______ _______ _______ _____ _____    ______ ____
ROOT
ATOM      1  C   UNL     1       2.213   7.547  19.283  0.00  0.00    +0.000 A 
ATOM      2  C   UNL     1       1.416   7.080  20.322  0.00  0.00    +0.000 A 
ATOM      3  C   UNL     1       1.567   5.794  20.825  0.00  0.00    +0.000 A 
ATOM      4  C   UNL     1       2.544   4.964  20.253  0.00  0.00    +0.000 A 
ATOM      5  C   UNL     1       3.366   5.394  19.210  0.00  0.00    +0.000 A 
ATOM      6  C   UNL     1       3.190   6.712  18.724  0.00  0.00    +0.000 A 
ATOM      7  C   UNL     1       4.217   4.294  18.874  0.00  0.00    +0.000 A 
ATOM      8  C   UNL     1       3.896   3.226  19.706  0.00  0.00    +0.000 A 
ATOM      9  C   UNL     1       4.474   1.859  19.780  0.00  0.00    +0.000 C 
ATOM     10  N   UNL     1       2.886   3.657  20.535  0.00  0.00    +0.000 N 
ATOM     11  C   UNL     1       2.234   2.874  21.569  0.00  0.00    +0.000 C 
ENDROOT
BRANCH   7  12
ATOM     12  C   UNL     1       5.244   4.330  17.830  0.00  0.00    +0.000 A 
ATOM     13  C   UNL     1       6.519   4.837  17.976  0.00  0.00    +0.000 A 
ATOM     14  S   UNL     1       7.371   4.706  16.497  0.00  0.00    +0.000 S 
ATOM     15  C   UNL     1       6.001   3.940  15.797  0.00  0.00    +0.000 A 
ATOM     16  N   UNL     1       6.035   3.510  14.522  0.00  0.00    +0.000 N 
ATOM     17  N   UNL     1       4.965   3.809  16.578  0.00  0.00    +0.000 NA
ATOM     18  H   UNL     1       6.774   3.802  13.902  0.00  0.00    +0.000 HD
ATOM     19  H   UNL     1       5.166   3.212  14.096  0.00  0.00    +0.000 HD
ENDBRANCH   7  12
BRANCH   1  21
ATOM     20  C   UNL     1       1.042   9.592  19.246  0.00  0.00    +0.000 C 
ATOM     21  O   UNL     1       2.101   8.792  18.722  0.00  0.00    +0.000 OA
ENDBRANCH   1  21
TORSDOF 2
ENDMDL
MODEL 5
REMARK VINA RESULT:      -6.7      2.405      4.142
REMARK  Name = 
REMARK  5 active torsions:
REMARK  status: ('A' for Active; 'I' for Inactive)
REMARK    1  A    between atoms: C_1  and  O_2
REMARK    2  A    between atoms: O_2  and  C_3
REMARK    3  A    between atoms: C_9  and  C_10
REMARK    4  A    between atoms: C_16  and  C_17
REMARK    5  A    between atoms: N_18  and  C_19
REMARK                            x       y       z     vdW  Elec       q    Type
REMARK                         _______ _______ _______ _____ _____    ______ ____
ROOT
ATOM      1  C   UNL     1       2.140   2.627  19.458  0.00  0.00    +0.000 A 
ATOM      2  C   UNL     1       3.000   1.817  18.724  0.00  0.00    +0.000 A 
ATOM      3  C   UNL     1       3.897   2.357  17.812  0.00  0.00    +0.000 A 
ATOM      4  C   UNL     1       3.916   3.749  17.638  0.00  0.00    +0.000 A 
ATOM      5  C   UNL     1       3.072   4.598  18.356  0.00  0.00    +0.000 A 
ATOM      6  C   UNL     1       2.172   4.017  19.281  0.00  0.00    +0.000 A 
ATOM      7  C   UNL     1       3.352   5.930  17.913  0.00  0.00    +0.000 A 
ATOM      8  C   UNL     1       4.345   5.865  16.941  0.00  0.00    +0.000 A 
ATOM      9  C   UNL     1       5.002   6.949  16.164  0.00  0.00    +0.000 C 
ATOM     10  N   UNL     1       4.674   4.537  16.797  0.00  0.00    +0.000 N 
ATOM     11  C   UNL     1       5.668   3.995  15.887  0.00  0.00    +0.000 C 
ENDROOT
BRANCH   7  12
ATOM     12  C   UNL     1       2.688   7.130  18.426  0.00  0.00    +0.000 A 
ATOM     13  C   UNL     1       2.252   7.315  19.723  0.00  0.00    +0.000 A 
ATOM     14  S   UNL     1       1.507   8.847  19.876  0.00  0.00    +0.000 S 
ATOM     15  C   UNL     1       1.868   9.167  18.226  0.00  0.00    +0.000 A 
ATOM     16  N   UNL     1       1.541  10.348  17.671  0.00  0.00    +0.000 N 
ATOM     17  N   UNL     1       2.471   8.207  17.583  0.00  0.00    +0.000 NA
ATOM     18  H   UNL     1       0.910  10.979  18.141  0.00  0.00    +0.000 HD
ATOM     19  H   UNL     1       1.622  10.442  16.666  0.00  0.00    +0.000 HD
ENDBRANCH   7  12
BRANCH   1  21
ATOM     20  C   UNL     1       1.410   2.592  21.699  0.00  0.00    +0.000 C 
ATOM     21  O   UNL     1       1.213   2.161  20.353  0.00  0.00    +0.000 OA
ENDBRANCH   1  21
TORSDOF 2
ENDMDL
MODEL 6
REMARK VINA RESULT:      -6.6      3.266      5.206
REMARK  Name = 
REMARK  5 active torsions:
REMARK  status: ('A' for Active; 'I' for Inactive)
REMARK    1  A    between atoms: C_1  and  O_2
REMARK    2  A    between atoms: O_2  and  C_3
REMARK    3  A    between atoms: C_9  and  C_10
REMARK    4  A    between atoms: C_16  and  C_17
REMARK    5  A    between atoms: N_18  and  C_19
REMARK                            x       y       z     vdW  Elec       q    Type
REMARK                         _______ _______ _______ _____ _____    ______ ____
ROOT
ATOM      1  C   UNL     1       2.426   8.318  18.277  0.00  0.00    +0.000 A 
ATOM      2  C   UNL     1       1.641   8.079  19.400  0.00  0.00    +0.000 A 
ATOM      3  C   UNL     1       1.747   6.892  20.114  0.00  0.00    +0.000 A 
ATOM      4  C   UNL     1       2.664   5.926  19.674  0.00  0.00    +0.000 A 
ATOM      5  C   UNL     1       3.473   6.127  18.553  0.00  0.00    +0.000 A 
ATOM      6  C   UNL     1       3.344   7.349  17.850  0.00  0.00    +0.000 A 
ATOM      7  C   UNL     1       4.260   4.943  18.394  0.00  0.00    +0.000 A 
ATOM      8  C   UNL     1       3.915   4.052  19.405  0.00  0.00    +0.000 A 
ATOM      9  C   UNL     1       4.429   2.690  19.702  0.00  0.00    +0.000 C 
ATOM     10  N   UNL     1       2.953   4.672  20.170  0.00  0.00    +0.000 N 
ATOM     11  C   UNL     1       2.298   4.113  21.339  0.00  0.00    +0.000 C 
ENDROOT
BRANCH   7  12
ATOM     12  C   UNL     1       5.254   4.745  17.336  0.00  0.00    +0.000 A 
ATOM     13  C   UNL     1       6.583   5.109  17.405  0.00  0.00    +0.000 A 
ATOM     14  S   UNL     1       7.371   4.721  15.937  0.00  0.00    +0.000 S 
ATOM     15  C   UNL     1       5.902   4.053  15.346  0.00  0.00    +0.000 A 
ATOM     16  N   UNL     1       5.849   3.489  14.125  0.00  0.00    +0.000 N 
ATOM     17  N   UNL     1       4.881   4.130  16.153  0.00  0.00    +0.000 NA
ATOM     18  H   UNL     1       6.600   3.623  13.465  0.00  0.00    +0.000 HD
ATOM     19  H   UNL     1       4.940   3.252  13.748  0.00  0.00    +0.000 HD
ENDBRANCH   7  12
BRANCH   1  21
ATOM     20  C   UNL     1       1.927  10.620  18.209  0.00  0.00    +0.000 C 
ATOM     21  O   UNL     1       2.355   9.452  17.511  0.00  0.00    +0.000 OA
ENDBRANCH   1  21
TORSDOF 2
ENDMDL
MODEL 7
REMARK VINA RESULT:      -6.6      2.643      4.324
REMARK  Name = 
REMARK  5 active torsions:
REMARK  status: ('A' for Active; 'I' for Inactive)
REMARK    1  A    between atoms: C_1  and  O_2
REMARK    2  A    between atoms: O_2  and  C_3
REMARK    3  A    between atoms: C_9  and  C_10
REMARK    4  A    between atoms: C_16  and  C_17
REMARK    5  A    between atoms: N_18  and  C_19
REMARK                            x       y       z     vdW  Elec       q    Type
REMARK                         _______ _______ _______ _____ _____    ______ ____
ROOT
ATOM      1  C   UNL     1       2.193   2.596  19.432  0.00  0.00    +0.000 A 
ATOM      2  C   UNL     1       3.078   1.795  18.719  0.00  0.00    +0.000 A 
ATOM      3  C   UNL     1       3.980   2.344  17.817  0.00  0.00    +0.000 A 
ATOM      4  C   UNL     1       3.978   3.735  17.632  0.00  0.00    +0.000 A 
ATOM      5  C   UNL     1       3.108   4.575  18.330  0.00  0.00    +0.000 A 
ATOM      6  C   UNL     1       2.204   3.985  19.245  0.00  0.00    +0.000 A 
ATOM      7  C   UNL     1       3.373   5.908  17.882  0.00  0.00    +0.000 A 
ATOM      8  C   UNL     1       4.382   5.853  16.926  0.00  0.00    +0.000 A 
ATOM      9  C   UNL     1       5.033   6.943  16.152  0.00  0.00    +0.000 C 
ATOM     10  N   UNL     1       4.736   4.530  16.797  0.00  0.00    +0.000 N 
ATOM     11  C   UNL     1       5.754   3.999  15.908  0.00  0.00    +0.000 C 
ENDROOT
BRANCH   7  12
ATOM     12  C   UNL     1       2.680   7.100  18.375  0.00  0.00    +0.000 A 
ATOM     13  C   UNL     1       2.298   8.183  17.609  0.00  0.00    +0.000 A 
ATOM     14  S   UNL     1       1.548   9.362  18.597  0.00  0.00    +0.000 S 
ATOM     15  C   UNL     1       1.740   8.322  19.951  0.00  0.00    +0.000 A 
ATOM     16  N   UNL     1       1.278   8.685  21.163  0.00  0.00    +0.000 N 
ATOM     17  N   UNL     1       2.342   7.190  19.715  0.00  0.00    +0.000 NA
ATOM     18  H   UNL     1       0.997   9.637  21.341  0.00  0.00    +0.000 HD
ATOM     19  H   UNL     1       1.548   8.126  21.962  0.00  0.00    +0.000 HD
ENDBRANCH   7  12
BRANCH   1  21
ATOM     20  C   UNL     1       1.381   2.624  21.645  0.00  0.00    +0.000 C 
ATOM     21  O   UNL     1       1.260   2.120  20.316  0.00  0.00    +0.000 OA
ENDBRANCH   1  21
TORSDOF 2
ENDMDL
MODEL 8
REMARK VINA RESULT:      -6.5      1.510      1.678
REMARK  Name = 
REMARK  5 active torsions:
REMARK  status: ('A' for Active; 'I' for Inactive)
REMARK    1  A    between atoms: C_1  and  O_2
REMARK    2  A    between atoms: O_2  and  C_3
REMARK    3  A    between atoms: C_9  and  C_10
REMARK    4  A    between atoms: C_16  and  C_17
REMARK    5  A    between atoms: N_18  and  C_19
REMARK                            x       y       z     vdW  Elec       q    Type
REMARK                         _______ _______ _______ _____ _____    ______ ____
ROOT
ATOM      1  C   UNL     1       5.296   5.219  16.163  0.00  0.00    +0.000 A 
ATOM      2  C   UNL     1       5.322   3.831  16.232  0.00  0.00    +0.000 A 
ATOM      3  C   UNL     1       4.469   3.135  17.081  0.00  0.00    +0.000 A 
ATOM      4  C   UNL     1       3.577   3.868  17.879  0.00  0.00    +0.000 A 
ATOM      5  C   UNL     1       3.518   5.262  17.838  0.00  0.00    +0.000 A 
ATOM      6  C   UNL     1       4.397   5.940  16.960  0.00  0.00    +0.000 A 
ATOM      7  C   UNL     1       2.521   5.661  18.784  0.00  0.00    +0.000 A 
ATOM      8  C   UNL     1       2.004   4.516  19.379  0.00  0.00    +0.000 A 
ATOM      9  C   UNL     1       0.949   4.365  20.416  0.00  0.00    +0.000 C 
ATOM     10  N   UNL     1       2.653   3.444  18.811  0.00  0.00    +0.000 N 
ATOM     11  C   UNL     1       2.435   2.044  19.129  0.00  0.00    +0.000 C 
ENDROOT
BRANCH   7  12
ATOM     12  C   UNL     1       2.136   7.050  19.045  0.00  0.00    +0.000 A 
ATOM     13  C   UNL     1       1.840   7.582  20.283  0.00  0.00    +0.000 A 
ATOM     14  S   UNL     1       1.412   9.231  20.123  0.00  0.00    +0.000 S 
ATOM     15  C   UNL     1       1.705   9.124  18.433  0.00  0.00    +0.000 A 
ATOM     16  N   UNL     1       1.567  10.206  17.644  0.00  0.00    +0.000 N 
ATOM     17  N   UNL     1       2.066   7.950  17.994  0.00  0.00    +0.000 NA
ATOM     18  H   UNL     1       1.104  11.034  17.986  0.00  0.00    +0.000 HD
ATOM     19  H   UNL     1       1.590  10.071  16.641  0.00  0.00    +0.000 HD
ENDBRANCH   7  12
BRANCH   1  21
ATOM     20  C   UNL     1       7.022   5.213  14.558  0.00  0.00    +0.000 C 
ATOM     21  O   UNL     1       6.126   5.969  15.370  0.00  0.00    +0.000 OA
ENDBRANCH   1  21
TORSDOF 2
ENDMDL
MODEL 9
REMARK VINA RESULT:      -6.3      1.856      2.077
REMARK  Name = 
REMARK  5 active torsions:
REMARK  status: ('A' for Active; 'I' for Inactive)
REMARK    1  A    between atoms: C_1  and  O_2
REMARK    2  A    between atoms: O_2  and  C_3
REMARK    3  A    between atoms: C_9  and  C_10
REMARK    4  A    between atoms: C_16  and  C_17
REMARK    5  A    between atoms: N_18  and  C_19
REMARK                            x       y       z     vdW  Elec       q    Type
REMARK                         _______ _______ _______ _____ _____    ______ ____
ROOT
ATOM      1  C   UNL     1       5.357   5.267  16.070  0.00  0.00    +0.000 A 
ATOM      2  C   UNL     1       5.438   3.898  16.302  0.00  0.00    +0.000 A 
ATOM      3  C   UNL     1       4.632   3.278  17.248  0.00  0.00    +0.000 A 
ATOM      4  C   UNL     1       3.730   4.068  17.978  0.00  0.00    +0.000 A 
ATOM      5  C   UNL     1       3.615   5.444  17.774  0.00  0.00    +0.000 A 
ATOM      6  C   UNL     1       4.448   6.045  16.800  0.00  0.00    +0.000 A 
ATOM      7  C   UNL     1       2.624   5.916  18.692  0.00  0.00    +0.000 A 
ATOM      8  C   UNL     1       2.165   4.831  19.431  0.00  0.00    +0.000 A 
ATOM      9  C   UNL     1       1.140   4.767  20.506  0.00  0.00    +0.000 C 
ATOM     10  N   UNL     1       2.843   3.724  18.977  0.00  0.00    +0.000 N 
ATOM     11  C   UNL     1       2.687   2.365  19.464  0.00  0.00    +0.000 C 
ENDROOT
BRANCH   7  12
ATOM     12  C   UNL     1       2.191   7.311  18.798  0.00  0.00    +0.000 A 
ATOM     13  C   UNL     1       2.111   8.209  17.752  0.00  0.00    +0.000 A 
ATOM     14  S   UNL     1       1.589   9.733  18.330  0.00  0.00    +0.000 S 
ATOM     15  C   UNL     1       1.459   9.069  19.909  0.00  0.00    +0.000 A 
ATOM     16  N   UNL     1       1.020   9.822  20.934  0.00  0.00    +0.000 N 
ATOM     17  N   UNL     1       1.802   7.816  20.027  0.00  0.00    +0.000 NA
ATOM     18  H   UNL     1       0.952  10.825  20.842  0.00  0.00    +0.000 HD
ATOM     19  H   UNL     1       1.107   9.451  21.872  0.00  0.00    +0.000 HD
ENDBRANCH   7  12
BRANCH   1  21
ATOM     20  C   UNL     1       7.010   5.127  14.396  0.00  0.00    +0.000 C 
ATOM     21  O   UNL     1       6.139   5.947  15.174  0.00  0.00    +0.000 OA
ENDBRANCH   1  21
TORSDOF 2
ENDMDL
