MODEL 1
REMARK VINA RESULT:      -6.9      0.000      0.000
REMARK  Name = 
REMARK  12 active torsions:
REMARK  status: ('A' for Active; 'I' for Inactive)
REMARK    1  A    between atoms: C_1  and  O_2
REMARK    2  A    between atoms: O_2  and  C_3
REMARK    3  A    between atoms: C_5  and  O_6
REMARK    4  A    between atoms: O_6  and  C_7
REMARK    5  A    between atoms: C_8  and  S_9
REMARK    6  A    between atoms: S_9  and  N_12
REMARK    7  A    between atoms: N_12  and  C_13
REMARK    8  A    between atoms: C_13  and  C_14
REMARK    9  A    between atoms: C_20  and  S_21
REMARK   10  A    between atoms: S_21  and  N_24
REMARK   11  A    between atoms: N_24  and  C_25
REMARK   12  A    between atoms: C_25  and  C_26
REMARK                            x       y       z     vdW  Elec       q    Type
REMARK                         _______ _______ _______ _____ _____    ______ ____
ROOT
ATOM      1  C   UNL     1       0.541   8.520  21.171  0.00  0.00    +0.000 A 
ATOM      2  C   UNL     1       0.991   7.219  21.442  0.00  0.00    +0.000 A 
ATOM      3  C   UNL     1       1.818   6.506  20.567  0.00  0.00    +0.000 A 
ATOM      4  C   UNL     1       2.314   7.165  19.444  0.00  0.00    +0.000 A 
ATOM      5  C   UNL     1       1.960   8.510  19.210  0.00  0.00    +0.000 A 
ATOM      6  C   UNL     1       1.066   9.185  20.066  0.00  0.00    +0.000 A 
ENDROOT
BRANCH   4   7
ATOM      7  S   UNL     1       3.241   6.312  18.177  0.00  0.00    +0.000 S 
ATOM      8  O   UNL     1       2.392   5.317  17.558  0.00  0.00    +0.000 OA
ATOM      9  O   UNL     1       3.861   7.343  17.373  0.00  0.00    +0.000 OA
BRANCH   7  10
ATOM     10  N   UNL     1       4.489   5.545  19.010  0.00  0.00    +0.000 NA
ATOM     11  H   UNL     1       4.369   5.575  20.023  0.00  0.00    +0.000 HD
BRANCH  10  12
ATOM     12  C   UNL     1       4.848   4.207  18.522  0.00  0.00    +0.000 C 
BRANCH  12  13
ATOM     13  C   UNL     1       5.504   4.339  17.190  0.00  0.00    +0.000 A 
ATOM     14  C   UNL     1       5.218   3.842  15.936  0.00  0.00    +0.000 A 
ATOM     15  C   UNL     1       6.268   4.270  15.088  0.00  0.00    +0.000 A 
ATOM     16  C   UNL     1       7.116   5.014  15.873  0.00  0.00    +0.000 A 
ATOM     17  O   UNL     1       6.654   5.072  17.151  0.00  0.00    +0.000 OA
ENDBRANCH  12  13
ENDBRANCH  10  12
ENDBRANCH   7  10
ENDBRANCH   4   7
BRANCH   6  18
ATOM     18  S   UNL     1       0.807  10.932  19.779  0.00  0.00    +0.000 S 
ATOM     19  O   UNL     1       1.310  11.691  20.908  0.00  0.00    +0.000 OA
ATOM     20  O   UNL     1       1.316  11.191  18.450  0.00  0.00    +0.000 OA
BRANCH  18  21
ATOM     21  N   UNL     1      -0.859  11.123  19.687  0.00  0.00    +0.000 NA
ATOM     22  H   UNL     1      -1.315  11.265  20.588  0.00  0.00    +0.000 HD
BRANCH  21  23
ATOM     23  C   UNL     1      -1.365  11.999  18.624  0.00  0.00    +0.000 C 
BRANCH  23  24
ATOM     24  C   UNL     1      -2.124  11.179  17.637  0.00  0.00    +0.000 A 
ATOM     25  C   UNL     1      -1.871   9.979  16.999  0.00  0.00    +0.000 A 
ATOM     26  C   UNL     1      -2.955   9.757  16.115  0.00  0.00    +0.000 A 
ATOM     27  C   UNL     1      -3.809  10.820  16.281  0.00  0.00    +0.000 A 
ATOM     28  O   UNL     1      -3.316  11.690  17.202  0.00  0.00    +0.000 OA
ENDBRANCH  23  24
ENDBRANCH  21  23
ENDBRANCH  18  21
ENDBRANCH   6  18
BRANCH   1  30
ATOM     29  C   UNL     1       0.057   9.453  23.288  0.00  0.00    +0.000 C 
ATOM     30  O   UNL     1      -0.393   9.125  21.970  0.00  0.00    +0.000 OA
ENDBRANCH   1  30
BRANCH   3  31
ATOM     31  O   UNL     1       2.165   5.207  20.822  0.00  0.00    +0.000 OA
ATOM     32  C   UNL     1       1.135   4.239  20.592  0.00  0.00    +0.000 C 
ENDBRANCH   3  31
TORSDOF 10
ENDMDL
MODEL 2
REMARK VINA RESULT:      -6.7      1.838      8.445
REMARK  Name = 
REMARK  12 active torsions:
REMARK  status: ('A' for Active; 'I' for Inactive)
REMARK    1  A    between atoms: C_1  and  O_2
REMARK    2  A    between atoms: O_2  and  C_3
REMARK    3  A    between atoms: C_5  and  O_6
REMARK    4  A    between atoms: O_6  and  C_7
REMARK    5  A    between atoms: C_8  and  S_9
REMARK    6  A    between atoms: S_9  and  N_12
REMARK    7  A    between atoms: N_12  and  C_13
REMARK    8  A    between atoms: C_13  and  C_14
REMARK    9  A    between atoms: C_20  and  S_21
REMARK   10  A    between atoms: S_21  and  N_24
REMARK   11  A    between atoms: N_24  and  C_25
REMARK   12  A    between atoms: C_25  and  C_26
REMARK                            x       y       z     vdW  Elec       q    Type
REMARK                         _______ _______ _______ _____ _____    ______ ____
ROOT
ATOM      1  C   UNL     1       3.710   6.108  18.853  0.00  0.00    +0.000 A 
ATOM      2  C   UNL     1       2.609   6.434  19.660  0.00  0.00    +0.000 A 
ATOM      3  C   UNL     1       1.906   7.637  19.533  0.00  0.00    +0.000 A 
ATOM      4  C   UNL     1       2.238   8.487  18.479  0.00  0.00    +0.000 A 
ATOM      5  C   UNL     1       3.272   8.126  17.590  0.00  0.00    +0.000 A 
ATOM      6  C   UNL     1       4.015   6.943  17.782  0.00  0.00    +0.000 A 
ENDROOT
BRANCH   4   7
ATOM      7  S   UNL     1       1.525  10.117  18.315  0.00  0.00    +0.000 S 
ATOM      8  O   UNL     1       1.372  10.701  19.629  0.00  0.00    +0.000 OA
ATOM      9  O   UNL     1       2.306  10.794  17.301  0.00  0.00    +0.000 OA
BRANCH   7  10
ATOM     10  N   UNL     1       0.004   9.847  17.639  0.00  0.00    +0.000 NA
ATOM     11  H   UNL     1      -0.150   8.871  17.384  0.00  0.00    +0.000 HD
BRANCH  10  12
ATOM     12  C   UNL     1      -1.127  10.425  18.376  0.00  0.00    +0.000 C 
BRANCH  12  13
ATOM     13  C   UNL     1      -2.274  10.599  17.441  0.00  0.00    +0.000 A 
ATOM     14  C   UNL     1      -2.509  10.203  16.141  0.00  0.00    +0.000 A 
ATOM     15  C   UNL     1      -3.770  10.740  15.782  0.00  0.00    +0.000 A 
ATOM     16  C   UNL     1      -4.229  11.411  16.890  0.00  0.00    +0.000 A 
ATOM     17  O   UNL     1      -3.333  11.322  17.908  0.00  0.00    +0.000 OA
ENDBRANCH  12  13
ENDBRANCH  10  12
ENDBRANCH   7  10
ENDBRANCH   4   7
BRANCH   6  18
ATOM     18  S   UNL     1       5.193   6.493  16.513  0.00  0.00    +0.000 S 
ATOM     19  O   UNL     1       4.874   7.191  15.282  0.00  0.00    +0.000 OA
ATOM     20  O   UNL     1       6.499   6.649  17.115  0.00  0.00    +0.000 OA
BRANCH  18  21
ATOM     21  N   UNL     1       4.980   4.843  16.277  0.00  0.00    +0.000 NA
ATOM     22  H   UNL     1       4.178   4.603  15.696  0.00  0.00    +0.000 HD
BRANCH  21  23
ATOM     23  C   UNL     1       6.183   4.058  15.980  0.00  0.00    +0.000 C 
BRANCH  23  24
ATOM     24  C   UNL     1       6.558   4.262  14.551  0.00  0.00    +0.000 A 
ATOM     25  C   UNL     1       6.131   3.700  13.364  0.00  0.00    +0.000 A 
ATOM     26  C   UNL     1       6.927   4.267  12.339  0.00  0.00    +0.000 A 
ATOM     27  C   UNL     1       7.776   5.151  12.960  0.00  0.00    +0.000 A 
ATOM     28  O   UNL     1       7.562   5.157  14.302  0.00  0.00    +0.000 OA
ENDBRANCH  23  24
ENDBRANCH  21  23
ENDBRANCH  18  21
ENDBRANCH   6  18
BRANCH   1  30
ATOM     29  C   UNL     1       3.734   3.840  19.517  0.00  0.00    +0.000 C 
ATOM     30  O   UNL     1       4.470   4.998  19.111  0.00  0.00    +0.000 OA
ENDBRANCH   1  30
BRANCH   3  31
ATOM     31  O   UNL     1       0.893   7.960  20.394  0.00  0.00    +0.000 OA
ATOM     32  C   UNL     1       1.302   8.296  21.726  0.00  0.00    +0.000 C 
ENDBRANCH   3  31
TORSDOF 10
ENDMDL
MODEL 3
REMARK VINA RESULT:      -6.7      0.840      1.110
REMARK  Name = 
REMARK  12 active torsions:
REMARK  status: ('A' for Active; 'I' for Inactive)
REMARK    1  A    between atoms: C_1  and  O_2
REMARK    2  A    between atoms: O_2  and  C_3
REMARK    3  A    between atoms: C_5  and  O_6
REMARK    4  A    between atoms: O_6  and  C_7
REMARK    5  A    between atoms: C_8  and  S_9
REMARK    6  A    between atoms: S_9  and  N_12
REMARK    7  A    between atoms: N_12  and  C_13
REMARK    8  A    between atoms: C_13  and  C_14
REMARK    9  A    between atoms: C_20  and  S_21
REMARK   10  A    between atoms: S_21  and  N_24
REMARK   11  A    between atoms: N_24  and  C_25
REMARK   12  A    between atoms: C_25  and  C_26
REMARK                            x       y       z     vdW  Elec       q    Type
REMARK                         _______ _______ _______ _____ _____    ______ ____
ROOT
ATOM      1  C   UNL     1       0.540   8.556  21.061  0.00  0.00    +0.000 A 
ATOM      2  C   UNL     1       0.992   7.270  21.392  0.00  0.00    +0.000 A 
ATOM      3  C   UNL     1       1.840   6.527  20.564  0.00  0.00    +0.000 A 
ATOM      4  C   UNL     1       2.355   7.143  19.425  0.00  0.00    +0.000 A 
ATOM      5  C   UNL     1       1.999   8.475  19.131  0.00  0.00    +0.000 A 
ATOM      6  C   UNL     1       1.084   9.179  19.940  0.00  0.00    +0.000 A 
ENDROOT
BRANCH   4   7
ATOM      7  S   UNL     1       3.311   6.245  18.212  0.00  0.00    +0.000 S 
ATOM      8  O   UNL     1       2.490   5.202  17.639  0.00  0.00    +0.000 OA
ATOM      9  O   UNL     1       3.918   7.246  17.362  0.00  0.00    +0.000 OA
BRANCH   7  10
ATOM     10  N   UNL     1       4.567   5.549  19.095  0.00  0.00    +0.000 NA
ATOM     11  H   UNL     1       4.435   5.625  20.104  0.00  0.00    +0.000 HD
BRANCH  10  12
ATOM     12  C   UNL     1       4.962   4.198  18.677  0.00  0.00    +0.000 C 
BRANCH  12  13
ATOM     13  C   UNL     1       5.744   4.293  17.412  0.00  0.00    +0.000 A 
ATOM     14  C   UNL     1       6.940   4.892  17.076  0.00  0.00    +0.000 A 
ATOM     15  C   UNL     1       7.113   4.686  15.686  0.00  0.00    +0.000 A 
ATOM     16  C   UNL     1       6.024   3.959  15.267  0.00  0.00    +0.000 A 
ATOM     17  O   UNL     1       5.191   3.705  16.311  0.00  0.00    +0.000 OA
ENDBRANCH  12  13
ENDBRANCH  10  12
ENDBRANCH   7  10
ENDBRANCH   4   7
BRANCH   6  18
ATOM     18  S   UNL     1       0.822  10.911  19.577  0.00  0.00    +0.000 S 
ATOM     19  O   UNL     1       1.222  11.713  20.718  0.00  0.00    +0.000 OA
ATOM     20  O   UNL     1       1.430  11.138  18.285  0.00  0.00    +0.000 OA
BRANCH  18  21
ATOM     21  N   UNL     1      -0.835  11.070  19.350  0.00  0.00    +0.000 NA
ATOM     22  H   UNL     1      -1.356  11.279  20.200  0.00  0.00    +0.000 HD
BRANCH  21  23
ATOM     23  C   UNL     1      -1.269  11.847  18.183  0.00  0.00    +0.000 C 
BRANCH  23  24
ATOM     24  C   UNL     1      -2.725  11.619  17.960  0.00  0.00    +0.000 A 
ATOM     25  C   UNL     1      -3.468  11.192  16.875  0.00  0.00    +0.000 A 
ATOM     26  C   UNL     1      -4.827  11.249  17.270  0.00  0.00    +0.000 A 
ATOM     27  C   UNL     1      -4.829  11.688  18.572  0.00  0.00    +0.000 A 
ATOM     28  O   UNL     1      -3.560  11.915  19.002  0.00  0.00    +0.000 OA
ENDBRANCH  23  24
ENDBRANCH  21  23
ENDBRANCH  18  21
ENDBRANCH   6  18
BRANCH   1  30
ATOM     29  C   UNL     1      -0.022   9.487  23.159  0.00  0.00    +0.000 C 
ATOM     30  O   UNL     1      -0.412   9.187  21.816  0.00  0.00    +0.000 OA
ENDBRANCH   1  30
BRANCH   3  31
ATOM     31  O   UNL     1       2.189   5.241  20.878  0.00  0.00    +0.000 OA
ATOM     32  C   UNL     1       1.180   4.254  20.634  0.00  0.00    +0.000 C 
ENDBRANCH   3  31
TORSDOF 10
ENDMDL
MODEL 4
REMARK VINA RESULT:      -6.6      2.911      4.436
REMARK  Name = 
REMARK  12 active torsions:
REMARK  status: ('A' for Active; 'I' for Inactive)
REMARK    1  A    between atoms: C_1  and  O_2
REMARK    2  A    between atoms: O_2  and  C_3
REMARK    3  A    between atoms: C_5  and  O_6
REMARK    4  A    between atoms: O_6  and  C_7
REMARK    5  A    between atoms: C_8  and  S_9
REMARK    6  A    between atoms: S_9  and  N_12
REMARK    7  A    between atoms: N_12  and  C_13
REMARK    8  A    between atoms: C_13  and  C_14
REMARK    9  A    between atoms: C_20  and  S_21
REMARK   10  A    between atoms: S_21  and  N_24
REMARK   11  A    between atoms: N_24  and  C_25
REMARK   12  A    between atoms: C_25  and  C_26
REMARK                            x       y       z     vdW  Elec       q    Type
REMARK                         _______ _______ _______ _____ _____    ______ ____
ROOT
ATOM      1  C   UNL     1       2.581   5.572  19.392  0.00  0.00    +0.000 A 
ATOM      2  C   UNL     1       3.437   4.514  19.734  0.00  0.00    +0.000 A 
ATOM      3  C   UNL     1       4.720   4.371  19.193  0.00  0.00    +0.000 A 
ATOM      4  C   UNL     1       5.208   5.391  18.378  0.00  0.00    +0.000 A 
ATOM      5  C   UNL     1       4.403   6.517  18.109  0.00  0.00    +0.000 A 
ATOM      6  C   UNL     1       3.086   6.603  18.605  0.00  0.00    +0.000 A 
ENDROOT
BRANCH   4   7
ATOM      7  S   UNL     1       6.759   5.244  17.503  0.00  0.00    +0.000 S 
ATOM      8  O   UNL     1       6.994   6.455  16.748  0.00  0.00    +0.000 OA
ATOM      9  O   UNL     1       7.728   4.793  18.479  0.00  0.00    +0.000 OA
BRANCH   7  10
ATOM     10  N   UNL     1       6.524   3.956  16.440  0.00  0.00    +0.000 NA
ATOM     11  H   UNL     1       6.395   3.064  16.918  0.00  0.00    +0.000 HD
BRANCH  10  12
ATOM     12  C   UNL     1       5.528   4.181  15.384  0.00  0.00    +0.000 C 
BRANCH  12  13
ATOM     13  C   UNL     1       6.227   4.252  14.070  0.00  0.00    +0.000 A 
ATOM     14  C   UNL     1       6.142   3.515  12.907  0.00  0.00    +0.000 A 
ATOM     15  C   UNL     1       7.126   4.035  12.032  0.00  0.00    +0.000 A 
ATOM     16  C   UNL     1       7.734   5.066  12.708  0.00  0.00    +0.000 A 
ATOM     17  O   UNL     1       7.187   5.214  13.944  0.00  0.00    +0.000 OA
ENDBRANCH  12  13
ENDBRANCH  10  12
ENDBRANCH   7  10
ENDBRANCH   4   7
BRANCH   6  18
ATOM     18  S   UNL     1       2.205   8.138  18.346  0.00  0.00    +0.000 S 
ATOM     19  O   UNL     1       3.141   9.179  17.963  0.00  0.00    +0.000 OA
ATOM     20  O   UNL     1       1.093   7.812  17.480  0.00  0.00    +0.000 OA
BRANCH  18  21
ATOM     21  N   UNL     1       1.538   8.524  19.839  0.00  0.00    +0.000 NA
ATOM     22  H   UNL     1       2.040   8.134  20.635  0.00  0.00    +0.000 HD
BRANCH  21  23
ATOM     23  C   UNL     1       1.112   9.914  20.032  0.00  0.00    +0.000 C 
BRANCH  23  24
ATOM     24  C   UNL     1       0.350  10.019  21.309  0.00  0.00    +0.000 A 
ATOM     25  C   UNL     1      -0.686  10.827  21.738  0.00  0.00    +0.000 A 
ATOM     26  C   UNL     1      -0.929  10.486  23.091  0.00  0.00    +0.000 A 
ATOM     27  C   UNL     1      -0.043   9.482  23.398  0.00  0.00    +0.000 A 
ATOM     28  O   UNL     1       0.738   9.189  22.325  0.00  0.00    +0.000 OA
ENDBRANCH  23  24
ENDBRANCH  21  23
ENDBRANCH  18  21
ENDBRANCH   6  18
BRANCH   1  30
ATOM     29  C   UNL     1       0.799   4.359  20.361  0.00  0.00    +0.000 C 
ATOM     30  O   UNL     1       1.279   5.592  19.816  0.00  0.00    +0.000 OA
ENDBRANCH   1  30
BRANCH   3  31
ATOM     31  O   UNL     1       5.493   3.280  19.482  0.00  0.00    +0.000 OA
ATOM     32  C   UNL     1       4.788   2.149  20.007  0.00  0.00    +0.000 C 
ENDBRANCH   3  31
TORSDOF 10
ENDMDL
MODEL 5
REMARK VINA RESULT:      -6.6      1.527      1.830
REMARK  Name = 
REMARK  12 active torsions:
REMARK  status: ('A' for Active; 'I' for Inactive)
REMARK    1  A    between atoms: C_1  and  O_2
REMARK    2  A    between atoms: O_2  and  C_3
REMARK    3  A    between atoms: C_5  and  O_6
REMARK    4  A    between atoms: O_6  and  C_7
REMARK    5  A    between atoms: C_8  and  S_9
REMARK    6  A    between atoms: S_9  and  N_12
REMARK    7  A    between atoms: N_12  and  C_13
REMARK    8  A    between atoms: C_13  and  C_14
REMARK    9  A    between atoms: C_20  and  S_21
REMARK   10  A    between atoms: S_21  and  N_24
REMARK   11  A    between atoms: N_24  and  C_25
REMARK   12  A    between atoms: C_25  and  C_26
REMARK                            x       y       z     vdW  Elec       q    Type
REMARK                         _______ _______ _______ _____ _____    ______ ____
ROOT
ATOM      1  C   UNL     1       1.252   7.901  20.310  0.00  0.00    +0.000 A 
ATOM      2  C   UNL     1       1.732   6.694  20.838  0.00  0.00    +0.000 A 
ATOM      3  C   UNL     1       2.576   5.836  20.125  0.00  0.00    +0.000 A 
ATOM      4  C   UNL     1       3.058   6.263  18.888  0.00  0.00    +0.000 A 
ATOM      5  C   UNL     1       2.673   7.524  18.387  0.00  0.00    +0.000 A 
ATOM      6  C   UNL     1       1.762   8.338  19.090  0.00  0.00    +0.000 A 
ENDROOT
BRANCH   4   7
ATOM      7  S   UNL     1       4.005   5.190  17.818  0.00  0.00    +0.000 S 
ATOM      8  O   UNL     1       5.103   4.623  18.568  0.00  0.00    +0.000 OA
ATOM      9  O   UNL     1       3.043   4.327  17.166  0.00  0.00    +0.000 OA
BRANCH   7  10
ATOM     10  N   UNL     1       4.610   6.214  16.623  0.00  0.00    +0.000 NA
ATOM     11  H   UNL     1       4.297   7.179  16.730  0.00  0.00    +0.000 HD
BRANCH  10  12
ATOM     12  C   UNL     1       6.053   6.110  16.373  0.00  0.00    +0.000 C 
BRANCH  12  13
ATOM     13  C   UNL     1       6.273   5.309  15.136  0.00  0.00    +0.000 A 
ATOM     14  C   UNL     1       5.576   4.285  14.530  0.00  0.00    +0.000 A 
ATOM     15  C   UNL     1       6.341   3.891  13.406  0.00  0.00    +0.000 A 
ATOM     16  C   UNL     1       7.445   4.710  13.388  0.00  0.00    +0.000 A 
ATOM     17  O   UNL     1       7.407   5.583  14.429  0.00  0.00    +0.000 OA
ENDBRANCH  12  13
ENDBRANCH  10  12
ENDBRANCH   7  10
ENDBRANCH   4   7
BRANCH   6  18
ATOM     18  S   UNL     1       1.464   9.983  18.454  0.00  0.00    +0.000 S 
ATOM     19  O   UNL     1       1.369  10.922  19.556  0.00  0.00    +0.000 OA
ATOM     20  O   UNL     1       2.447  10.186  17.412  0.00  0.00    +0.000 OA
BRANCH  18  21
ATOM     21  N   UNL     1      -0.025   9.895  17.680  0.00  0.00    +0.000 NA
ATOM     22  H   UNL     1      -0.208   9.002  17.224  0.00  0.00    +0.000 HD
BRANCH  21  23
ATOM     23  C   UNL     1      -1.179  10.436  18.407  0.00  0.00    +0.000 C 
BRANCH  23  24
ATOM     24  C   UNL     1      -2.309  10.632  17.454  0.00  0.00    +0.000 A 
ATOM     25  C   UNL     1      -2.546  10.213  16.158  0.00  0.00    +0.000 A 
ATOM     26  C   UNL     1      -3.780  10.788  15.768  0.00  0.00    +0.000 A 
ATOM     27  C   UNL     1      -4.227  11.504  16.852  0.00  0.00    +0.000 A 
ATOM     28  O   UNL     1      -3.344  11.416  17.881  0.00  0.00    +0.000 OA
ENDBRANCH  23  24
ENDBRANCH  21  23
ENDBRANCH  18  21
ENDBRANCH   6  18
BRANCH   1  30
ATOM     29  C   UNL     1       0.686   9.083  22.277  0.00  0.00    +0.000 C 
ATOM     30  O   UNL     1       0.304   8.635  20.973  0.00  0.00    +0.000 OA
ENDBRANCH   1  30
BRANCH   3  31
ATOM     31  O   UNL     1       2.954   4.625  20.638  0.00  0.00    +0.000 OA
ATOM     32  C   UNL     1       1.955   3.946  21.409  0.00  0.00    +0.000 C 
ENDBRANCH   3  31
TORSDOF 10
ENDMDL
MODEL 6
REMARK VINA RESULT:      -6.5      3.889      8.035
REMARK  Name = 
REMARK  12 active torsions:
REMARK  status: ('A' for Active; 'I' for Inactive)
REMARK    1  A    between atoms: C_1  and  O_2
REMARK    2  A    between atoms: O_2  and  C_3
REMARK    3  A    between atoms: C_5  and  O_6
REMARK    4  A    between atoms: O_6  and  C_7
REMARK    5  A    between atoms: C_8  and  S_9
REMARK    6  A    between atoms: S_9  and  N_12
REMARK    7  A    between atoms: N_12  and  C_13
REMARK    8  A    between atoms: C_13  and  C_14
REMARK    9  A    between atoms: C_20  and  S_21
REMARK   10  A    between atoms: S_21  and  N_24
REMARK   11  A    between atoms: N_24  and  C_25
REMARK   12  A    between atoms: C_25  and  C_26
REMARK                            x       y       z     vdW  Elec       q    Type
REMARK                         _______ _______ _______ _____ _____    ______ ____
ROOT
ATOM      1  C   UNL     1       5.533   4.347  16.492  0.00  0.00    +0.000 A 
ATOM      2  C   UNL     1       4.190   4.024  16.244  0.00  0.00    +0.000 A 
ATOM      3  C   UNL     1       3.316   3.592  17.248  0.00  0.00    +0.000 A 
ATOM      4  C   UNL     1       3.769   3.605  18.566  0.00  0.00    +0.000 A 
ATOM      5  C   UNL     1       5.084   4.031  18.849  0.00  0.00    +0.000 A 
ATOM      6  C   UNL     1       5.969   4.390  17.813  0.00  0.00    +0.000 A 
ENDROOT
BRANCH   4   7
ATOM      7  S   UNL     1       2.804   2.924  19.907  0.00  0.00    +0.000 S 
ATOM      8  O   UNL     1       2.037   1.800  19.415  0.00  0.00    +0.000 OA
ATOM      9  O   UNL     1       3.721   2.753  21.012  0.00  0.00    +0.000 OA
BRANCH   7  10
ATOM     10  N   UNL     1       1.756   4.168  20.348  0.00  0.00    +0.000 NA
ATOM     11  H   UNL     1       0.927   3.835  20.839  0.00  0.00    +0.000 HD
BRANCH  10  12
ATOM     12  C   UNL     1       2.384   5.318  21.013  0.00  0.00    +0.000 C 
BRANCH  12  13
ATOM     13  C   UNL     1       2.176   6.533  20.176  0.00  0.00    +0.000 A 
ATOM     14  C   UNL     1       2.591   6.900  18.913  0.00  0.00    +0.000 A 
ATOM     15  C   UNL     1       2.121   8.220  18.706  0.00  0.00    +0.000 A 
ATOM     16  C   UNL     1       1.436   8.565  19.846  0.00  0.00    +0.000 A 
ATOM     17  O   UNL     1       1.453   7.543  20.742  0.00  0.00    +0.000 OA
ENDBRANCH  12  13
ENDBRANCH  10  12
ENDBRANCH   7  10
ENDBRANCH   4   7
BRANCH   6  18
ATOM     18  S   UNL     1       7.557   5.069  18.282  0.00  0.00    +0.000 S 
ATOM     19  O   UNL     1       7.494   5.556  19.648  0.00  0.00    +0.000 OA
ATOM     20  O   UNL     1       8.536   4.070  17.915  0.00  0.00    +0.000 OA
BRANCH  18  21
ATOM     21  N   UNL     1       7.805   6.369  17.248  0.00  0.00    +0.000 NA
ATOM     22  H   UNL     1       7.867   6.116  16.263  0.00  0.00    +0.000 HD
BRANCH  21  23
ATOM     23  C   UNL     1       7.007   7.575  17.500  0.00  0.00    +0.000 C 
BRANCH  23  24
ATOM     24  C   UNL     1       7.903   8.661  17.988  0.00  0.00    +0.000 A 
ATOM     25  C   UNL     1       8.887   8.722  18.957  0.00  0.00    +0.000 A 
ATOM     26  C   UNL     1       9.331  10.067  18.997  0.00  0.00    +0.000 A 
ATOM     27  C   UNL     1       8.607  10.736  18.041  0.00  0.00    +0.000 A 
ATOM     28  O   UNL     1       7.737   9.895  17.422  0.00  0.00    +0.000 OA
ENDBRANCH  23  24
ENDBRANCH  21  23
ENDBRANCH  18  21
ENDBRANCH   6  18
BRANCH   1  30
ATOM     29  C   UNL     1       5.974   4.141  14.179  0.00  0.00    +0.000 C 
ATOM     30  O   UNL     1       6.397   4.611  15.463  0.00  0.00    +0.000 OA
ENDBRANCH   1  30
BRANCH   3  31
ATOM     31  O   UNL     1       2.038   3.202  16.955  0.00  0.00    +0.000 OA
ATOM     32  C   UNL     1       1.032   4.205  17.137  0.00  0.00    +0.000 C 
ENDBRANCH   3  31
TORSDOF 10
ENDMDL
MODEL 7
REMARK VINA RESULT:      -6.5      2.103      2.766
REMARK  Name = 
REMARK  12 active torsions:
REMARK  status: ('A' for Active; 'I' for Inactive)
REMARK    1  A    between atoms: C_1  and  O_2
REMARK    2  A    between atoms: O_2  and  C_3
REMARK    3  A    between atoms: C_5  and  O_6
REMARK    4  A    between atoms: O_6  and  C_7
REMARK    5  A    between atoms: C_8  and  S_9
REMARK    6  A    between atoms: S_9  and  N_12
REMARK    7  A    between atoms: N_12  and  C_13
REMARK    8  A    between atoms: C_13  and  C_14
REMARK    9  A    between atoms: C_20  and  S_21
REMARK   10  A    between atoms: S_21  and  N_24
REMARK   11  A    between atoms: N_24  and  C_25
REMARK   12  A    between atoms: C_25  and  C_26
REMARK                            x       y       z     vdW  Elec       q    Type
REMARK                         _______ _______ _______ _____ _____    ______ ____
ROOT
ATOM      1  C   UNL     1       0.767   8.833  20.564  0.00  0.00    +0.000 A 
ATOM      2  C   UNL     1       1.162   7.574  21.040  0.00  0.00    +0.000 A 
ATOM      3  C   UNL     1       1.976   6.706  20.304  0.00  0.00    +0.000 A 
ATOM      4  C   UNL     1       2.516   7.167  19.105  0.00  0.00    +0.000 A 
ATOM      5  C   UNL     1       2.217   8.472  18.660  0.00  0.00    +0.000 A 
ATOM      6  C   UNL     1       1.335   9.301  19.382  0.00  0.00    +0.000 A 
ENDROOT
BRANCH   4   7
ATOM      7  S   UNL     1       3.430   6.097  18.004  0.00  0.00    +0.000 S 
ATOM      8  O   UNL     1       2.570   5.019  17.567  0.00  0.00    +0.000 OA
ATOM      9  O   UNL     1       4.059   6.967  17.033  0.00  0.00    +0.000 OA
BRANCH   7  10
ATOM     10  N   UNL     1       4.673   5.474  18.957  0.00  0.00    +0.000 NA
ATOM     11  H   UNL     1       4.483   5.546  19.956  0.00  0.00    +0.000 HD
BRANCH  10  12
ATOM     12  C   UNL     1       5.162   4.144  18.568  0.00  0.00    +0.000 C 
BRANCH  12  13
ATOM     13  C   UNL     1       5.897   4.258  17.277  0.00  0.00    +0.000 A 
ATOM     14  C   UNL     1       7.070   4.878  16.902  0.00  0.00    +0.000 A 
ATOM     15  C   UNL     1       7.198   4.681  15.506  0.00  0.00    +0.000 A 
ATOM     16  C   UNL     1       6.106   3.939  15.122  0.00  0.00    +0.000 A 
ATOM     17  O   UNL     1       5.315   3.667  16.194  0.00  0.00    +0.000 OA
ENDBRANCH  12  13
ENDBRANCH  10  12
ENDBRANCH   7  10
ENDBRANCH   4   7
BRANCH   6  18
ATOM     18  S   UNL     1       1.148  10.991  18.825  0.00  0.00    +0.000 S 
ATOM     19  O   UNL     1       2.259  11.345  17.963  0.00  0.00    +0.000 OA
ATOM     20  O   UNL     1      -0.209  11.096  18.337  0.00  0.00    +0.000 OA
BRANCH  18  21
ATOM     21  N   UNL     1       1.217  11.926  20.219  0.00  0.00    +0.000 NA
ATOM     22  H   UNL     1       2.162  12.109  20.555  0.00  0.00    +0.000 HD
BRANCH  21  23
ATOM     23  C   UNL     1       0.333  13.096  20.273  0.00  0.00    +0.000 C 
BRANCH  23  24
ATOM     24  C   UNL     1      -0.759  12.837  21.254  0.00  0.00    +0.000 A 
ATOM     25  C   UNL     1      -2.112  12.586  21.130  0.00  0.00    +0.000 A 
ATOM     26  C   UNL     1      -2.629  12.494  22.446  0.00  0.00    +0.000 A 
ATOM     27  C   UNL     1      -1.559  12.676  23.289  0.00  0.00    +0.000 A 
ATOM     28  O   UNL     1      -0.420  12.885  22.578  0.00  0.00    +0.000 OA
ENDBRANCH  23  24
ENDBRANCH  21  23
ENDBRANCH  18  21
ENDBRANCH   6  18
BRANCH   1  30
ATOM     29  C   UNL     1      -0.427   9.157  22.578  0.00  0.00    +0.000 C 
ATOM     30  O   UNL     1      -0.157   9.585  21.240  0.00  0.00    +0.000 OA
ENDBRANCH   1  30
BRANCH   3  31
ATOM     31  O   UNL     1       2.270   5.450  20.762  0.00  0.00    +0.000 OA
ATOM     32  C   UNL     1       1.227   4.480  20.605  0.00  0.00    +0.000 C 
ENDBRANCH   3  31
TORSDOF 10
ENDMDL
MODEL 8
REMARK VINA RESULT:      -6.5      1.733      2.371
REMARK  Name = 
REMARK  12 active torsions:
REMARK  status: ('A' for Active; 'I' for Inactive)
REMARK    1  A    between atoms: C_1  and  O_2
REMARK    2  A    between atoms: O_2  and  C_3
REMARK    3  A    between atoms: C_5  and  O_6
REMARK    4  A    between atoms: O_6  and  C_7
REMARK    5  A    between atoms: C_8  and  S_9
REMARK    6  A    between atoms: S_9  and  N_12
REMARK    7  A    between atoms: N_12  and  C_13
REMARK    8  A    between atoms: C_13  and  C_14
REMARK    9  A    between atoms: C_20  and  S_21
REMARK   10  A    between atoms: S_21  and  N_24
REMARK   11  A    between atoms: N_24  and  C_25
REMARK   12  A    between atoms: C_25  and  C_26
REMARK                            x       y       z     vdW  Elec       q    Type
REMARK                         _______ _______ _______ _____ _____    ______ ____
ROOT
ATOM      1  C   UNL     1       0.537   8.557  21.083  0.00  0.00    +0.000 A 
ATOM      2  C   UNL     1       0.993   7.271  21.407  0.00  0.00    +0.000 A 
ATOM      3  C   UNL     1       1.837   6.533  20.570  0.00  0.00    +0.000 A 
ATOM      4  C   UNL     1       2.344   7.155  19.430  0.00  0.00    +0.000 A 
ATOM      5  C   UNL     1       1.983   8.488  19.143  0.00  0.00    +0.000 A 
ATOM      6  C   UNL     1       1.072   9.186  19.962  0.00  0.00    +0.000 A 
ENDROOT
BRANCH   4   7
ATOM      7  S   UNL     1       3.294   6.264  18.207  0.00  0.00    +0.000 S 
ATOM      8  O   UNL     1       2.469   5.225  17.631  0.00  0.00    +0.000 OA
ATOM      9  O   UNL     1       3.898   7.270  17.360  0.00  0.00    +0.000 OA
BRANCH   7  10
ATOM     10  N   UNL     1       4.554   5.562  19.080  0.00  0.00    +0.000 NA
ATOM     11  H   UNL     1       4.432   5.644  20.090  0.00  0.00    +0.000 HD
BRANCH  10  12
ATOM     12  C   UNL     1       4.933   4.205  18.664  0.00  0.00    +0.000 C 
BRANCH  12  13
ATOM     13  C   UNL     1       5.728   4.290  17.407  0.00  0.00    +0.000 A 
ATOM     14  C   UNL     1       6.941   4.863  17.086  0.00  0.00    +0.000 A 
ATOM     15  C   UNL     1       7.122   4.662  15.696  0.00  0.00    +0.000 A 
ATOM     16  C   UNL     1       6.019   3.965  15.263  0.00  0.00    +0.000 A 
ATOM     17  O   UNL     1       5.171   3.724  16.297  0.00  0.00    +0.000 OA
ENDBRANCH  12  13
ENDBRANCH  10  12
ENDBRANCH   7  10
ENDBRANCH   4   7
BRANCH   6  18
ATOM     18  S   UNL     1       0.805  10.919  19.608  0.00  0.00    +0.000 S 
ATOM     19  O   UNL     1       1.254  11.720  20.731  0.00  0.00    +0.000 OA
ATOM     20  O   UNL     1       1.361  11.142  18.292  0.00  0.00    +0.000 OA
BRANCH  18  21
ATOM     21  N   UNL     1      -0.859  11.086  19.447  0.00  0.00    +0.000 NA
ATOM     22  H   UNL     1      -1.402  10.392  19.960  0.00  0.00    +0.000 HD
BRANCH  21  23
ATOM     23  C   UNL     1      -1.398  12.448  19.544  0.00  0.00    +0.000 C 
BRANCH  23  24
ATOM     24  C   UNL     1      -2.375  12.507  20.669  0.00  0.00    +0.000 A 
ATOM     25  C   UNL     1      -3.706  12.868  20.757  0.00  0.00    +0.000 A 
ATOM     26  C   UNL     1      -4.058  12.780  22.126  0.00  0.00    +0.000 A 
ATOM     27  C   UNL     1      -2.929  12.355  22.784  0.00  0.00    +0.000 A 
ATOM     28  O   UNL     1      -1.902  12.186  21.910  0.00  0.00    +0.000 OA
ENDBRANCH  23  24
ENDBRANCH  21  23
ENDBRANCH  18  21
ENDBRANCH   6  18
BRANCH   1  30
ATOM     29  C   UNL     1      -0.012   9.483  23.187  0.00  0.00    +0.000 C 
ATOM     30  O   UNL     1      -0.412   9.183  21.847  0.00  0.00    +0.000 OA
ENDBRANCH   1  30
BRANCH   3  31
ATOM     31  O   UNL     1       2.191   5.247  20.876  0.00  0.00    +0.000 OA
ATOM     32  C   UNL     1       1.186   4.257  20.626  0.00  0.00    +0.000 C 
ENDBRANCH   3  31
TORSDOF 10
ENDMDL
MODEL 9
REMARK VINA RESULT:      -6.4      1.827      8.600
REMARK  Name = 
REMARK  12 active torsions:
REMARK  status: ('A' for Active; 'I' for Inactive)
REMARK    1  A    between atoms: C_1  and  O_2
REMARK    2  A    between atoms: O_2  and  C_3
REMARK    3  A    between atoms: C_5  and  O_6
REMARK    4  A    between atoms: O_6  and  C_7
REMARK    5  A    between atoms: C_8  and  S_9
REMARK    6  A    between atoms: S_9  and  N_12
REMARK    7  A    between atoms: N_12  and  C_13
REMARK    8  A    between atoms: C_13  and  C_14
REMARK    9  A    between atoms: C_20  and  S_21
REMARK   10  A    between atoms: S_21  and  N_24
REMARK   11  A    between atoms: N_24  and  C_25
REMARK   12  A    between atoms: C_25  and  C_26
REMARK                            x       y       z     vdW  Elec       q    Type
REMARK                         _______ _______ _______ _____ _____    ______ ____
ROOT
ATOM      1  C   UNL     1       1.779   6.498  20.594  0.00  0.00    +0.000 A 
ATOM      2  C   UNL     1       0.817   7.161  21.371  0.00  0.00    +0.000 A 
ATOM      3  C   UNL     1       0.478   8.504  21.175  0.00  0.00    +0.000 A 
ATOM      4  C   UNL     1       1.030   9.171  20.082  0.00  0.00    +0.000 A 
ATOM      5  C   UNL     1       1.918   8.489  19.224  0.00  0.00    +0.000 A 
ATOM      6  C   UNL     1       2.301   7.158  19.485  0.00  0.00    +0.000 A 
ENDROOT
BRANCH   4   7
ATOM      7  S   UNL     1       0.802  10.924  19.827  0.00  0.00    +0.000 S 
ATOM      8  O   UNL     1       1.300  11.640  20.981  0.00  0.00    +0.000 OA
ATOM      9  O   UNL     1       1.329  11.208  18.509  0.00  0.00    +0.000 OA
BRANCH   7  10
ATOM     10  N   UNL     1      -0.869  11.122  19.722  0.00  0.00    +0.000 NA
ATOM     11  H   UNL     1      -1.385  10.451  20.290  0.00  0.00    +0.000 HD
BRANCH  10  12
ATOM     12  C   UNL     1      -1.355  12.498  19.888  0.00  0.00    +0.000 C 
BRANCH  12  13
ATOM     13  C   UNL     1      -2.311  12.537  21.030  0.00  0.00    +0.000 A 
ATOM     14  C   UNL     1      -3.608  12.987  21.169  0.00  0.00    +0.000 A 
ATOM     15  C   UNL     1      -3.946  12.812  22.533  0.00  0.00    +0.000 A 
ATOM     16  C   UNL     1      -2.844  12.251  23.133  0.00  0.00    +0.000 A 
ATOM     17  O   UNL     1      -1.849  12.069  22.225  0.00  0.00    +0.000 OA
ENDBRANCH  12  13
ENDBRANCH  10  12
ENDBRANCH   7  10
ENDBRANCH   4   7
BRANCH   6  18
ATOM     18  S   UNL     1       3.300   6.330  18.253  0.00  0.00    +0.000 S 
ATOM     19  O   UNL     1       2.524   5.277  17.624  0.00  0.00    +0.000 OA
ATOM     20  O   UNL     1       3.881   7.381  17.446  0.00  0.00    +0.000 OA
BRANCH  18  21
ATOM     21  N   UNL     1       4.571   5.638  19.106  0.00  0.00    +0.000 NA
ATOM     22  H   UNL     1       4.523   5.775  20.114  0.00  0.00    +0.000 HD
BRANCH  21  23
ATOM     23  C   UNL     1       4.970   4.282  18.711  0.00  0.00    +0.000 C 
BRANCH  23  24
ATOM     24  C   UNL     1       5.751   4.352  17.443  0.00  0.00    +0.000 A 
ATOM     25  C   UNL     1       6.925   4.985  17.080  0.00  0.00    +0.000 A 
ATOM     26  C   UNL     1       7.114   4.725  15.701  0.00  0.00    +0.000 A 
ATOM     27  C   UNL     1       6.057   3.937  15.313  0.00  0.00    +0.000 A 
ATOM     28  O   UNL     1       5.224   3.704  16.361  0.00  0.00    +0.000 OA
ENDBRANCH  23  24
ENDBRANCH  21  23
ENDBRANCH  18  21
ENDBRANCH   6  18
BRANCH   1  30
ATOM     29  C   UNL     1       1.248   4.196  20.659  0.00  0.00    +0.000 C 
ATOM     30  O   UNL     1       2.198   5.235  20.916  0.00  0.00    +0.000 OA
ENDBRANCH   1  30
BRANCH   3  31
ATOM     31  O   UNL     1      -0.400   9.143  22.008  0.00  0.00    +0.000 OA
ATOM     32  C   UNL     1       0.094   9.424  23.323  0.00  0.00    +0.000 C 
ENDBRANCH   3  31
TORSDOF 10
ENDMDL
