MODEL 1
REMARK VINA RESULT:      -7.9      0.000      0.000
REMARK  Name = 
REMARK  5 active torsions:
REMARK  status: ('A' for Active; 'I' for Inactive)
REMARK    1  A    between atoms: C_1  and  C_2
REMARK    2  A    between atoms: C_5  and  C_6
REMARK    3  A    between atoms: N_8  and  C_9
REMARK    4  A    between atoms: C_16  and  C_17
REMARK    5  A    between atoms: C_18  and  C_19
REMARK                            x       y       z     vdW  Elec       q    Type
REMARK                         _______ _______ _______ _____ _____    ______ ____
ROOT
ATOM      1  C   UNL     1       1.441  11.647  20.269  0.00  0.00    +0.000 C 
ATOM      2  C   UNL     1       0.186  11.525  19.453  0.00  0.00    +0.000 A 
ATOM      3  C   UNL     1      -0.844  12.467  19.624  0.00  0.00    +0.000 A 
ATOM      4  C   UNL     1      -2.048  12.344  18.929  0.00  0.00    +0.000 A 
ATOM      5  C   UNL     1      -2.251  11.292  18.026  0.00  0.00    +0.000 A 
ATOM      6  C   UNL     1      -1.220  10.363  17.820  0.00  0.00    +0.000 A 
ATOM      7  C   UNL     1      -0.016  10.470  18.544  0.00  0.00    +0.000 A 
ENDROOT
BRANCH   5   8
ATOM      8  C   UNL     1      -3.609  11.160  17.407  0.00  0.00    +0.000 C 
ATOM      9  O   UNL     1      -3.814  10.272  16.585  0.00  0.00    +0.000 OA
ATOM     10  N   UNL     1      -4.580  12.058  17.805  0.00  0.00    +0.000 N 
ATOM     11  H   UNL     1      -4.418  12.564  18.664  0.00  0.00    +0.000 HD
BRANCH  10  12
ATOM     12  C   UNL     1      -5.959  11.990  17.299  0.00  0.00    +0.000 C 
ATOM     13  C   UNL     1      -6.877  11.196  18.241  0.00  0.00    +0.000 C 
ATOM     14  C   UNL     1      -7.095  11.917  19.574  0.00  0.00    +0.000 C 
ATOM     15  C   UNL     1      -7.581  13.354  19.388  0.00  0.00    +0.000 C 
ATOM     16  C   UNL     1      -6.710  14.142  18.414  0.00  0.00    +0.000 C 
ATOM     17  C   UNL     1      -6.553  13.392  17.092  0.00  0.00    +0.000 C 
ENDBRANCH  10  12
ENDBRANCH   5   8
BRANCH   7  18
ATOM     18  C   UNL     1       0.991   9.455  18.377  0.00  0.00    +0.000 C 
ATOM     19  C   UNL     1       1.899   8.530  18.246  0.00  0.00    +0.000 C 
BRANCH  19  20
ATOM     20  C   UNL     1       2.957   7.449  18.093  0.00  0.00    +0.000 A 
ATOM     21  C   UNL     1       2.987   6.221  18.939  0.00  0.00    +0.000 A 
ATOM     22  N   UNL     1       3.866   5.263  18.861  0.00  0.00    +0.000 NA
ATOM     23  C   UNL     1       4.837   5.424  17.907  0.00  0.00    +0.000 A 
ATOM     24  C   UNL     1       5.903   4.635  17.535  0.00  0.00    +0.000 A 
ATOM     25  C   UNL     1       6.531   5.336  16.493  0.00  0.00    +0.000 A 
ATOM     26  N   UNL     1       5.928   6.490  16.208  0.00  0.00    +0.000 NA
ATOM     27  N   UNL     1       4.884   6.548  17.071  0.00  0.00    +0.000 N 
ATOM     28  C   UNL     1       3.933   7.551  17.182  0.00  0.00    +0.000 A 
ENDBRANCH  19  20
ENDBRANCH   7  18
TORSDOF 4
ENDMDL
MODEL 2
REMARK VINA RESULT:      -7.8      1.428      1.735
REMARK  Name = 
REMARK  5 active torsions:
REMARK  status: ('A' for Active; 'I' for Inactive)
REMARK    1  A    between atoms: C_1  and  C_2
REMARK    2  A    between atoms: C_5  and  C_6
REMARK    3  A    between atoms: N_8  and  C_9
REMARK    4  A    between atoms: C_16  and  C_17
REMARK    5  A    between atoms: C_18  and  C_19
REMARK                            x       y       z     vdW  Elec       q    Type
REMARK                         _______ _______ _______ _____ _____    ______ ____
ROOT
ATOM      1  C   UNL     1       1.547   9.235  21.981  0.00  0.00    +0.000 C 
ATOM      2  C   UNL     1       0.572   9.887  21.045  0.00  0.00    +0.000 A 
ATOM      3  C   UNL     1      -0.367  10.803  21.552  0.00  0.00    +0.000 A 
ATOM      4  C   UNL     1      -1.330  11.375  20.719  0.00  0.00    +0.000 A 
ATOM      5  C   UNL     1      -1.370  11.070  19.352  0.00  0.00    +0.000 A 
ATOM      6  C   UNL     1      -0.419  10.182  18.825  0.00  0.00    +0.000 A 
ATOM      7  C   UNL     1       0.534   9.581  19.672  0.00  0.00    +0.000 A 
ENDROOT
BRANCH   5   8
ATOM      8  C   UNL     1      -2.501  11.631  18.547  0.00  0.00    +0.000 C 
ATOM      9  O   UNL     1      -2.328  11.890  17.360  0.00  0.00    +0.000 OA
ATOM     10  N   UNL     1      -3.707  11.827  19.193  0.00  0.00    +0.000 N 
ATOM     11  H   UNL     1      -3.847  11.342  20.068  0.00  0.00    +0.000 HD
BRANCH  10  12
ATOM     12  C   UNL     1      -4.897  12.326  18.488  0.00  0.00    +0.000 C 
ATOM     13  C   UNL     1      -5.721  11.184  17.874  0.00  0.00    +0.000 C 
ATOM     14  C   UNL     1      -6.370  10.303  18.945  0.00  0.00    +0.000 C 
ATOM     15  C   UNL     1      -7.187  11.113  19.952  0.00  0.00    +0.000 C 
ATOM     16  C   UNL     1      -6.398  12.284  20.533  0.00  0.00    +0.000 C 
ATOM     17  C   UNL     1      -5.801  13.146  19.421  0.00  0.00    +0.000 C 
ENDBRANCH  10  12
ENDBRANCH   5   8
BRANCH   7  18
ATOM     18  C   UNL     1       1.442   8.610  19.121  0.00  0.00    +0.000 C 
ATOM     19  C   UNL     1       2.273   7.746  18.609  0.00  0.00    +0.000 C 
BRANCH  19  20
ATOM     20  C   UNL     1       3.242   6.740  18.012  0.00  0.00    +0.000 A 
ATOM     21  C   UNL     1       3.081   5.266  18.176  0.00  0.00    +0.000 A 
ATOM     22  N   UNL     1       3.877   4.354  17.693  0.00  0.00    +0.000 NA
ATOM     23  C   UNL     1       4.947   4.819  16.974  0.00  0.00    +0.000 A 
ATOM     24  C   UNL     1       5.971   4.169  16.322  0.00  0.00    +0.000 A 
ATOM     25  C   UNL     1       6.757   5.191  15.765  0.00  0.00    +0.000 A 
ATOM     26  N   UNL     1       6.288   6.409  16.034  0.00  0.00    +0.000 NA
ATOM     27  N   UNL     1       5.174   6.187  16.773  0.00  0.00    +0.000 N 
ATOM     28  C   UNL     1       4.308   7.132  17.302  0.00  0.00    +0.000 A 
ENDBRANCH  19  20
ENDBRANCH   7  18
TORSDOF 4
ENDMDL
MODEL 3
REMARK VINA RESULT:      -7.7      0.823      1.647
REMARK  Name = 
REMARK  5 active torsions:
REMARK  status: ('A' for Active; 'I' for Inactive)
REMARK    1  A    between atoms: C_1  and  C_2
REMARK    2  A    between atoms: C_5  and  C_6
REMARK    3  A    between atoms: N_8  and  C_9
REMARK    4  A    between atoms: C_16  and  C_17
REMARK    5  A    between atoms: C_18  and  C_19
REMARK                            x       y       z     vdW  Elec       q    Type
REMARK                         _______ _______ _______ _____ _____    ______ ____
ROOT
ATOM      1  C   UNL     1       1.574  11.956  19.667  0.00  0.00    +0.000 C 
ATOM      2  C   UNL     1       0.247  11.709  19.011  0.00  0.00    +0.000 A 
ATOM      3  C   UNL     1      -0.742  12.708  19.056  0.00  0.00    +0.000 A 
ATOM      4  C   UNL     1      -2.009  12.485  18.514  0.00  0.00    +0.000 A 
ATOM      5  C   UNL     1      -2.319  11.269  17.889  0.00  0.00    +0.000 A 
ATOM      6  C   UNL     1      -1.332  10.275  17.807  0.00  0.00    +0.000 A 
ATOM      7  C   UNL     1      -0.063  10.490  18.382  0.00  0.00    +0.000 A 
ENDROOT
BRANCH   5   8
ATOM      8  C   UNL     1      -3.731  11.061  17.436  0.00  0.00    +0.000 C 
ATOM      9  O   UNL     1      -3.947  10.681  16.289  0.00  0.00    +0.000 OA
ATOM     10  N   UNL     1      -4.736  11.306  18.351  0.00  0.00    +0.000 N 
ATOM     11  H   UNL     1      -4.475  11.342  19.327  0.00  0.00    +0.000 HD
BRANCH  10  12
ATOM     12  C   UNL     1      -6.154  11.087  18.029  0.00  0.00    +0.000 C 
ATOM     13  C   UNL     1      -6.882  10.310  19.137  0.00  0.00    +0.000 C 
ATOM     14  C   UNL     1      -7.003  11.127  20.427  0.00  0.00    +0.000 C 
ATOM     15  C   UNL     1      -7.632  12.501  20.191  0.00  0.00    +0.000 C 
ATOM     16  C   UNL     1      -6.954  13.264  19.056  0.00  0.00    +0.000 C 
ATOM     17  C   UNL     1      -6.889  12.414  17.788  0.00  0.00    +0.000 C 
ENDBRANCH  10  12
ENDBRANCH   5   8
BRANCH   7  18
ATOM     18  C   UNL     1       0.902   9.422  18.358  0.00  0.00    +0.000 C 
ATOM     19  C   UNL     1       1.772   8.452  18.317  0.00  0.00    +0.000 C 
BRANCH  19  20
ATOM     20  C   UNL     1       2.786   7.321  18.266  0.00  0.00    +0.000 A 
ATOM     21  C   UNL     1       3.945   7.315  17.327  0.00  0.00    +0.000 A 
ATOM     22  N   UNL     1       4.844   6.376  17.233  0.00  0.00    +0.000 NA
ATOM     23  C   UNL     1       4.687   5.315  18.086  0.00  0.00    +0.000 A 
ATOM     24  C   UNL     1       5.426   4.169  18.275  0.00  0.00    +0.000 A 
ATOM     25  C   UNL     1       4.762   3.470  19.295  0.00  0.00    +0.000 A 
ATOM     26  N   UNL     1       3.675   4.104  19.735  0.00  0.00    +0.000 NA
ATOM     27  N   UNL     1       3.626   5.240  18.998  0.00  0.00    +0.000 N 
ATOM     28  C   UNL     1       2.685   6.256  19.071  0.00  0.00    +0.000 A 
ENDBRANCH  19  20
ENDBRANCH   7  18
TORSDOF 4
ENDMDL
MODEL 4
REMARK VINA RESULT:      -7.6      9.292     10.920
REMARK  Name = 
REMARK  5 active torsions:
REMARK  status: ('A' for Active; 'I' for Inactive)
REMARK    1  A    between atoms: C_1  and  C_2
REMARK    2  A    between atoms: C_5  and  C_6
REMARK    3  A    between atoms: N_8  and  C_9
REMARK    4  A    between atoms: C_16  and  C_17
REMARK    5  A    between atoms: C_18  and  C_19
REMARK                            x       y       z     vdW  Elec       q    Type
REMARK                         _______ _______ _______ _____ _____    ______ ____
ROOT
ATOM      1  C   UNL     1      11.398  11.309  17.477  0.00  0.00    +0.000 C 
ATOM      2  C   UNL     1      10.832  11.996  18.686  0.00  0.00    +0.000 A 
ATOM      3  C   UNL     1      11.423  13.186  19.145  0.00  0.00    +0.000 A 
ATOM      4  C   UNL     1      10.963  13.812  20.304  0.00  0.00    +0.000 A 
ATOM      5  C   UNL     1       9.883  13.284  21.026  0.00  0.00    +0.000 A 
ATOM      6  C   UNL     1       9.262  12.115  20.561  0.00  0.00    +0.000 A 
ATOM      7  C   UNL     1       9.747  11.466  19.408  0.00  0.00    +0.000 A 
ENDROOT
BRANCH   5   8
ATOM      8  C   UNL     1       9.522  13.946  22.320  0.00  0.00    +0.000 C 
ATOM      9  O   UNL     1       9.936  15.076  22.556  0.00  0.00    +0.000 OA
ATOM     10  N   UNL     1       8.719  13.238  23.194  0.00  0.00    +0.000 N 
ATOM     11  H   UNL     1       8.204  12.454  22.818  0.00  0.00    +0.000 HD
BRANCH  10  12
ATOM     12  C   UNL     1       8.263  13.810  24.469  0.00  0.00    +0.000 C 
ATOM     13  C   UNL     1       6.866  14.437  24.350  0.00  0.00    +0.000 C 
ATOM     14  C   UNL     1       5.782  13.383  24.104  0.00  0.00    +0.000 C 
ATOM     15  C   UNL     1       5.813  12.260  25.141  0.00  0.00    +0.000 C 
ATOM     16  C   UNL     1       7.207  11.662  25.310  0.00  0.00    +0.000 C 
ATOM     17  C   UNL     1       8.241  12.754  25.584  0.00  0.00    +0.000 C 
ENDBRANCH  10  12
ENDBRANCH   5   8
BRANCH   7  18
ATOM     18  C   UNL     1       9.145  10.223  19.002  0.00  0.00    +0.000 C 
ATOM     19  C   UNL     1       8.617   9.087  18.644  0.00  0.00    +0.000 C 
BRANCH  19  20
ATOM     20  C   UNL     1       8.001   7.761  18.228  0.00  0.00    +0.000 A 
ATOM     21  C   UNL     1       8.193   6.501  19.003  0.00  0.00    +0.000 A 
ATOM     22  N   UNL     1       7.697   5.335  18.697  0.00  0.00    +0.000 NA
ATOM     23  C   UNL     1       6.934   5.294  17.559  0.00  0.00    +0.000 A 
ATOM     24  C   UNL     1       6.257   4.267  16.942  0.00  0.00    +0.000 A 
ATOM     25  C   UNL     1       5.657   4.849  15.814  0.00  0.00    +0.000 A 
ATOM     26  N   UNL     1       5.924   6.150  15.700  0.00  0.00    +0.000 NA
ATOM     27  N   UNL     1       6.705   6.430  16.772  0.00  0.00    +0.000 N 
ATOM     28  C   UNL     1       7.249   7.656  17.125  0.00  0.00    +0.000 A 
ENDBRANCH  19  20
ENDBRANCH   7  18
TORSDOF 4
ENDMDL
MODEL 5
REMARK VINA RESULT:      -7.5      0.732      1.439
REMARK  Name = 
REMARK  5 active torsions:
REMARK  status: ('A' for Active; 'I' for Inactive)
REMARK    1  A    between atoms: C_1  and  C_2
REMARK    2  A    between atoms: C_5  and  C_6
REMARK    3  A    between atoms: N_8  and  C_9
REMARK    4  A    between atoms: C_16  and  C_17
REMARK    5  A    between atoms: C_18  and  C_19
REMARK                            x       y       z     vdW  Elec       q    Type
REMARK                         _______ _______ _______ _____ _____    ______ ____
ROOT
ATOM      1  C   UNL     1       0.963  11.048  20.971  0.00  0.00    +0.000 C 
ATOM      2  C   UNL     1      -0.184  11.178  20.011  0.00  0.00    +0.000 A 
ATOM      3  C   UNL     1      -1.202  12.114  20.274  0.00  0.00    +0.000 A 
ATOM      4  C   UNL     1      -2.315  12.212  19.438  0.00  0.00    +0.000 A 
ATOM      5  C   UNL     1      -2.434  11.400  18.302  0.00  0.00    +0.000 A 
ATOM      6  C   UNL     1      -1.411  10.485  18.009  0.00  0.00    +0.000 A 
ATOM      7  C   UNL     1      -0.302  10.364  18.870  0.00  0.00    +0.000 A 
ENDROOT
BRANCH   5   8
ATOM      8  C   UNL     1      -3.709  11.482  17.519  0.00  0.00    +0.000 C 
ATOM      9  O   UNL     1      -3.819  10.845  16.476  0.00  0.00    +0.000 OA
ATOM     10  N   UNL     1      -4.716  12.281  18.025  0.00  0.00    +0.000 N 
ATOM     11  H   UNL     1      -4.655  12.540  19.000  0.00  0.00    +0.000 HD
BRANCH  10  12
ATOM     12  C   UNL     1      -6.025  12.396  17.366  0.00  0.00    +0.000 C 
ATOM     13  C   UNL     1      -7.105  11.573  18.085  0.00  0.00    +0.000 C 
ATOM     14  C   UNL     1      -7.430  12.139  19.470  0.00  0.00    +0.000 C 
ATOM     15  C   UNL     1      -7.786  13.625  19.426  0.00  0.00    +0.000 C 
ATOM     16  C   UNL     1      -6.749  14.449  18.668  0.00  0.00    +0.000 C 
ATOM     17  C   UNL     1      -6.487  13.858  17.283  0.00  0.00    +0.000 C 
ENDBRANCH  10  12
ENDBRANCH   5   8
BRANCH   7  18
ATOM     18  C   UNL     1       0.690   9.359  18.592  0.00  0.00    +0.000 C 
ATOM     19  C   UNL     1       1.585   8.452  18.320  0.00  0.00    +0.000 C 
BRANCH  19  20
ATOM     20  C   UNL     1       2.629   7.395  18.001  0.00  0.00    +0.000 A 
ATOM     21  C   UNL     1       3.947   7.720  17.381  0.00  0.00    +0.000 A 
ATOM     22  N   UNL     1       4.880   6.861  17.080  0.00  0.00    +0.000 NA
ATOM     23  C   UNL     1       4.600   5.552  17.372  0.00  0.00    +0.000 A 
ATOM     24  C   UNL     1       5.329   4.395  17.209  0.00  0.00    +0.000 A 
ATOM     25  C   UNL     1       4.506   3.371  17.703  0.00  0.00    +0.000 A 
ATOM     26  N   UNL     1       3.333   3.820  18.151  0.00  0.00    +0.000 NA
ATOM     27  N   UNL     1       3.386   5.160  17.954  0.00  0.00    +0.000 N 
ATOM     28  C   UNL     1       2.413   6.099  18.260  0.00  0.00    +0.000 A 
ENDBRANCH  19  20
ENDBRANCH   7  18
TORSDOF 4
ENDMDL
MODEL 6
REMARK VINA RESULT:      -7.4      4.220     10.478
REMARK  Name = 
REMARK  5 active torsions:
REMARK  status: ('A' for Active; 'I' for Inactive)
REMARK    1  A    between atoms: C_1  and  C_2
REMARK    2  A    between atoms: C_5  and  C_6
REMARK    3  A    between atoms: N_8  and  C_9
REMARK    4  A    between atoms: C_16  and  C_17
REMARK    5  A    between atoms: C_18  and  C_19
REMARK                            x       y       z     vdW  Elec       q    Type
REMARK                         _______ _______ _______ _____ _____    ______ ____
ROOT
ATOM      1  C   UNL     1       0.706  11.559  18.360  0.00  0.00    +0.000 C 
ATOM      2  C   UNL     1       1.137  10.228  18.903  0.00  0.00    +0.000 A 
ATOM      3  C   UNL     1       1.823   9.329  18.066  0.00  0.00    +0.000 A 
ATOM      4  C   UNL     1       2.178   8.058  18.521  0.00  0.00    +0.000 A 
ATOM      5  C   UNL     1       1.883   7.655  19.831  0.00  0.00    +0.000 A 
ATOM      6  C   UNL     1       1.229   8.553  20.688  0.00  0.00    +0.000 A 
ATOM      7  C   UNL     1       0.843   9.825  20.219  0.00  0.00    +0.000 A 
ENDROOT
BRANCH   5   8
ATOM      8  C   UNL     1       2.192   6.239  20.208  0.00  0.00    +0.000 C 
ATOM      9  O   UNL     1       1.624   5.733  21.171  0.00  0.00    +0.000 OA
ATOM     10  N   UNL     1       3.113   5.560  19.434  0.00  0.00    +0.000 N 
ATOM     11  H   UNL     1       3.319   5.939  18.520  0.00  0.00    +0.000 HD
BRANCH  10  12
ATOM     12  C   UNL     1       3.454   4.152  19.684  0.00  0.00    +0.000 C 
ATOM     13  C   UNL     1       2.216   3.243  19.633  0.00  0.00    +0.000 C 
ATOM     14  C   UNL     1       1.629   3.151  18.221  0.00  0.00    +0.000 C 
ATOM     15  C   UNL     1       2.673   2.745  17.180  0.00  0.00    +0.000 C 
ATOM     16  C   UNL     1       3.932   3.605  17.253  0.00  0.00    +0.000 C 
ATOM     17  C   UNL     1       4.491   3.636  18.675  0.00  0.00    +0.000 C 
ENDBRANCH  10  12
ENDBRANCH   5   8
BRANCH   7  18
ATOM     18  C   UNL     1       0.098  10.693  21.092  0.00  0.00    +0.000 C 
ATOM     19  C   UNL     1      -0.591  11.482  21.868  0.00  0.00    +0.000 C 
BRANCH  19  20
ATOM     20  C   UNL     1      -1.395  12.402  22.771  0.00  0.00    +0.000 A 
ATOM     21  C   UNL     1      -2.768  12.069  23.249  0.00  0.00    +0.000 A 
ATOM     22  N   UNL     1      -3.509  12.815  24.019  0.00  0.00    +0.000 NA
ATOM     23  C   UNL     1      -2.950  14.004  24.411  0.00  0.00    +0.000 A 
ATOM     24  C   UNL     1      -3.418  15.022  25.211  0.00  0.00    +0.000 A 
ATOM     25  C   UNL     1      -2.384  15.970  25.240  0.00  0.00    +0.000 A 
ATOM     26  N   UNL     1      -1.326  15.605  24.515  0.00  0.00    +0.000 NA
ATOM     27  N   UNL     1      -1.667  14.395  24.006  0.00  0.00    +0.000 N 
ATOM     28  C   UNL     1      -0.905  13.579  23.184  0.00  0.00    +0.000 A 
ENDBRANCH  19  20
ENDBRANCH   7  18
TORSDOF 4
ENDMDL
MODEL 7
REMARK VINA RESULT:      -7.4      3.670      5.599
REMARK  Name = 
REMARK  5 active torsions:
REMARK  status: ('A' for Active; 'I' for Inactive)
REMARK    1  A    between atoms: C_1  and  C_2
REMARK    2  A    between atoms: C_5  and  C_6
REMARK    3  A    between atoms: N_8  and  C_9
REMARK    4  A    between atoms: C_16  and  C_17
REMARK    5  A    between atoms: C_18  and  C_19
REMARK                            x       y       z     vdW  Elec       q    Type
REMARK                         _______ _______ _______ _____ _____    ______ ____
ROOT
ATOM      1  C   UNL     1      -1.550   9.666  17.538  0.00  0.00    +0.000 C 
ATOM      2  C   UNL     1      -0.821  10.832  18.140  0.00  0.00    +0.000 A 
ATOM      3  C   UNL     1      -1.501  12.049  18.330  0.00  0.00    +0.000 A 
ATOM      4  C   UNL     1      -0.834  13.170  18.825  0.00  0.00    +0.000 A 
ATOM      5  C   UNL     1       0.523  13.106  19.169  0.00  0.00    +0.000 A 
ATOM      6  C   UNL     1       1.207  11.890  19.016  0.00  0.00    +0.000 A 
ATOM      7  C   UNL     1       0.541  10.766  18.487  0.00  0.00    +0.000 A 
ENDROOT
BRANCH   5   8
ATOM      8  C   UNL     1       1.197  14.378  19.582  0.00  0.00    +0.000 C 
ATOM      9  O   UNL     1       2.022  14.357  20.490  0.00  0.00    +0.000 OA
ATOM     10  N   UNL     1       0.852  15.531  18.903  0.00  0.00    +0.000 N 
ATOM     11  H   UNL     1       0.391  15.422  18.011  0.00  0.00    +0.000 HD
BRANCH  10  12
ATOM     12  C   UNL     1       1.487  16.825  19.192  0.00  0.00    +0.000 C 
ATOM     13  C   UNL     1       2.709  17.079  18.297  0.00  0.00    +0.000 C 
ATOM     14  C   UNL     1       2.316  17.274  16.830  0.00  0.00    +0.000 C 
ATOM     15  C   UNL     1       1.248  18.352  16.650  0.00  0.00    +0.000 C 
ATOM     16  C   UNL     1       0.049  18.144  17.571  0.00  0.00    +0.000 C 
ATOM     17  C   UNL     1       0.497  17.988  19.024  0.00  0.00    +0.000 C 
ENDBRANCH  10  12
ENDBRANCH   5   8
BRANCH   7  18
ATOM     18  C   UNL     1       1.287   9.556  18.262  0.00  0.00    +0.000 C 
ATOM     19  C   UNL     1       1.955   8.452  18.075  0.00  0.00    +0.000 C 
BRANCH  19  20
ATOM     20  C   UNL     1       2.731   7.164  17.858  0.00  0.00    +0.000 A 
ATOM     21  C   UNL     1       4.129   7.140  17.337  0.00  0.00    +0.000 A 
ATOM     22  N   UNL     1       4.846   6.072  17.127  0.00  0.00    +0.000 NA
ATOM     23  C   UNL     1       4.236   4.880  17.420  0.00  0.00    +0.000 A 
ATOM     24  C   UNL     1       4.673   3.577  17.336  0.00  0.00    +0.000 A 
ATOM     25  C   UNL     1       3.594   2.799  17.783  0.00  0.00    +0.000 A 
ATOM     26  N   UNL     1       2.536   3.532  18.129  0.00  0.00    +0.000 NA
ATOM     27  N   UNL     1       2.926   4.812  17.912  0.00  0.00    +0.000 N 
ATOM     28  C   UNL     1       2.190   5.968  18.123  0.00  0.00    +0.000 A 
ENDBRANCH  19  20
ENDBRANCH   7  18
TORSDOF 4
ENDMDL
MODEL 8
REMARK VINA RESULT:      -7.4      3.551      5.330
REMARK  Name = 
REMARK  5 active torsions:
REMARK  status: ('A' for Active; 'I' for Inactive)
REMARK    1  A    between atoms: C_1  and  C_2
REMARK    2  A    between atoms: C_5  and  C_6
REMARK    3  A    between atoms: N_8  and  C_9
REMARK    4  A    between atoms: C_16  and  C_17
REMARK    5  A    between atoms: C_18  and  C_19
REMARK                            x       y       z     vdW  Elec       q    Type
REMARK                         _______ _______ _______ _____ _____    ______ ____
ROOT
ATOM      1  C   UNL     1      -1.502   9.629  17.531  0.00  0.00    +0.000 C 
ATOM      2  C   UNL     1      -0.824  10.815  18.155  0.00  0.00    +0.000 A 
ATOM      3  C   UNL     1      -1.554  11.999  18.363  0.00  0.00    +0.000 A 
ATOM      4  C   UNL     1      -0.936  13.139  18.878  0.00  0.00    +0.000 A 
ATOM      5  C   UNL     1       0.422  13.125  19.226  0.00  0.00    +0.000 A 
ATOM      6  C   UNL     1       1.156  11.941  19.055  0.00  0.00    +0.000 A 
ATOM      7  C   UNL     1       0.539  10.799  18.505  0.00  0.00    +0.000 A 
ENDROOT
BRANCH   5   8
ATOM      8  C   UNL     1       1.041  14.417  19.663  0.00  0.00    +0.000 C 
ATOM      9  O   UNL     1       1.834  14.420  20.599  0.00  0.00    +0.000 OA
ATOM     10  N   UNL     1       0.685  15.559  18.972  0.00  0.00    +0.000 N 
ATOM     11  H   UNL     1       0.258  15.437  18.064  0.00  0.00    +0.000 HD
BRANCH  10  12
ATOM     12  C   UNL     1       1.268  16.872  19.284  0.00  0.00    +0.000 C 
ATOM     13  C   UNL     1       2.547  17.139  18.476  0.00  0.00    +0.000 C 
ATOM     14  C   UNL     1       2.259  17.300  16.981  0.00  0.00    +0.000 C 
ATOM     15  C   UNL     1       1.184  18.352  16.703  0.00  0.00    +0.000 C 
ATOM     16  C   UNL     1      -0.074  18.132  17.538  0.00  0.00    +0.000 C 
ATOM     17  C   UNL     1       0.269  18.009  19.023  0.00  0.00    +0.000 C 
ENDBRANCH  10  12
ENDBRANCH   5   8
BRANCH   7  18
ATOM     18  C   UNL     1       1.335   9.626  18.261  0.00  0.00    +0.000 C 
ATOM     19  C   UNL     1       2.068   8.573  18.027  0.00  0.00    +0.000 C 
BRANCH  19  20
ATOM     20  C   UNL     1       2.923   7.348  17.752  0.00  0.00    +0.000 A 
ATOM     21  C   UNL     1       2.515   5.970  18.152  0.00  0.00    +0.000 A 
ATOM     22  N   UNL     1       3.203   4.882  17.949  0.00  0.00    +0.000 NA
ATOM     23  C   UNL     1       4.403   5.049  17.308  0.00  0.00    +0.000 A 
ATOM     24  C   UNL     1       5.374   4.151  16.923  0.00  0.00    +0.000 A 
ATOM     25  C   UNL     1       6.366   4.928  16.304  0.00  0.00    +0.000 A 
ATOM     26  N   UNL     1       6.070   6.228  16.288  0.00  0.00    +0.000 NA
ATOM     27  N   UNL     1       4.863   6.308  16.899  0.00  0.00    +0.000 N 
ATOM     28  C   UNL     1       4.107   7.446  17.132  0.00  0.00    +0.000 A 
ENDBRANCH  19  20
ENDBRANCH   7  18
TORSDOF 4
ENDMDL
MODEL 9
REMARK VINA RESULT:      -7.4      3.777      4.684
REMARK  Name = 
REMARK  5 active torsions:
REMARK  status: ('A' for Active; 'I' for Inactive)
REMARK    1  A    between atoms: C_1  and  C_2
REMARK    2  A    between atoms: C_5  and  C_6
REMARK    3  A    between atoms: N_8  and  C_9
REMARK    4  A    between atoms: C_16  and  C_17
REMARK    5  A    between atoms: C_18  and  C_19
REMARK                            x       y       z     vdW  Elec       q    Type
REMARK                         _______ _______ _______ _____ _____    ______ ____
ROOT
ATOM      1  C   UNL     1       0.793   7.814  21.334  0.00  0.00    +0.000 C 
ATOM      2  C   UNL     1       0.666   9.153  20.667  0.00  0.00    +0.000 A 
ATOM      3  C   UNL     1      -0.127  10.149  21.264  0.00  0.00    +0.000 A 
ATOM      4  C   UNL     1      -0.319  11.381  20.637  0.00  0.00    +0.000 A 
ATOM      5  C   UNL     1       0.293  11.665  19.408  0.00  0.00    +0.000 A 
ATOM      6  C   UNL     1       1.113  10.693  18.816  0.00  0.00    +0.000 A 
ATOM      7  C   UNL     1       1.282   9.437  19.435  0.00  0.00    +0.000 A 
ENDROOT
BRANCH   5   8
ATOM      8  C   UNL     1      -0.053  12.961  18.742  0.00  0.00    +0.000 C 
ATOM      9  O   UNL     1      -0.883  12.973  17.838  0.00  0.00    +0.000 OA
ATOM     10  N   UNL     1       0.587  14.099  19.193  0.00  0.00    +0.000 N 
ATOM     11  H   UNL     1       1.032  14.052  20.099  0.00  0.00    +0.000 HD
BRANCH  10  12
ATOM     12  C   UNL     1       0.288  15.430  18.645  0.00  0.00    +0.000 C 
ATOM     13  C   UNL     1      -0.808  16.148  19.447  0.00  0.00    +0.000 C 
ATOM     14  C   UNL     1      -0.340  16.517  20.858  0.00  0.00    +0.000 C 
ATOM     15  C   UNL     1       0.968  17.309  20.851  0.00  0.00    +0.000 C 
ATOM     16  C   UNL     1       2.052  16.635  20.014  0.00  0.00    +0.000 C 
ATOM     17  C   UNL     1       1.540  16.319  18.609  0.00  0.00    +0.000 C 
ENDBRANCH  10  12
ENDBRANCH   5   8
BRANCH   7  18
ATOM     18  C   UNL     1       2.060   8.429  18.764  0.00  0.00    +0.000 C 
ATOM     19  C   UNL     1       2.777   7.515  18.174  0.00  0.00    +0.000 C 
BRANCH  19  20
ATOM     20  C   UNL     1       3.615   6.450  17.486  0.00  0.00    +0.000 A 
ATOM     21  C   UNL     1       3.337   4.990  17.620  0.00  0.00    +0.000 A 
ATOM     22  N   UNL     1       4.018   4.030  17.061  0.00  0.00    +0.000 NA
ATOM     23  C   UNL     1       5.076   4.426  16.285  0.00  0.00    +0.000 A 
ATOM     24  C   UNL     1       5.995   3.713  15.549  0.00  0.00    +0.000 A 
ATOM     25  C   UNL     1       6.830   4.681  14.969  0.00  0.00    +0.000 A 
ATOM     26  N   UNL     1       6.488   5.926  15.302  0.00  0.00    +0.000 NA
ATOM     27  N   UNL     1       5.408   5.775  16.107  0.00  0.00    +0.000 N 
ATOM     28  C   UNL     1       4.663   6.773  16.718  0.00  0.00    +0.000 A 
ENDBRANCH  19  20
ENDBRANCH   7  18
TORSDOF 4
ENDMDL
