MODEL 1
REMARK VINA RESULT:      -7.7      0.000      0.000
REMARK  Name = 
REMARK  5 active torsions:
REMARK  status: ('A' for Active; 'I' for Inactive)
REMARK    1  A    between atoms: C_1  and  C_2
REMARK    2  A    between atoms: N_4  and  C_5
REMARK    3  A    between atoms: C_8  and  S_9
REMARK    4  A    between atoms: S_9  and  C_12
REMARK    5  A    between atoms: C_20  and  C_21
REMARK                            x       y       z     vdW  Elec       q    Type
REMARK                         _______ _______ _______ _____ _____    ______ ____
ROOT
ATOM      1  C   UNL     1      -2.756  12.413  19.882  0.00  0.00    +0.000 A 
ATOM      2  S   UNL     1      -3.330  12.996  21.386  0.00  0.00    +0.000 S 
ATOM      3  C   UNL     1      -4.932  12.605  21.024  0.00  0.00    +0.000 A 
ATOM      4  N   UNL     1      -5.914  12.915  21.897  0.00  0.00    +0.000 NA
ATOM      5  C   UNL     1      -7.146  12.553  21.498  0.00  0.00    +0.000 A 
ATOM      6  C   UNL     1      -7.438  11.893  20.319  0.00  0.00    +0.000 A 
ATOM      7  C   UNL     1      -6.388  11.574  19.460  0.00  0.00    +0.000 A 
ATOM      8  C   UNL     1      -5.069  11.964  19.798  0.00  0.00    +0.000 A 
ATOM      9  C   UNL     1      -3.783  11.844  19.120  0.00  0.00    +0.000 A 
ENDROOT
BRANCH   9  10
ATOM     10  C   UNL     1      -3.566  11.257  17.784  0.00  0.00    +0.000 A 
ATOM     11  C   UNL     1      -2.660  10.197  17.613  0.00  0.00    +0.000 A 
ATOM     12  C   UNL     1      -2.385   9.678  16.341  0.00  0.00    +0.000 A 
ATOM     13  C   UNL     1      -3.063  10.168  15.230  0.00  0.00    +0.000 A 
ATOM     14 CL   UNL     1      -2.740   9.523  13.670  0.00  0.00    +0.000 Cl
ATOM     15  C   UNL     1      -3.989  11.191  15.379  0.00  0.00    +0.000 A 
ATOM     16  C   UNL     1      -4.205  11.755  16.641  0.00  0.00    +0.000 A 
ENDBRANCH   9  10
BRANCH   1  17
ATOM     17  S   UNL     1      -1.007  12.667  19.600  0.00  0.00    +0.000 S 
ATOM     18  O   UNL     1      -0.591  13.585  20.640  0.00  0.00    +0.000 OA
ATOM     19  O   UNL     1      -0.898  13.019  18.197  0.00  0.00    +0.000 OA
BRANCH  17  23
ATOM     20  C   UNL     1       1.306   8.760  20.119  0.00  0.00    +0.000 A 
ATOM     21  C   UNL     1       1.405   9.498  18.934  0.00  0.00    +0.000 A 
ATOM     22  C   UNL     1       0.699  10.689  18.767  0.00  0.00    +0.000 A 
ATOM     23  C   UNL     1      -0.099  11.158  19.808  0.00  0.00    +0.000 A 
ATOM     24  C   UNL     1      -0.232  10.422  20.989  0.00  0.00    +0.000 A 
ATOM     25  C   UNL     1       0.467   9.221  21.138  0.00  0.00    +0.000 A 
BRANCH  20  29
ATOM     26  C   UNL     1       3.034   5.422  19.906  0.00  0.00    +0.000 C 
ATOM     27  C   UNL     1       2.472   6.699  19.346  0.00  0.00    +0.000 C 
ATOM     28  O   UNL     1       2.465   6.902  18.136  0.00  0.00    +0.000 OA
ATOM     29  N   UNL     1       1.993   7.547  20.331  0.00  0.00    +0.000 N 
ATOM     30  H   UNL     1       2.217   7.314  21.287  0.00  0.00    +0.000 HD
ENDBRANCH  20  29
ENDBRANCH  17  23
ENDBRANCH   1  17
TORSDOF 4
ENDMDL
MODEL 2
REMARK VINA RESULT:      -7.7      5.806     11.071
REMARK  Name = 
REMARK  5 active torsions:
REMARK  status: ('A' for Active; 'I' for Inactive)
REMARK    1  A    between atoms: C_1  and  C_2
REMARK    2  A    between atoms: N_4  and  C_5
REMARK    3  A    between atoms: C_8  and  S_9
REMARK    4  A    between atoms: S_9  and  C_12
REMARK    5  A    between atoms: C_20  and  C_21
REMARK                            x       y       z     vdW  Elec       q    Type
REMARK                         _______ _______ _______ _____ _____    ______ ____
ROOT
ATOM      1  C   UNL     1       5.100   4.858  17.258  0.00  0.00    +0.000 A 
ATOM      2  S   UNL     1       4.463   3.665  16.208  0.00  0.00    +0.000 S 
ATOM      3  C   UNL     1       5.536   4.062  14.967  0.00  0.00    +0.000 A 
ATOM      4  N   UNL     1       5.452   3.430  13.777  0.00  0.00    +0.000 NA
ATOM      5  C   UNL     1       6.360   3.831  12.870  0.00  0.00    +0.000 A 
ATOM      6  C   UNL     1       7.337   4.784  13.091  0.00  0.00    +0.000 A 
ATOM      7  C   UNL     1       7.398   5.393  14.342  0.00  0.00    +0.000 A 
ATOM      8  C   UNL     1       6.444   5.049  15.331  0.00  0.00    +0.000 A 
ATOM      9  C   UNL     1       6.193   5.520  16.689  0.00  0.00    +0.000 A 
ENDROOT
BRANCH   9  10
ATOM     10  C   UNL     1       6.938   6.590  17.380  0.00  0.00    +0.000 A 
ATOM     11  C   UNL     1       6.819   7.925  16.958  0.00  0.00    +0.000 A 
ATOM     12  C   UNL     1       7.576   8.943  17.552  0.00  0.00    +0.000 A 
ATOM     13  C   UNL     1       8.415   8.649  18.622  0.00  0.00    +0.000 A 
ATOM     14 CL   UNL     1       9.335   9.897  19.364  0.00  0.00    +0.000 Cl
ATOM     15  C   UNL     1       8.525   7.343  19.079  0.00  0.00    +0.000 A 
ATOM     16  C   UNL     1       7.821   6.319  18.434  0.00  0.00    +0.000 A 
ENDBRANCH   9  10
BRANCH   1  17
ATOM     17  S   UNL     1       4.239   5.016  18.820  0.00  0.00    +0.000 S 
ATOM     18  O   UNL     1       5.285   5.161  19.810  0.00  0.00    +0.000 OA
ATOM     19  O   UNL     1       3.316   3.897  18.857  0.00  0.00    +0.000 OA
BRANCH  17  23
ATOM     20  C   UNL     1       1.704   8.818  18.924  0.00  0.00    +0.000 A 
ATOM     21  C   UNL     1       2.485   8.509  17.804  0.00  0.00    +0.000 A 
ATOM     22  C   UNL     1       3.264   7.352  17.768  0.00  0.00    +0.000 A 
ATOM     23  C   UNL     1       3.245   6.484  18.856  0.00  0.00    +0.000 A 
ATOM     24  C   UNL     1       2.491   6.788  19.994  0.00  0.00    +0.000 A 
ATOM     25  C   UNL     1       1.729   7.959  20.027  0.00  0.00    +0.000 A 
BRANCH  20  29
ATOM     26  C   UNL     1      -0.754  11.636  18.498  0.00  0.00    +0.000 C 
ATOM     27  C   UNL     1      -0.218  10.253  18.254  0.00  0.00    +0.000 C 
ATOM     28  O   UNL     1      -0.765   9.502  17.453  0.00  0.00    +0.000 OA
ATOM     29  N   UNL     1       0.909   9.978  19.012  0.00  0.00    +0.000 N 
ATOM     30  H   UNL     1       1.142  10.634  19.743  0.00  0.00    +0.000 HD
ENDBRANCH  20  29
ENDBRANCH  17  23
ENDBRANCH   1  17
TORSDOF 4
ENDMDL
MODEL 3
REMARK VINA RESULT:      -7.6      3.431      4.990
REMARK  Name = 
REMARK  5 active torsions:
REMARK  status: ('A' for Active; 'I' for Inactive)
REMARK    1  A    between atoms: C_1  and  C_2
REMARK    2  A    between atoms: N_4  and  C_5
REMARK    3  A    between atoms: C_8  and  S_9
REMARK    4  A    between atoms: S_9  and  C_12
REMARK    5  A    between atoms: C_20  and  C_21
REMARK                            x       y       z     vdW  Elec       q    Type
REMARK                         _______ _______ _______ _____ _____    ______ ____
ROOT
ATOM      1  C   UNL     1      -0.719  11.161  19.381  0.00  0.00    +0.000 A 
ATOM      2  S   UNL     1      -1.140  10.346  17.935  0.00  0.00    +0.000 S 
ATOM      3  C   UNL     1      -2.746  10.861  18.009  0.00  0.00    +0.000 A 
ATOM      4  N   UNL     1      -3.631  10.443  17.080  0.00  0.00    +0.000 NA
ATOM      5  C   UNL     1      -4.877  10.922  17.245  0.00  0.00    +0.000 A 
ATOM      6  C   UNL     1      -5.268  11.791  18.245  0.00  0.00    +0.000 A 
ATOM      7  C   UNL     1      -4.314  12.212  19.170  0.00  0.00    +0.000 A 
ATOM      8  C   UNL     1      -2.991  11.713  19.080  0.00  0.00    +0.000 A 
ATOM      9  C   UNL     1      -1.793  11.898  19.892  0.00  0.00    +0.000 A 
ENDROOT
BRANCH   9  10
ATOM     10  C   UNL     1      -1.705  12.702  21.125  0.00  0.00    +0.000 A 
ATOM     11  C   UNL     1      -1.020  13.928  21.127  0.00  0.00    +0.000 A 
ATOM     12  C   UNL     1      -0.861  14.669  22.305  0.00  0.00    +0.000 A 
ATOM     13  C   UNL     1      -1.444  14.224  23.487  0.00  0.00    +0.000 A 
ATOM     14 CL   UNL     1      -1.264  15.136  24.933  0.00  0.00    +0.000 Cl
ATOM     15  C   UNL     1      -2.155  13.032  23.504  0.00  0.00    +0.000 A 
ATOM     16  C   UNL     1      -2.248  12.261  22.340  0.00  0.00    +0.000 A 
ENDBRANCH   9  10
BRANCH   1  17
ATOM     17  S   UNL     1       0.962  10.887  19.931  0.00  0.00    +0.000 S 
ATOM     18  O   UNL     1       0.889  10.903  21.377  0.00  0.00    +0.000 OA
ATOM     19  O   UNL     1       1.759  11.859  19.206  0.00  0.00    +0.000 OA
BRANCH  17  23
ATOM     20  C   UNL     1       2.500   6.777  18.655  0.00  0.00    +0.000 A 
ATOM     21  C   UNL     1       2.001   6.985  19.947  0.00  0.00    +0.000 A 
ATOM     22  C   UNL     1       1.534   8.238  20.344  0.00  0.00    +0.000 A 
ATOM     23  C   UNL     1       1.547   9.289  19.431  0.00  0.00    +0.000 A 
ATOM     24  C   UNL     1       2.064   9.108  18.144  0.00  0.00    +0.000 A 
ATOM     25  C   UNL     1       2.547   7.853  17.763  0.00  0.00    +0.000 A 
BRANCH  20  29
ATOM     26  C   UNL     1       3.046   3.258  17.434  0.00  0.00    +0.000 C 
ATOM     27  C   UNL     1       2.235   4.501  17.680  0.00  0.00    +0.000 C 
ATOM     28  O   UNL     1       1.037   4.527  17.419  0.00  0.00    +0.000 OA
ATOM     29  N   UNL     1       2.991   5.533  18.211  0.00  0.00    +0.000 N 
ATOM     30  H   UNL     1       3.994   5.413  18.215  0.00  0.00    +0.000 HD
ENDBRANCH  20  29
ENDBRANCH  17  23
ENDBRANCH   1  17
TORSDOF 4
ENDMDL
MODEL 4
REMARK VINA RESULT:      -7.6      6.454      9.669
REMARK  Name = 
REMARK  5 active torsions:
REMARK  status: ('A' for Active; 'I' for Inactive)
REMARK    1  A    between atoms: C_1  and  C_2
REMARK    2  A    between atoms: N_4  and  C_5
REMARK    3  A    between atoms: C_8  and  S_9
REMARK    4  A    between atoms: S_9  and  C_12
REMARK    5  A    between atoms: C_20  and  C_21
REMARK                            x       y       z     vdW  Elec       q    Type
REMARK                         _______ _______ _______ _____ _____    ______ ____
ROOT
ATOM      1  C   UNL     1       4.333   5.318  18.728  0.00  0.00    +0.000 A 
ATOM      2  S   UNL     1       4.801   3.717  19.116  0.00  0.00    +0.000 S 
ATOM      3  C   UNL     1       3.463   3.476  20.116  0.00  0.00    +0.000 A 
ATOM      4  N   UNL     1       3.327   2.315  20.791  0.00  0.00    +0.000 NA
ATOM      5  C   UNL     1       2.221   2.241  21.553  0.00  0.00    +0.000 A 
ATOM      6  C   UNL     1       1.258   3.227  21.653  0.00  0.00    +0.000 A 
ATOM      7  C   UNL     1       1.431   4.401  20.921  0.00  0.00    +0.000 A 
ATOM      8  C   UNL     1       2.595   4.562  20.130  0.00  0.00    +0.000 A 
ATOM      9  C   UNL     1       3.104   5.653  19.306  0.00  0.00    +0.000 A 
ENDROOT
BRANCH   9  10
ATOM     10  C   UNL     1       2.461   6.969  19.129  0.00  0.00    +0.000 A 
ATOM     11  C   UNL     1       2.035   7.708  20.245  0.00  0.00    +0.000 A 
ATOM     12  C   UNL     1       1.354   8.923  20.094  0.00  0.00    +0.000 A 
ATOM     13  C   UNL     1       1.149   9.449  18.823  0.00  0.00    +0.000 A 
ATOM     14 CL   UNL     1       0.328  10.947  18.633  0.00  0.00    +0.000 Cl
ATOM     15  C   UNL     1       1.591   8.754  17.705  0.00  0.00    +0.000 A 
ATOM     16  C   UNL     1       2.204   7.506  17.860  0.00  0.00    +0.000 A 
ENDBRANCH   9  10
BRANCH   1  17
ATOM     17  S   UNL     1       5.499   6.211  17.705  0.00  0.00    +0.000 S 
ATOM     18  O   UNL     1       6.712   6.278  18.493  0.00  0.00    +0.000 OA
ATOM     19  O   UNL     1       4.799   7.414  17.296  0.00  0.00    +0.000 OA
BRANCH  17  23
ATOM     20  C   UNL     1       6.447   3.875  13.893  0.00  0.00    +0.000 A 
ATOM     21  C   UNL     1       5.232   3.689  14.562  0.00  0.00    +0.000 A 
ATOM     22  C   UNL     1       4.938   4.396  15.729  0.00  0.00    +0.000 A 
ATOM     23  C   UNL     1       5.863   5.315  16.218  0.00  0.00    +0.000 A 
ATOM     24  C   UNL     1       7.093   5.496  15.579  0.00  0.00    +0.000 A 
ATOM     25  C   UNL     1       7.384   4.769  14.421  0.00  0.00    +0.000 A 
BRANCH  20  29
ATOM     26  C   UNL     1       6.591   1.891  10.697  0.00  0.00    +0.000 C 
ATOM     27  C   UNL     1       5.911   2.713  11.756  0.00  0.00    +0.000 C 
ATOM     28  O   UNL     1       4.700   2.908  11.715  0.00  0.00    +0.000 OA
ATOM     29  N   UNL     1       6.793   3.178  12.718  0.00  0.00    +0.000 N 
ATOM     30  H   UNL     1       7.779   3.073  12.526  0.00  0.00    +0.000 HD
ENDBRANCH  20  29
ENDBRANCH  17  23
ENDBRANCH   1  17
TORSDOF 4
ENDMDL
MODEL 5
REMARK VINA RESULT:      -7.5      6.134     11.474
REMARK  Name = 
REMARK  5 active torsions:
REMARK  status: ('A' for Active; 'I' for Inactive)
REMARK    1  A    between atoms: C_1  and  C_2
REMARK    2  A    between atoms: N_4  and  C_5
REMARK    3  A    between atoms: C_8  and  S_9
REMARK    4  A    between atoms: S_9  and  C_12
REMARK    5  A    between atoms: C_20  and  C_21
REMARK                            x       y       z     vdW  Elec       q    Type
REMARK                         _______ _______ _______ _____ _____    ______ ____
ROOT
ATOM      1  C   UNL     1       5.459   4.322  16.707  0.00  0.00    +0.000 A 
ATOM      2  S   UNL     1       4.967   3.206  15.504  0.00  0.00    +0.000 S 
ATOM      3  C   UNL     1       5.986   3.880  14.340  0.00  0.00    +0.000 A 
ATOM      4  N   UNL     1       5.978   3.400  13.078  0.00  0.00    +0.000 NA
ATOM      5  C   UNL     1       6.833   4.017  12.243  0.00  0.00    +0.000 A 
ATOM      6  C   UNL     1       7.690   5.040  12.598  0.00  0.00    +0.000 A 
ATOM      7  C   UNL     1       7.679   5.488  13.918  0.00  0.00    +0.000 A 
ATOM      8  C   UNL     1       6.772   4.912  14.840  0.00  0.00    +0.000 A 
ATOM      9  C   UNL     1       6.467   5.173  16.242  0.00  0.00    +0.000 A 
ENDROOT
BRANCH   9  10
ATOM     10  C   UNL     1       7.080   6.226  17.074  0.00  0.00    +0.000 A 
ATOM     11  C   UNL     1       6.992   7.575  16.692  0.00  0.00    +0.000 A 
ATOM     12  C   UNL     1       7.633   8.580  17.429  0.00  0.00    +0.000 A 
ATOM     13  C   UNL     1       8.316   8.256  18.596  0.00  0.00    +0.000 A 
ATOM     14 CL   UNL     1       9.092   9.488  19.510  0.00  0.00    +0.000 Cl
ATOM     15  C   UNL     1       8.389   6.934  19.012  0.00  0.00    +0.000 A 
ATOM     16  C   UNL     1       7.809   5.927  18.234  0.00  0.00    +0.000 A 
ENDBRANCH   9  10
BRANCH   1  17
ATOM     17  S   UNL     1       4.584   4.178  18.262  0.00  0.00    +0.000 S 
ATOM     18  O   UNL     1       5.622   4.076  19.266  0.00  0.00    +0.000 OA
ATOM     19  O   UNL     1       3.625   3.108  18.058  0.00  0.00    +0.000 OA
BRANCH  17  23
ATOM     20  C   UNL     1       2.114   7.925  19.123  0.00  0.00    +0.000 A 
ATOM     21  C   UNL     1       2.185   6.885  20.057  0.00  0.00    +0.000 A 
ATOM     22  C   UNL     1       2.934   5.736  19.798  0.00  0.00    +0.000 A 
ATOM     23  C   UNL     1       3.637   5.638  18.601  0.00  0.00    +0.000 A 
ATOM     24  C   UNL     1       3.559   6.655  17.644  0.00  0.00    +0.000 A 
ATOM     25  C   UNL     1       2.791   7.793  17.906  0.00  0.00    +0.000 A 
BRANCH  20  29
ATOM     26  C   UNL     1      -0.230  10.641  20.264  0.00  0.00    +0.000 C 
ATOM     27  C   UNL     1       0.528   9.350  20.410  0.00  0.00    +0.000 C 
ATOM     28  O   UNL     1       0.371   8.641  21.398  0.00  0.00    +0.000 OA
ATOM     29  N   UNL     1       1.365   9.100  19.335  0.00  0.00    +0.000 N 
ATOM     30  H   UNL     1       1.508   9.854  18.678  0.00  0.00    +0.000 HD
ENDBRANCH  20  29
ENDBRANCH  17  23
ENDBRANCH   1  17
TORSDOF 4
ENDMDL
MODEL 6
REMARK VINA RESULT:      -7.5      3.438      4.974
REMARK  Name = 
REMARK  5 active torsions:
REMARK  status: ('A' for Active; 'I' for Inactive)
REMARK    1  A    between atoms: C_1  and  C_2
REMARK    2  A    between atoms: N_4  and  C_5
REMARK    3  A    between atoms: C_8  and  S_9
REMARK    4  A    between atoms: S_9  and  C_12
REMARK    5  A    between atoms: C_20  and  C_21
REMARK                            x       y       z     vdW  Elec       q    Type
REMARK                         _______ _______ _______ _____ _____    ______ ____
ROOT
ATOM      1  C   UNL     1      -0.851  11.348  19.625  0.00  0.00    +0.000 A 
ATOM      2  S   UNL     1      -1.272  10.589  18.150  0.00  0.00    +0.000 S 
ATOM      3  C   UNL     1      -2.872  11.121  18.233  0.00  0.00    +0.000 A 
ATOM      4  N   UNL     1      -3.757  10.747  17.285  0.00  0.00    +0.000 NA
ATOM      5  C   UNL     1      -4.998  11.235  17.459  0.00  0.00    +0.000 A 
ATOM      6  C   UNL     1      -5.385  12.074  18.486  0.00  0.00    +0.000 A 
ATOM      7  C   UNL     1      -4.431  12.451  19.430  0.00  0.00    +0.000 A 
ATOM      8  C   UNL     1      -3.114  11.939  19.331  0.00  0.00    +0.000 A 
ATOM      9  C   UNL     1      -1.919  12.080  20.155  0.00  0.00    +0.000 A 
ENDROOT
BRANCH   9  10
ATOM     10  C   UNL     1      -1.829  12.840  21.417  0.00  0.00    +0.000 A 
ATOM     11  C   UNL     1      -2.532  12.413  22.555  0.00  0.00    +0.000 A 
ATOM     12  C   UNL     1      -2.520  13.162  23.739  0.00  0.00    +0.000 A 
ATOM     13  C   UNL     1      -1.749  14.317  23.820  0.00  0.00    +0.000 A 
ATOM     14 CL   UNL     1      -1.719  15.233  25.274  0.00  0.00    +0.000 Cl
ATOM     15  C   UNL     1      -1.019  14.742  22.719  0.00  0.00    +0.000 A 
ATOM     16  C   UNL     1      -1.093  14.029  21.517  0.00  0.00    +0.000 A 
ENDBRANCH   9  10
BRANCH   1  17
ATOM     17  S   UNL     1       0.824  11.035  20.175  0.00  0.00    +0.000 S 
ATOM     18  O   UNL     1       0.732  10.940  21.617  0.00  0.00    +0.000 OA
ATOM     19  O   UNL     1       1.629  12.059  19.537  0.00  0.00    +0.000 OA
BRANCH  17  23
ATOM     20  C   UNL     1       2.386   7.035  18.610  0.00  0.00    +0.000 A 
ATOM     21  C   UNL     1       1.926   7.158  19.926  0.00  0.00    +0.000 A 
ATOM     22  C   UNL     1       1.451   8.377  20.412  0.00  0.00    +0.000 A 
ATOM     23  C   UNL     1       1.418   9.480  19.563  0.00  0.00    +0.000 A 
ATOM     24  C   UNL     1       1.897   9.385  18.253  0.00  0.00    +0.000 A 
ATOM     25  C   UNL     1       2.387   8.163  17.783  0.00  0.00    +0.000 A 
BRANCH  20  29
ATOM     26  C   UNL     1       4.372   4.009  17.577  0.00  0.00    +0.000 C 
ATOM     27  C   UNL     1       4.070   5.209  18.431  0.00  0.00    +0.000 C 
ATOM     28  O   UNL     1       4.838   5.549  19.325  0.00  0.00    +0.000 OA
ATOM     29  N   UNL     1       2.883   5.828  18.078  0.00  0.00    +0.000 N 
ATOM     30  H   UNL     1       2.282   5.336  17.432  0.00  0.00    +0.000 HD
ENDBRANCH  20  29
ENDBRANCH  17  23
ENDBRANCH   1  17
TORSDOF 4
ENDMDL
MODEL 7
REMARK VINA RESULT:      -7.4      3.430      4.888
REMARK  Name = 
REMARK  5 active torsions:
REMARK  status: ('A' for Active; 'I' for Inactive)
REMARK    1  A    between atoms: C_1  and  C_2
REMARK    2  A    between atoms: N_4  and  C_5
REMARK    3  A    between atoms: C_8  and  S_9
REMARK    4  A    between atoms: S_9  and  C_12
REMARK    5  A    between atoms: C_20  and  C_21
REMARK                            x       y       z     vdW  Elec       q    Type
REMARK                         _______ _______ _______ _____ _____    ______ ____
ROOT
ATOM      1  C   UNL     1      -0.648  11.163  19.384  0.00  0.00    +0.000 A 
ATOM      2  S   UNL     1      -1.141  10.330  17.972  0.00  0.00    +0.000 S 
ATOM      3  C   UNL     1      -2.740  10.852  18.118  0.00  0.00    +0.000 A 
ATOM      4  N   UNL     1      -3.671  10.425  17.239  0.00  0.00    +0.000 NA
ATOM      5  C   UNL     1      -4.906  10.911  17.458  0.00  0.00    +0.000 A 
ATOM      6  C   UNL     1      -5.245  11.794  18.465  0.00  0.00    +0.000 A 
ATOM      7  C   UNL     1      -4.245  12.224  19.335  0.00  0.00    +0.000 A 
ATOM      8  C   UNL     1      -2.930  11.719  19.188  0.00  0.00    +0.000 A 
ATOM      9  C   UNL     1      -1.693  11.910  19.937  0.00  0.00    +0.000 A 
ENDROOT
BRANCH   9  10
ATOM     10  C   UNL     1      -1.543  12.730  21.154  0.00  0.00    +0.000 A 
ATOM     11  C   UNL     1      -2.070  12.288  22.379  0.00  0.00    +0.000 A 
ATOM     12  C   UNL     1      -2.004  13.087  23.528  0.00  0.00    +0.000 A 
ATOM     13  C   UNL     1      -1.350  14.313  23.483  0.00  0.00    +0.000 A 
ATOM     14 CL   UNL     1      -1.253  15.291  24.893  0.00  0.00    +0.000 Cl
ATOM     15  C   UNL     1      -0.791  14.758  22.292  0.00  0.00    +0.000 A 
ATOM     16  C   UNL     1      -0.925  13.988  21.132  0.00  0.00    +0.000 A 
ENDBRANCH   9  10
BRANCH   1  17
ATOM     17  S   UNL     1       1.058  10.891  19.855  0.00  0.00    +0.000 S 
ATOM     18  O   UNL     1       1.081  11.064  21.292  0.00  0.00    +0.000 OA
ATOM     19  O   UNL     1       1.833  11.749  18.980  0.00  0.00    +0.000 OA
BRANCH  17  23
ATOM     20  C   UNL     1       2.326   6.600  18.921  0.00  0.00    +0.000 A 
ATOM     21  C   UNL     1       2.412   7.601  17.945  0.00  0.00    +0.000 A 
ATOM     22  C   UNL     1       2.023   8.911  18.223  0.00  0.00    +0.000 A 
ATOM     23  C   UNL     1       1.562   9.229  19.498  0.00  0.00    +0.000 A 
ATOM     24  C   UNL     1       1.444   8.239  20.478  0.00  0.00    +0.000 A 
ATOM     25  C   UNL     1       1.820   6.925  20.183  0.00  0.00    +0.000 A 
BRANCH  20  29
ATOM     26  C   UNL     1       2.592   2.963  17.991  0.00  0.00    +0.000 C 
ATOM     27  C   UNL     1       1.993   4.340  17.929  0.00  0.00    +0.000 C 
ATOM     28  O   UNL     1       0.985   4.554  17.263  0.00  0.00    +0.000 OA
ATOM     29  N   UNL     1       2.698   5.262  18.685  0.00  0.00    +0.000 N 
ATOM     30  H   UNL     1       3.597   4.972  19.043  0.00  0.00    +0.000 HD
ENDBRANCH  20  29
ENDBRANCH  17  23
ENDBRANCH   1  17
TORSDOF 4
ENDMDL
MODEL 8
REMARK VINA RESULT:      -7.3      3.456      4.923
REMARK  Name = 
REMARK  5 active torsions:
REMARK  status: ('A' for Active; 'I' for Inactive)
REMARK    1  A    between atoms: C_1  and  C_2
REMARK    2  A    between atoms: N_4  and  C_5
REMARK    3  A    between atoms: C_8  and  S_9
REMARK    4  A    between atoms: S_9  and  C_12
REMARK    5  A    between atoms: C_20  and  C_21
REMARK                            x       y       z     vdW  Elec       q    Type
REMARK                         _______ _______ _______ _____ _____    ______ ____
ROOT
ATOM      1  C   UNL     1      -0.826  11.341  19.603  0.00  0.00    +0.000 A 
ATOM      2  S   UNL     1      -1.264  10.548  18.150  0.00  0.00    +0.000 S 
ATOM      3  C   UNL     1      -2.862  11.086  18.237  0.00  0.00    +0.000 A 
ATOM      4  N   UNL     1      -3.757  10.692  17.307  0.00  0.00    +0.000 NA
ATOM      5  C   UNL     1      -4.995  11.186  17.483  0.00  0.00    +0.000 A 
ATOM      6  C   UNL     1      -5.369  12.050  18.494  0.00  0.00    +0.000 A 
ATOM      7  C   UNL     1      -4.405  12.447  19.419  0.00  0.00    +0.000 A 
ATOM      8  C   UNL     1      -3.091  11.930  19.318  0.00  0.00    +0.000 A 
ATOM      9  C   UNL     1      -1.886  12.087  20.127  0.00  0.00    +0.000 A 
ENDROOT
BRANCH   9  10
ATOM     10  C   UNL     1      -1.782  12.876  21.369  0.00  0.00    +0.000 A 
ATOM     11  C   UNL     1      -0.998  14.042  21.407  0.00  0.00    +0.000 A 
ATOM     12  C   UNL     1      -0.826  14.761  22.596  0.00  0.00    +0.000 A 
ATOM     13  C   UNL     1      -1.490  14.361  23.751  0.00  0.00    +0.000 A 
ATOM     14 CL   UNL     1      -1.294  15.250  25.209  0.00  0.00    +0.000 Cl
ATOM     15  C   UNL     1      -2.298  13.232  23.731  0.00  0.00    +0.000 A 
ATOM     16  C   UNL     1      -2.407  12.477  22.558  0.00  0.00    +0.000 A 
ENDBRANCH   9  10
BRANCH   1  17
ATOM     17  S   UNL     1       0.854  11.037  20.143  0.00  0.00    +0.000 S 
ATOM     18  O   UNL     1       0.767  10.915  21.583  0.00  0.00    +0.000 OA
ATOM     19  O   UNL     1       1.645  12.082  19.521  0.00  0.00    +0.000 OA
BRANCH  17  23
ATOM     20  C   UNL     1       2.394   7.070  18.475  0.00  0.00    +0.000 A 
ATOM     21  C   UNL     1       2.331   8.210  17.665  0.00  0.00    +0.000 A 
ATOM     22  C   UNL     1       1.858   9.424  18.167  0.00  0.00    +0.000 A 
ATOM     23  C   UNL     1       1.464   9.501  19.500  0.00  0.00    +0.000 A 
ATOM     24  C   UNL     1       1.495   8.367  20.318  0.00  0.00    +0.000 A 
ATOM     25  C   UNL     1       1.953   7.152  19.799  0.00  0.00    +0.000 A 
BRANCH  20  29
ATOM     26  C   UNL     1       4.340   4.035  17.393  0.00  0.00    +0.000 C 
ATOM     27  C   UNL     1       4.151   5.344  18.110  0.00  0.00    +0.000 C 
ATOM     28  O   UNL     1       5.088   5.877  18.695  0.00  0.00    +0.000 OA
ATOM     29  N   UNL     1       2.855   5.822  18.011  0.00  0.00    +0.000 N 
ATOM     30  H   UNL     1       2.159   5.192  17.638  0.00  0.00    +0.000 HD
ENDBRANCH  20  29
ENDBRANCH  17  23
ENDBRANCH   1  17
TORSDOF 4
ENDMDL
MODEL 9
REMARK VINA RESULT:      -7.2      3.096      4.806
REMARK  Name = 
REMARK  5 active torsions:
REMARK  status: ('A' for Active; 'I' for Inactive)
REMARK    1  A    between atoms: C_1  and  C_2
REMARK    2  A    between atoms: N_4  and  C_5
REMARK    3  A    between atoms: C_8  and  S_9
REMARK    4  A    between atoms: S_9  and  C_12
REMARK    5  A    between atoms: C_20  and  C_21
REMARK                            x       y       z     vdW  Elec       q    Type
REMARK                         _______ _______ _______ _____ _____    ______ ____
ROOT
ATOM      1  C   UNL     1       0.386  11.974  20.428  0.00  0.00    +0.000 A 
ATOM      2  S   UNL     1       1.885  12.712  20.803  0.00  0.00    +0.000 S 
ATOM      3  C   UNL     1       1.530  14.093  19.901  0.00  0.00    +0.000 A 
ATOM      4  N   UNL     1       2.449  15.074  19.781  0.00  0.00    +0.000 NA
ATOM      5  C   UNL     1       2.049  16.123  19.039  0.00  0.00    +0.000 A 
ATOM      6  C   UNL     1       0.807  16.251  18.449  0.00  0.00    +0.000 A 
ATOM      7  C   UNL     1      -0.118  15.221  18.618  0.00  0.00    +0.000 A 
ATOM      8  C   UNL     1       0.253  14.068  19.353  0.00  0.00    +0.000 A 
ATOM      9  C   UNL     1      -0.430  12.817  19.666  0.00  0.00    +0.000 A 
ENDROOT
BRANCH   9  10
ATOM     10  C   UNL     1      -1.781  12.437  19.210  0.00  0.00    +0.000 A 
ATOM     11  C   UNL     1      -2.908  12.748  19.989  0.00  0.00    +0.000 A 
ATOM     12  C   UNL     1      -4.189  12.328  19.609  0.00  0.00    +0.000 A 
ATOM     13  C   UNL     1      -4.369  11.647  18.409  0.00  0.00    +0.000 A 
ATOM     14 CL   UNL     1      -5.941  11.143  17.932  0.00  0.00    +0.000 Cl
ATOM     15  C   UNL     1      -3.275  11.358  17.606  0.00  0.00    +0.000 A 
ATOM     16  C   UNL     1      -1.989  11.716  18.026  0.00  0.00    +0.000 A 
ENDBRANCH   9  10
BRANCH   1  17
ATOM     17  S   UNL     1       0.193  10.310  21.058  0.00  0.00    +0.000 S 
ATOM     18  O   UNL     1      -1.210  10.002  20.878  0.00  0.00    +0.000 OA
ATOM     19  O   UNL     1       0.796  10.334  22.377  0.00  0.00    +0.000 OA
BRANCH  17  23
ATOM     20  C   UNL     1       2.588   7.308  18.580  0.00  0.00    +0.000 A 
ATOM     21  C   UNL     1       2.089   8.479  17.998  0.00  0.00    +0.000 A 
ATOM     22  C   UNL     1       1.354   9.398  18.748  0.00  0.00    +0.000 A 
ATOM     23  C   UNL     1       1.134   9.151  20.101  0.00  0.00    +0.000 A 
ATOM     24  C   UNL     1       1.602   7.974  20.694  0.00  0.00    +0.000 A 
ATOM     25  C   UNL     1       2.321   7.052  19.929  0.00  0.00    +0.000 A 
BRANCH  20  29
ATOM     26  C   UNL     1       4.032   4.234  16.957  0.00  0.00    +0.000 C 
ATOM     27  C   UNL     1       2.956   5.030  17.642  0.00  0.00    +0.000 C 
ATOM     28  O   UNL     1       1.889   4.507  17.948  0.00  0.00    +0.000 OA
ATOM     29  N   UNL     1       3.327   6.346  17.862  0.00  0.00    +0.000 N 
ATOM     30  H   UNL     1       4.169   6.669  17.407  0.00  0.00    +0.000 HD
ENDBRANCH  20  29
ENDBRANCH  17  23
ENDBRANCH   1  17
TORSDOF 4
ENDMDL
