MODEL 1
REMARK VINA RESULT:      -8.8      0.000      0.000
REMARK  Name = 
REMARK  3 active torsions:
REMARK  status: ('A' for Active; 'I' for Inactive)
REMARK    1  A    between atoms: C_2  and  C_15
REMARK    2  A    between atoms: N_3  and  C_4
REMARK    3  A    between atoms: C_19  and  C_20
REMARK                            x       y       z     vdW  Elec       q    Type
REMARK                         _______ _______ _______ _____ _____    ______ ____
ROOT
ATOM      1  O   UNL     1       1.591   8.768  19.065  0.00  0.00    +0.000 OA
ATOM      2  C   UNL     1       1.717   7.978  19.996  0.00  0.00    +0.000 C 
ATOM      3  N   UNL     1       1.366   8.208  21.315  0.00  0.00    +0.000 N 
ATOM      4  H   UNL     1       1.758   7.597  22.022  0.00  0.00    +0.000 HD
ENDROOT
BRANCH   3   5
ATOM      5  C   UNL     1       0.646   9.339  21.768  0.00  0.00    +0.000 A 
ATOM      6  C   UNL     1      -0.354   9.242  22.761  0.00  0.00    +0.000 A 
ATOM      7  C   UNL     1      -1.067  10.359  23.212  0.00  0.00    +0.000 A 
ATOM      8  C   UNL     1      -0.770  11.589  22.668  0.00  0.00    +0.000 A 
ATOM      9  C   UNL     1       0.220  11.676  21.692  0.00  0.00    +0.000 A 
ATOM     10  C   UNL     1       0.954  10.592  21.231  0.00  0.00    +0.000 A 
ATOM     11  S   UNL     1       0.369  13.338  21.174  0.00  0.00    +0.000 S 
ATOM     12  O   UNL     1      -0.121  13.430  19.816  0.00  0.00    +0.000 OA
ATOM     13  O   UNL     1       1.675  13.814  21.576  0.00  0.00    +0.000 OA
ATOM     14  C   UNL     1      -0.848  13.884  22.293  0.00  0.00    +0.000 C 
ATOM     15  C   UNL     1      -1.370  12.874  23.005  0.00  0.00    +0.000 C 
ENDBRANCH   3   5
BRANCH   2  16
ATOM     16  C   UNL     1       2.347   6.678  19.681  0.00  0.00    +0.000 A 
ATOM     17  C   UNL     1       2.071   5.609  20.530  0.00  0.00    +0.000 A 
ATOM     18  C   UNL     1       2.751   4.431  20.323  0.00  0.00    +0.000 A 
ATOM     19  N   UNL     1       3.674   4.270  19.354  0.00  0.00    +0.000 NA
ATOM     20  C   UNL     1       3.957   5.323  18.542  0.00  0.00    +0.000 A 
ATOM     21  C   UNL     1       3.299   6.544  18.669  0.00  0.00    +0.000 A 
BRANCH  20  22
ATOM     22  C   UNL     1       5.064   5.107  17.587  0.00  0.00    +0.000 A 
ATOM     23  C   UNL     1       6.364   4.774  18.004  0.00  0.00    +0.000 A 
ATOM     24  C   UNL     1       7.384   4.530  17.077  0.00  0.00    +0.000 A 
ATOM     25  C   UNL     1       7.125   4.621  15.712  0.00  0.00    +0.000 A 
ATOM     26  C   UNL     1       5.852   4.964  15.272  0.00  0.00    +0.000 A 
ATOM     27  C   UNL     1       4.836   5.207  16.200  0.00  0.00    +0.000 A 
ENDBRANCH  20  22
ENDBRANCH   2  16
TORSDOF 3
ENDMDL
MODEL 2
REMARK VINA RESULT:      -8.8      7.156      7.983
REMARK  Name = 
REMARK  3 active torsions:
REMARK  status: ('A' for Active; 'I' for Inactive)
REMARK    1  A    between atoms: C_2  and  C_15
REMARK    2  A    between atoms: N_3  and  C_4
REMARK    3  A    between atoms: C_19  and  C_20
REMARK                            x       y       z     vdW  Elec       q    Type
REMARK                         _______ _______ _______ _____ _____    ______ ____
ROOT
ATOM      1  O   UNL     1       7.430   9.620  17.400  0.00  0.00    +0.000 OA
ATOM      2  C   UNL     1       8.025   8.770  18.056  0.00  0.00    +0.000 C 
ATOM      3  N   UNL     1       9.026   9.008  18.983  0.00  0.00    +0.000 N 
ATOM      4  H   UNL     1       9.613   8.229  19.254  0.00  0.00    +0.000 HD
ENDROOT
BRANCH   3   5
ATOM      5  C   UNL     1       9.404  10.292  19.444  0.00  0.00    +0.000 A 
ATOM      6  C   UNL     1       9.246  10.679  20.793  0.00  0.00    +0.000 A 
ATOM      7  C   UNL     1       9.620  11.948  21.252  0.00  0.00    +0.000 A 
ATOM      8  C   UNL     1      10.165  12.836  20.352  0.00  0.00    +0.000 A 
ATOM      9  C   UNL     1      10.320  12.444  19.025  0.00  0.00    +0.000 A 
ATOM     10  C   UNL     1       9.972  11.191  18.538  0.00  0.00    +0.000 A 
ATOM     11  S   UNL     1      11.013  13.765  18.115  0.00  0.00    +0.000 S 
ATOM     12  O   UNL     1      10.000  14.265  17.210  0.00  0.00    +0.000 OA
ATOM     13  O   UNL     1      12.332  13.362  17.678  0.00  0.00    +0.000 OA
ATOM     14  C   UNL     1      11.122  14.786  19.521  0.00  0.00    +0.000 C 
ATOM     15  C   UNL     1      10.639  14.188  20.620  0.00  0.00    +0.000 C 
ENDBRANCH   3   5
BRANCH   2  16
ATOM     16  C   UNL     1       7.669   7.360  17.792  0.00  0.00    +0.000 A 
ATOM     17  C   UNL     1       7.894   6.439  18.814  0.00  0.00    +0.000 A 
ATOM     18  C   UNL     1       7.689   5.108  18.537  0.00  0.00    +0.000 A 
ATOM     19  N   UNL     1       7.297   4.656  17.329  0.00  0.00    +0.000 NA
ATOM     20  C   UNL     1       7.101   5.555  16.328  0.00  0.00    +0.000 A 
ATOM     21  C   UNL     1       7.265   6.923  16.530  0.00  0.00    +0.000 A 
BRANCH  20  22
ATOM     22  C   UNL     1       6.792   4.973  15.005  0.00  0.00    +0.000 A 
ATOM     23  C   UNL     1       7.645   5.127  13.898  0.00  0.00    +0.000 A 
ATOM     24  C   UNL     1       7.352   4.527  12.668  0.00  0.00    +0.000 A 
ATOM     25  C   UNL     1       6.195   3.767  12.517  0.00  0.00    +0.000 A 
ATOM     26  C   UNL     1       5.326   3.613  13.592  0.00  0.00    +0.000 A 
ATOM     27  C   UNL     1       5.622   4.212  14.819  0.00  0.00    +0.000 A 
ENDBRANCH  20  22
ENDBRANCH   2  16
TORSDOF 3
ENDMDL
MODEL 3
REMARK VINA RESULT:      -8.7      2.574      4.165
REMARK  Name = 
REMARK  3 active torsions:
REMARK  status: ('A' for Active; 'I' for Inactive)
REMARK    1  A    between atoms: C_2  and  C_15
REMARK    2  A    between atoms: N_3  and  C_4
REMARK    3  A    between atoms: C_19  and  C_20
REMARK                            x       y       z     vdW  Elec       q    Type
REMARK                         _______ _______ _______ _____ _____    ______ ____
ROOT
ATOM      1  O   UNL     1       3.518   5.860  19.577  0.00  0.00    +0.000 OA
ATOM      2  C   UNL     1       3.957   6.324  18.529  0.00  0.00    +0.000 C 
ATOM      3  N   UNL     1       3.455   7.422  17.850  0.00  0.00    +0.000 N 
ATOM      4  H   UNL     1       3.726   7.542  16.881  0.00  0.00    +0.000 HD
ENDROOT
BRANCH   3   5
ATOM      5  C   UNL     1       2.455   8.288  18.352  0.00  0.00    +0.000 A 
ATOM      6  C   UNL     1       1.872   9.300  17.558  0.00  0.00    +0.000 A 
ATOM      7  C   UNL     1       0.882  10.157  18.052  0.00  0.00    +0.000 A 
ATOM      8  C   UNL     1       0.464   9.994  19.354  0.00  0.00    +0.000 A 
ATOM      9  C   UNL     1       1.042   8.991  20.129  0.00  0.00    +0.000 A 
ATOM     10  C   UNL     1       2.017   8.117  19.668  0.00  0.00    +0.000 A 
ATOM     11  S   UNL     1       0.340   9.028  21.728  0.00  0.00    +0.000 S 
ATOM     12  O   UNL     1       1.356   9.482  22.653  0.00  0.00    +0.000 OA
ATOM     13  O   UNL     1      -0.407   7.802  21.915  0.00  0.00    +0.000 OA
ATOM     14  C   UNL     1      -0.732  10.337  21.319  0.00  0.00    +0.000 C 
ATOM     15  C   UNL     1      -0.561  10.755  20.056  0.00  0.00    +0.000 C 
ENDBRANCH   3   5
BRANCH   2  16
ATOM     16  C   UNL     1       5.096   5.611  17.914  0.00  0.00    +0.000 A 
ATOM     17  C   UNL     1       6.199   5.345  18.723  0.00  0.00    +0.000 A 
ATOM     18  C   UNL     1       7.314   4.799  18.132  0.00  0.00    +0.000 A 
ATOM     19  N   UNL     1       7.394   4.526  16.814  0.00  0.00    +0.000 NA
ATOM     20  C   UNL     1       6.324   4.809  16.024  0.00  0.00    +0.000 A 
ATOM     21  C   UNL     1       5.148   5.341  16.546  0.00  0.00    +0.000 A 
BRANCH  20  22
ATOM     22  C   UNL     1       6.532   4.596  14.576  0.00  0.00    +0.000 A 
ATOM     23  C   UNL     1       7.544   5.254  13.856  0.00  0.00    +0.000 A 
ATOM     24  C   UNL     1       7.749   5.001  12.495  0.00  0.00    +0.000 A 
ATOM     25  C   UNL     1       6.940   4.087  11.824  0.00  0.00    +0.000 A 
ATOM     26  C   UNL     1       5.921   3.434  12.508  0.00  0.00    +0.000 A 
ATOM     27  C   UNL     1       5.719   3.689  13.867  0.00  0.00    +0.000 A 
ENDBRANCH  20  22
ENDBRANCH   2  16
TORSDOF 3
ENDMDL
MODEL 4
REMARK VINA RESULT:      -8.6      4.332      8.866
REMARK  Name = 
REMARK  3 active torsions:
REMARK  status: ('A' for Active; 'I' for Inactive)
REMARK    1  A    between atoms: C_2  and  C_15
REMARK    2  A    between atoms: N_3  and  C_4
REMARK    3  A    between atoms: C_19  and  C_20
REMARK                            x       y       z     vdW  Elec       q    Type
REMARK                         _______ _______ _______ _____ _____    ______ ____
ROOT
ATOM      1  O   UNL     1       1.795   8.336  21.558  0.00  0.00    +0.000 OA
ATOM      2  C   UNL     1       1.409   8.537  20.411  0.00  0.00    +0.000 C 
ATOM      3  N   UNL     1       1.788   7.824  19.285  0.00  0.00    +0.000 N 
ATOM      4  H   UNL     1       1.617   8.245  18.380  0.00  0.00    +0.000 HD
ENDROOT
BRANCH   3   5
ATOM      5  C   UNL     1       2.555   6.635  19.310  0.00  0.00    +0.000 A 
ATOM      6  C   UNL     1       3.797   6.531  18.645  0.00  0.00    +0.000 A 
ATOM      7  C   UNL     1       4.558   5.357  18.669  0.00  0.00    +0.000 A 
ATOM      8  C   UNL     1       4.073   4.276  19.371  0.00  0.00    +0.000 A 
ATOM      9  C   UNL     1       2.849   4.388  20.025  0.00  0.00    +0.000 A 
ATOM     10  C   UNL     1       2.075   5.540  20.033  0.00  0.00    +0.000 A 
ATOM     11  S   UNL     1       2.478   2.872  20.811  0.00  0.00    +0.000 S 
ATOM     12  O   UNL     1       1.360   2.270  20.118  0.00  0.00    +0.000 OA
ATOM     13  O   UNL     1       2.493   3.096  22.241  0.00  0.00    +0.000 OA
ATOM     14  C   UNL     1       3.972   2.143  20.293  0.00  0.00    +0.000 C 
ATOM     15  C   UNL     1       4.709   2.975  19.542  0.00  0.00    +0.000 C 
ENDBRANCH   3   5
BRANCH   2  16
ATOM     16  C   UNL     1       0.493   9.680  20.210  0.00  0.00    +0.000 A 
ATOM     17  C   UNL     1       0.400  10.617  21.237  0.00  0.00    +0.000 A 
ATOM     18  C   UNL     1      -0.542  11.611  21.118  0.00  0.00    +0.000 A 
ATOM     19  N   UNL     1      -1.382  11.712  20.069  0.00  0.00    +0.000 NA
ATOM     20  C   UNL     1      -1.305  10.783  19.080  0.00  0.00    +0.000 A 
ATOM     21  C   UNL     1      -0.364   9.756  19.112  0.00  0.00    +0.000 A 
BRANCH  20  22
ATOM     22  C   UNL     1      -2.337  10.889  18.028  0.00  0.00    +0.000 A 
ATOM     23  C   UNL     1      -3.546  11.579  18.227  0.00  0.00    +0.000 A 
ATOM     24  C   UNL     1      -4.488  11.704  17.199  0.00  0.00    +0.000 A 
ATOM     25  C   UNL     1      -4.243  11.135  15.952  0.00  0.00    +0.000 A 
ATOM     26  C   UNL     1      -3.062  10.434  15.733  0.00  0.00    +0.000 A 
ATOM     27  C   UNL     1      -2.123  10.311  16.761  0.00  0.00    +0.000 A 
ENDBRANCH  20  22
ENDBRANCH   2  16
TORSDOF 3
ENDMDL
MODEL 5
REMARK VINA RESULT:      -8.6      1.087      1.551
REMARK  Name = 
REMARK  3 active torsions:
REMARK  status: ('A' for Active; 'I' for Inactive)
REMARK    1  A    between atoms: C_2  and  C_15
REMARK    2  A    between atoms: N_3  and  C_4
REMARK    3  A    between atoms: C_19  and  C_20
REMARK                            x       y       z     vdW  Elec       q    Type
REMARK                         _______ _______ _______ _____ _____    ______ ____
ROOT
ATOM      1  O   UNL     1       2.000   8.674  19.166  0.00  0.00    +0.000 OA
ATOM      2  C   UNL     1       1.741   7.786  19.973  0.00  0.00    +0.000 C 
ATOM      3  N   UNL     1       0.992   7.926  21.129  0.00  0.00    +0.000 N 
ATOM      4  H   UNL     1       1.072   7.204  21.834  0.00  0.00    +0.000 HD
ENDROOT
BRANCH   3   5
ATOM      5  C   UNL     1       0.261   9.088  21.475  0.00  0.00    +0.000 A 
ATOM      6  C   UNL     1      -0.032   9.416  22.817  0.00  0.00    +0.000 A 
ATOM      7  C   UNL     1      -0.753  10.565  23.163  0.00  0.00    +0.000 A 
ATOM      8  C   UNL     1      -1.180  11.399  22.153  0.00  0.00    +0.000 A 
ATOM      9  C   UNL     1      -0.884  11.068  20.833  0.00  0.00    +0.000 A 
ATOM     10  C   UNL     1      -0.162   9.945  20.456  0.00  0.00    +0.000 A 
ATOM     11  S   UNL     1      -1.559  12.283  19.774  0.00  0.00    +0.000 S 
ATOM     12  O   UNL     1      -2.649  11.681  19.038  0.00  0.00    +0.000 OA
ATOM     13  O   UNL     1      -0.462  12.976  19.133  0.00  0.00    +0.000 OA
ATOM     14  C   UNL     1      -2.176  13.221  21.106  0.00  0.00    +0.000 C 
ATOM     15  C   UNL     1      -1.920  12.646  22.291  0.00  0.00    +0.000 C 
ENDBRANCH   3   5
BRANCH   2  16
ATOM     16  C   UNL     1       2.326   6.455  19.704  0.00  0.00    +0.000 A 
ATOM     17  C   UNL     1       1.994   5.420  20.575  0.00  0.00    +0.000 A 
ATOM     18  C   UNL     1       2.631   4.212  20.413  0.00  0.00    +0.000 A 
ATOM     19  N   UNL     1       3.565   3.991  19.467  0.00  0.00    +0.000 NA
ATOM     20  C   UNL     1       3.904   5.010  18.633  0.00  0.00    +0.000 A 
ATOM     21  C   UNL     1       3.291   6.258  18.716  0.00  0.00    +0.000 A 
BRANCH  20  22
ATOM     22  C   UNL     1       5.020   4.727  17.706  0.00  0.00    +0.000 A 
ATOM     23  C   UNL     1       4.810   4.368  16.363  0.00  0.00    +0.000 A 
ATOM     24  C   UNL     1       5.884   4.149  15.494  0.00  0.00    +0.000 A 
ATOM     25  C   UNL     1       7.193   4.277  15.952  0.00  0.00    +0.000 A 
ATOM     26  C   UNL     1       7.429   4.614  17.280  0.00  0.00    +0.000 A 
ATOM     27  C   UNL     1       6.354   4.833  18.146  0.00  0.00    +0.000 A 
ENDBRANCH  20  22
ENDBRANCH   2  16
TORSDOF 3
ENDMDL
MODEL 6
REMARK VINA RESULT:      -8.5      4.208      9.211
REMARK  Name = 
REMARK  3 active torsions:
REMARK  status: ('A' for Active; 'I' for Inactive)
REMARK    1  A    between atoms: C_2  and  C_15
REMARK    2  A    between atoms: N_3  and  C_4
REMARK    3  A    between atoms: C_19  and  C_20
REMARK                            x       y       z     vdW  Elec       q    Type
REMARK                         _______ _______ _______ _____ _____    ______ ____
ROOT
ATOM      1  O   UNL     1       1.656   8.200  20.695  0.00  0.00    +0.000 OA
ATOM      2  C   UNL     1       1.371   8.752  19.637  0.00  0.00    +0.000 C 
ATOM      3  N   UNL     1       1.803   8.372  18.377  0.00  0.00    +0.000 N 
ATOM      4  H   UNL     1       1.723   9.048  17.627  0.00  0.00    +0.000 HD
ENDROOT
BRANCH   3   5
ATOM      5  C   UNL     1       2.509   7.178  18.097  0.00  0.00    +0.000 A 
ATOM      6  C   UNL     1       1.995   5.907  18.435  0.00  0.00    +0.000 A 
ATOM      7  C   UNL     1       2.691   4.724  18.158  0.00  0.00    +0.000 A 
ATOM      8  C   UNL     1       3.912   4.815  17.528  0.00  0.00    +0.000 A 
ATOM      9  C   UNL     1       4.410   6.073  17.195  0.00  0.00    +0.000 A 
ATOM     10  C   UNL     1       3.742   7.264  17.444  0.00  0.00    +0.000 A 
ATOM     11  S   UNL     1       5.969   5.887  16.430  0.00  0.00    +0.000 S 
ATOM     12  O   UNL     1       6.975   6.403  17.333  0.00  0.00    +0.000 OA
ATOM     13  O   UNL     1       5.846   6.321  15.055  0.00  0.00    +0.000 OA
ATOM     14  C   UNL     1       5.904   4.150  16.528  0.00  0.00    +0.000 C 
ATOM     15  C   UNL     1       4.786   3.719  17.130  0.00  0.00    +0.000 C 
ENDBRANCH   3   5
BRANCH   2  16
ATOM     16  C   UNL     1       0.528   9.962  19.726  0.00  0.00    +0.000 A 
ATOM     17  C   UNL     1       0.802  10.862  20.754  0.00  0.00    +0.000 A 
ATOM     18  C   UNL     1      -0.055  11.924  20.926  0.00  0.00    +0.000 A 
ATOM     19  N   UNL     1      -1.146  12.125  20.160  0.00  0.00    +0.000 NA
ATOM     20  C   UNL     1      -1.423  11.232  19.172  0.00  0.00    +0.000 A 
ATOM     21  C   UNL     1      -0.595  10.142  18.917  0.00  0.00    +0.000 A 
BRANCH  20  22
ATOM     22  C   UNL     1      -2.698  11.453  18.459  0.00  0.00    +0.000 A 
ATOM     23  C   UNL     1      -2.864  11.138  17.099  0.00  0.00    +0.000 A 
ATOM     24  C   UNL     1      -4.096  11.314  16.458  0.00  0.00    +0.000 A 
ATOM     25  C   UNL     1      -5.186  11.817  17.163  0.00  0.00    +0.000 A 
ATOM     26  C   UNL     1      -5.045  12.152  18.505  0.00  0.00    +0.000 A 
ATOM     27  C   UNL     1      -3.814  11.975  19.142  0.00  0.00    +0.000 A 
ENDBRANCH  20  22
ENDBRANCH   2  16
TORSDOF 3
ENDMDL
MODEL 7
REMARK VINA RESULT:      -8.5      4.198      9.292
REMARK  Name = 
REMARK  3 active torsions:
REMARK  status: ('A' for Active; 'I' for Inactive)
REMARK    1  A    between atoms: C_2  and  C_15
REMARK    2  A    between atoms: N_3  and  C_4
REMARK    3  A    between atoms: C_19  and  C_20
REMARK                            x       y       z     vdW  Elec       q    Type
REMARK                         _______ _______ _______ _____ _____    ______ ____
ROOT
ATOM      1  O   UNL     1       1.572   8.315  20.660  0.00  0.00    +0.000 OA
ATOM      2  C   UNL     1       1.330   8.923  19.622  0.00  0.00    +0.000 C 
ATOM      3  N   UNL     1       1.840   8.631  18.368  0.00  0.00    +0.000 N 
ATOM      4  H   UNL     1       1.782   9.349  17.656  0.00  0.00    +0.000 HD
ENDROOT
BRANCH   3   5
ATOM      5  C   UNL     1       2.594   7.474  18.057  0.00  0.00    +0.000 A 
ATOM      6  C   UNL     1       3.833   7.546  17.382  0.00  0.00    +0.000 A 
ATOM      7  C   UNL     1       4.581   6.403  17.075  0.00  0.00    +0.000 A 
ATOM      8  C   UNL     1       4.087   5.175  17.455  0.00  0.00    +0.000 A 
ATOM      9  C   UNL     1       2.866   5.115  18.123  0.00  0.00    +0.000 A 
ATOM     10  C   UNL     1       2.105   6.227  18.454  0.00  0.00    +0.000 A 
ATOM     11  S   UNL     1       2.482   3.444  18.461  0.00  0.00    +0.000 S 
ATOM     12  O   UNL     1       1.354   3.068  17.637  0.00  0.00    +0.000 OA
ATOM     13  O   UNL     1       2.505   3.264  19.897  0.00  0.00    +0.000 OA
ATOM     14  C   UNL     1       3.966   2.872  17.753  0.00  0.00    +0.000 C 
ATOM     15  C   UNL     1       4.708   3.872  17.256  0.00  0.00    +0.000 C 
ENDBRANCH   3   5
BRANCH   2  16
ATOM     16  C   UNL     1       0.449  10.105  19.735  0.00  0.00    +0.000 A 
ATOM     17  C   UNL     1       0.694  10.990  20.782  0.00  0.00    +0.000 A 
ATOM     18  C   UNL     1      -0.195  12.021  20.975  0.00  0.00    +0.000 A 
ATOM     19  N   UNL     1      -1.291  12.204  20.212  0.00  0.00    +0.000 NA
ATOM     20  C   UNL     1      -1.540  11.324  19.205  0.00  0.00    +0.000 A 
ATOM     21  C   UNL     1      -0.678  10.266  18.928  0.00  0.00    +0.000 A 
BRANCH  20  22
ATOM     22  C   UNL     1      -2.821  11.520  18.494  0.00  0.00    +0.000 A 
ATOM     23  C   UNL     1      -2.989  11.184  17.140  0.00  0.00    +0.000 A 
ATOM     24  C   UNL     1      -4.225  11.337  16.502  0.00  0.00    +0.000 A 
ATOM     25  C   UNL     1      -5.319  11.836  17.205  0.00  0.00    +0.000 A 
ATOM     26  C   UNL     1      -5.176  12.192  18.542  0.00  0.00    +0.000 A 
ATOM     27  C   UNL     1      -3.940  12.038  19.176  0.00  0.00    +0.000 A 
ENDBRANCH  20  22
ENDBRANCH   2  16
TORSDOF 3
ENDMDL
MODEL 8
REMARK VINA RESULT:      -8.5      2.318      3.654
REMARK  Name = 
REMARK  3 active torsions:
REMARK  status: ('A' for Active; 'I' for Inactive)
REMARK    1  A    between atoms: C_2  and  C_15
REMARK    2  A    between atoms: N_3  and  C_4
REMARK    3  A    between atoms: C_19  and  C_20
REMARK                            x       y       z     vdW  Elec       q    Type
REMARK                         _______ _______ _______ _____ _____    ______ ____
ROOT
ATOM      1  O   UNL     1       2.396   5.097  18.442  0.00  0.00    +0.000 OA
ATOM      2  C   UNL     1       3.354   5.852  18.300  0.00  0.00    +0.000 C 
ATOM      3  N   UNL     1       3.370   7.210  18.570  0.00  0.00    +0.000 N 
ATOM      4  H   UNL     1       4.118   7.762  18.168  0.00  0.00    +0.000 HD
ENDROOT
BRANCH   3   5
ATOM      5  C   UNL     1       2.325   7.912  19.217  0.00  0.00    +0.000 A 
ATOM      6  C   UNL     1       1.894   7.580  20.521  0.00  0.00    +0.000 A 
ATOM      7  C   UNL     1       0.862   8.274  21.163  0.00  0.00    +0.000 A 
ATOM      8  C   UNL     1       0.259   9.317  20.495  0.00  0.00    +0.000 A 
ATOM      9  C   UNL     1       0.693   9.639  19.211  0.00  0.00    +0.000 A 
ATOM     10  C   UNL     1       1.720   8.980  18.550  0.00  0.00    +0.000 A 
ATOM     11  S   UNL     1      -0.254  10.976  18.606  0.00  0.00    +0.000 S 
ATOM     12  O   UNL     1      -1.096  10.483  17.538  0.00  0.00    +0.000 OA
ATOM     13  O   UNL     1       0.627  12.114  18.455  0.00  0.00    +0.000 OA
ATOM     14  C   UNL     1      -1.168  11.107  20.083  0.00  0.00    +0.000 C 
ATOM     15  C   UNL     1      -0.810  10.178  20.983  0.00  0.00    +0.000 C 
ENDBRANCH   3   5
BRANCH   2  16
ATOM     16  C   UNL     1       4.588   5.258  17.743  0.00  0.00    +0.000 A 
ATOM     17  C   UNL     1       5.657   5.063  18.615  0.00  0.00    +0.000 A 
ATOM     18  C   UNL     1       6.850   4.634  18.085  0.00  0.00    +0.000 A 
ATOM     19  N   UNL     1       7.036   4.408  16.769  0.00  0.00    +0.000 NA
ATOM     20  C   UNL     1       5.997   4.621  15.918  0.00  0.00    +0.000 A 
ATOM     21  C   UNL     1       4.749   5.035  16.375  0.00  0.00    +0.000 A 
BRANCH  20  22
ATOM     22  C   UNL     1       6.313   4.470  14.482  0.00  0.00    +0.000 A 
ATOM     23  C   UNL     1       7.382   5.148  13.871  0.00  0.00    +0.000 A 
ATOM     24  C   UNL     1       7.688   4.953  12.520  0.00  0.00    +0.000 A 
ATOM     25  C   UNL     1       6.926   4.079  11.748  0.00  0.00    +0.000 A 
ATOM     26  C   UNL     1       5.853   3.408  12.323  0.00  0.00    +0.000 A 
ATOM     27  C   UNL     1       5.550   3.605  13.673  0.00  0.00    +0.000 A 
ENDBRANCH  20  22
ENDBRANCH   2  16
TORSDOF 3
ENDMDL
MODEL 9
REMARK VINA RESULT:      -8.5      2.353      3.568
REMARK  Name = 
REMARK  3 active torsions:
REMARK  status: ('A' for Active; 'I' for Inactive)
REMARK    1  A    between atoms: C_2  and  C_15
REMARK    2  A    between atoms: N_3  and  C_4
REMARK    3  A    between atoms: C_19  and  C_20
REMARK                            x       y       z     vdW  Elec       q    Type
REMARK                         _______ _______ _______ _____ _____    ______ ____
ROOT
ATOM      1  O   UNL     1       2.346  10.046  17.481  0.00  0.00    +0.000 OA
ATOM      2  C   UNL     1       2.055   9.077  18.176  0.00  0.00    +0.000 C 
ATOM      3  N   UNL     1       1.097   9.048  19.176  0.00  0.00    +0.000 N 
ATOM      4  H   UNL     1       1.136   8.289  19.845  0.00  0.00    +0.000 HD
ENDROOT
BRANCH   3   5
ATOM      5  C   UNL     1       0.179  10.093  19.438  0.00  0.00    +0.000 A 
ATOM      6  C   UNL     1      -0.829  10.454  18.516  0.00  0.00    +0.000 A 
ATOM      7  C   UNL     1      -1.739  11.486  18.774  0.00  0.00    +0.000 A 
ATOM      8  C   UNL     1      -1.643  12.160  19.971  0.00  0.00    +0.000 A 
ATOM      9  C   UNL     1      -0.648  11.795  20.875  0.00  0.00    +0.000 A 
ATOM     10  C   UNL     1       0.262  10.770  20.657  0.00  0.00    +0.000 A 
ATOM     11  S   UNL     1      -0.751  12.822  22.284  0.00  0.00    +0.000 S 
ATOM     12  O   UNL     1       0.409  13.687  22.295  0.00  0.00    +0.000 OA
ATOM     13  O   UNL     1      -1.130  11.997  23.411  0.00  0.00    +0.000 OA
ATOM     14  C   UNL     1      -2.136  13.677  21.664  0.00  0.00    +0.000 C 
ATOM     15  C   UNL     1      -2.495  13.243  20.447  0.00  0.00    +0.000 C 
ENDBRANCH   3   5
BRANCH   2  16
ATOM     16  C   UNL     1       2.838   7.843  17.955  0.00  0.00    +0.000 A 
ATOM     17  C   UNL     1       3.980   7.941  17.162  0.00  0.00    +0.000 A 
ATOM     18  C   UNL     1       4.643   6.780  16.843  0.00  0.00    +0.000 A 
ATOM     19  N   UNL     1       4.235   5.560  17.246  0.00  0.00    +0.000 NA
ATOM     20  C   UNL     1       3.107   5.466  18.000  0.00  0.00    +0.000 A 
ATOM     21  C   UNL     1       2.389   6.595  18.387  0.00  0.00    +0.000 A 
BRANCH  20  22
ATOM     22  C   UNL     1       2.658   4.091  18.300  0.00  0.00    +0.000 A 
ATOM     23  C   UNL     1       1.320   3.786  18.607  0.00  0.00    +0.000 A 
ATOM     24  C   UNL     1       0.911   2.469  18.842  0.00  0.00    +0.000 A 
ATOM     25  C   UNL     1       1.834   1.428  18.781  0.00  0.00    +0.000 A 
ATOM     26  C   UNL     1       3.167   1.703  18.496  0.00  0.00    +0.000 A 
ATOM     27  C   UNL     1       3.572   3.020  18.261  0.00  0.00    +0.000 A 
ENDBRANCH  20  22
ENDBRANCH   2  16
TORSDOF 3
ENDMDL
