MODEL 1
REMARK VINA RESULT:      -6.9      0.000      0.000
REMARK  Name = 
REMARK  8 active torsions:
REMARK  status: ('A' for Active; 'I' for Inactive)
REMARK    1  A    between atoms: C_1  and  C_2
REMARK    2  A    between atoms: C_2  and  N_3
REMARK    3  A    between atoms: C_4  and  S_5
REMARK    4  A    between atoms: S_5  and  C_6
REMARK    5  A    between atoms: C_6  and  C_7
REMARK    6  A    between atoms: C_7  and  O_9
REMARK    7  A    between atoms: O_9  and  C_10
REMARK    8  A    between atoms: C_13  and  C_14
REMARK                            x       y       z     vdW  Elec       q    Type
REMARK                         _______ _______ _______ _____ _____    ______ ____
ROOT
ATOM      1  N   UNL     1       5.829   6.278  17.637  0.00  0.00    +0.000 N 
ATOM      2  C   UNL     1       7.113   6.724  17.905  0.00  0.00    +0.000 A 
ATOM      3  N   UNL     1       7.642   5.925  18.828  0.00  0.00    +0.000 NA
ATOM      4  N   UNL     1       6.695   4.937  19.134  0.00  0.00    +0.000 NA
ATOM      5  C   UNL     1       5.625   5.120  18.402  0.00  0.00    +0.000 A 
ENDROOT
BRANCH   5   6
ATOM      6  C   UNL     1       4.450   4.121  18.422  0.00  0.00    +0.000 A 
ATOM      7  C   UNL     1       4.511   2.975  17.652  0.00  0.00    +0.000 A 
ATOM      8  N   UNL     1       3.408   2.206  17.851  0.00  0.00    +0.000 N 
ATOM      9  C   UNL     1       2.580   2.848  18.741  0.00  0.00    +0.000 A 
ATOM     10  C   UNL     1       1.372   2.404  19.249  0.00  0.00    +0.000 A 
ATOM     11  C   UNL     1       0.981   2.978  20.425  0.00  0.00    +0.000 A 
ATOM     12  C   UNL     1       1.133   4.398  20.643  0.00  0.00    +0.000 A 
ATOM     13  C   UNL     1       2.340   4.878  20.106  0.00  0.00    +0.000 A 
ATOM     14  C   UNL     1       3.154   4.064  19.146  0.00  0.00    +0.000 A 
ATOM     15  H   UNL     1       3.250   1.329  17.369  0.00  0.00    +0.000 HD
ENDBRANCH   5   6
BRANCH   1  17
ATOM     16  C   UNL     1       3.616   7.462  17.546  0.00  0.00    +0.000 C 
ATOM     17  C   UNL     1       4.781   6.847  16.771  0.00  0.00    +0.000 C 
ENDBRANCH   1  17
BRANCH   2  18
ATOM     18  S   UNL     1       7.825   8.267  17.411  0.00  0.00    +0.000 S 
BRANCH  18  19
ATOM     19  C   UNL     1       8.698   9.101  18.827  0.00  0.00    +0.000 C 
BRANCH  19  20
ATOM     20  C   UNL     1       9.116  10.563  18.615  0.00  0.00    +0.000 C 
ATOM     21  O   UNL     1       8.631  11.351  17.809  0.00  0.00    +0.000 OA
BRANCH  20  22
ATOM     22  O   UNL     1      10.183  10.858  19.447  0.00  0.00    +0.000 OA
ATOM     23  C   UNL     1       9.848  11.481  20.700  0.00  0.00    +0.000 C 
ENDBRANCH  20  22
ENDBRANCH  19  20
ENDBRANCH  18  19
ENDBRANCH   2  18
TORSDOF 6
ENDMDL
MODEL 2
REMARK VINA RESULT:      -6.8      0.830      1.135
REMARK  Name = 
REMARK  8 active torsions:
REMARK  status: ('A' for Active; 'I' for Inactive)
REMARK    1  A    between atoms: C_1  and  C_2
REMARK    2  A    between atoms: C_2  and  N_3
REMARK    3  A    between atoms: C_4  and  S_5
REMARK    4  A    between atoms: S_5  and  C_6
REMARK    5  A    between atoms: C_6  and  C_7
REMARK    6  A    between atoms: C_7  and  O_9
REMARK    7  A    between atoms: O_9  and  C_10
REMARK    8  A    between atoms: C_13  and  C_14
REMARK                            x       y       z     vdW  Elec       q    Type
REMARK                         _______ _______ _______ _____ _____    ______ ____
ROOT
ATOM      1  N   UNL     1       6.090   6.413  17.807  0.00  0.00    +0.000 N 
ATOM      2  C   UNL     1       7.333   6.916  18.158  0.00  0.00    +0.000 A 
ATOM      3  N   UNL     1       7.821   6.160  19.137  0.00  0.00    +0.000 NA
ATOM      4  N   UNL     1       6.893   5.142  19.398  0.00  0.00    +0.000 NA
ATOM      5  C   UNL     1       5.875   5.265  18.584  0.00  0.00    +0.000 A 
ENDROOT
BRANCH   5   6
ATOM      6  C   UNL     1       4.740   4.221  18.543  0.00  0.00    +0.000 A 
ATOM      7  C   UNL     1       4.825   3.151  17.673  0.00  0.00    +0.000 A 
ATOM      8  N   UNL     1       3.759   2.322  17.829  0.00  0.00    +0.000 N 
ATOM      9  C   UNL     1       2.931   2.849  18.791  0.00  0.00    +0.000 A 
ATOM     10  C   UNL     1       1.755   2.312  19.286  0.00  0.00    +0.000 A 
ATOM     11  C   UNL     1       1.374   2.763  20.519  0.00  0.00    +0.000 A 
ATOM     12  C   UNL     1       1.477   4.163  20.858  0.00  0.00    +0.000 A 
ATOM     13  C   UNL     1       2.649   4.738  20.338  0.00  0.00    +0.000 A 
ATOM     14  C   UNL     1       3.468   4.046  19.290  0.00  0.00    +0.000 A 
ATOM     15  H   UNL     1       3.622   1.485  17.275  0.00  0.00    +0.000 HD
ENDBRANCH   5   6
BRANCH   1  17
ATOM     16  C   UNL     1       5.205   6.298  15.460  0.00  0.00    +0.000 C 
ATOM     17  C   UNL     1       5.089   6.919  16.852  0.00  0.00    +0.000 C 
ENDBRANCH   1  17
BRANCH   2  18
ATOM     18  S   UNL     1       8.020   8.475  17.678  0.00  0.00    +0.000 S 
BRANCH  18  19
ATOM     19  C   UNL     1       8.982   9.254  19.068  0.00  0.00    +0.000 C 
BRANCH  19  20
ATOM     20  C   UNL     1       9.329  10.741  18.917  0.00  0.00    +0.000 C 
ATOM     21  O   UNL     1       9.047  11.640  19.703  0.00  0.00    +0.000 OA
BRANCH  20  22
ATOM     22  O   UNL     1       9.977  10.939  17.709  0.00  0.00    +0.000 OA
ATOM     23  C   UNL     1      11.002  11.949  17.704  0.00  0.00    +0.000 C 
ENDBRANCH  20  22
ENDBRANCH  19  20
ENDBRANCH  18  19
ENDBRANCH   2  18
TORSDOF 6
ENDMDL
MODEL 3
REMARK VINA RESULT:      -6.7      4.662      7.473
REMARK  Name = 
REMARK  8 active torsions:
REMARK  status: ('A' for Active; 'I' for Inactive)
REMARK    1  A    between atoms: C_1  and  C_2
REMARK    2  A    between atoms: C_2  and  N_3
REMARK    3  A    between atoms: C_4  and  S_5
REMARK    4  A    between atoms: S_5  and  C_6
REMARK    5  A    between atoms: C_6  and  C_7
REMARK    6  A    between atoms: C_7  and  O_9
REMARK    7  A    between atoms: O_9  and  C_10
REMARK    8  A    between atoms: C_13  and  C_14
REMARK                            x       y       z     vdW  Elec       q    Type
REMARK                         _______ _______ _______ _____ _____    ______ ____
ROOT
ATOM      1  N   UNL     1       3.905   5.486  18.775  0.00  0.00    +0.000 N 
ATOM      2  C   UNL     1       2.778   6.112  19.283  0.00  0.00    +0.000 A 
ATOM      3  N   UNL     1       2.620   7.262  18.636  0.00  0.00    +0.000 NA
ATOM      4  N   UNL     1       3.642   7.363  17.681  0.00  0.00    +0.000 NA
ATOM      5  C   UNL     1       4.391   6.290  17.734  0.00  0.00    +0.000 A 
ENDROOT
BRANCH   5   6
ATOM      6  C   UNL     1       5.531   6.048  16.723  0.00  0.00    +0.000 A 
ATOM      7  C   UNL     1       6.789   6.561  16.974  0.00  0.00    +0.000 A 
ATOM      8  N   UNL     1       7.659   6.193  15.997  0.00  0.00    +0.000 N 
ATOM      9  C   UNL     1       6.979   5.449  15.062  0.00  0.00    +0.000 A 
ATOM     10  C   UNL     1       7.486   4.846  13.924  0.00  0.00    +0.000 A 
ATOM     11  C   UNL     1       6.746   3.812  13.425  0.00  0.00    +0.000 A 
ATOM     12  C   UNL     1       5.306   3.899  13.356  0.00  0.00    +0.000 A 
ATOM     13  C   UNL     1       4.770   4.537  14.487  0.00  0.00    +0.000 A 
ATOM     14  C   UNL     1       5.633   5.314  15.436  0.00  0.00    +0.000 A 
ATOM     15  H   UNL     1       8.631   6.479  15.983  0.00  0.00    +0.000 HD
ENDBRANCH   5   6
BRANCH   1  17
ATOM     16  C   UNL     1       4.362   3.079  18.223  0.00  0.00    +0.000 C 
ATOM     17  C   UNL     1       4.577   4.242  19.191  0.00  0.00    +0.000 C 
ENDBRANCH   1  17
BRANCH   2  18
ATOM     18  S   UNL     1       1.896   5.677  20.755  0.00  0.00    +0.000 S 
BRANCH  18  19
ATOM     19  C   UNL     1       0.834   4.171  20.494  0.00  0.00    +0.000 C 
BRANCH  19  20
ATOM     20  C   UNL     1       1.407   2.831  20.973  0.00  0.00    +0.000 C 
ATOM     21  O   UNL     1       1.652   2.515  22.133  0.00  0.00    +0.000 OA
BRANCH  20  22
ATOM     22  O   UNL     1       1.667   2.026  19.876  0.00  0.00    +0.000 OA
ATOM     23  C   UNL     1       0.831   2.245  18.726  0.00  0.00    +0.000 C 
ENDBRANCH  20  22
ENDBRANCH  19  20
ENDBRANCH  18  19
ENDBRANCH   2  18
TORSDOF 6
ENDMDL
MODEL 4
REMARK VINA RESULT:      -6.7      4.904      6.694
REMARK  Name = 
REMARK  8 active torsions:
REMARK  status: ('A' for Active; 'I' for Inactive)
REMARK    1  A    between atoms: C_1  and  C_2
REMARK    2  A    between atoms: C_2  and  N_3
REMARK    3  A    between atoms: C_4  and  S_5
REMARK    4  A    between atoms: S_5  and  C_6
REMARK    5  A    between atoms: C_6  and  C_7
REMARK    6  A    between atoms: C_7  and  O_9
REMARK    7  A    between atoms: O_9  and  C_10
REMARK    8  A    between atoms: C_13  and  C_14
REMARK                            x       y       z     vdW  Elec       q    Type
REMARK                         _______ _______ _______ _____ _____    ______ ____
ROOT
ATOM      1  N   UNL     1       4.564   4.916  16.970  0.00  0.00    +0.000 N 
ATOM      2  C   UNL     1       5.493   5.042  15.949  0.00  0.00    +0.000 A 
ATOM      3  N   UNL     1       5.579   6.330  15.629  0.00  0.00    +0.000 NA
ATOM      4  N   UNL     1       4.716   7.042  16.474  0.00  0.00    +0.000 NA
ATOM      5  C   UNL     1       4.135   6.210  17.300  0.00  0.00    +0.000 A 
ENDROOT
BRANCH   5   6
ATOM      6  C   UNL     1       3.216   6.706  18.436  0.00  0.00    +0.000 A 
ATOM      7  C   UNL     1       3.161   6.007  19.626  0.00  0.00    +0.000 A 
ATOM      8  N   UNL     1       2.341   6.633  20.511  0.00  0.00    +0.000 N 
ATOM      9  C   UNL     1       1.814   7.750  19.907  0.00  0.00    +0.000 A 
ATOM     10  C   UNL     1       0.963   8.692  20.457  0.00  0.00    +0.000 A 
ATOM     11  C   UNL     1       0.954   9.910  19.839  0.00  0.00    +0.000 A 
ATOM     12  C   UNL     1       0.959  10.010  18.398  0.00  0.00    +0.000 A 
ATOM     13  C   UNL     1       1.793   9.040  17.815  0.00  0.00    +0.000 A 
ATOM     14  C   UNL     1       2.306   7.869  18.597  0.00  0.00    +0.000 A 
ATOM     15  H   UNL     1       2.150   6.275  21.440  0.00  0.00    +0.000 HD
ENDBRANCH   5   6
BRANCH   1  17
ATOM     16  C   UNL     1       2.632   3.322  17.141  0.00  0.00    +0.000 C 
ATOM     17  C   UNL     1       4.026   3.713  17.629  0.00  0.00    +0.000 C 
ENDBRANCH   1  17
BRANCH   2  18
ATOM     18  S   UNL     1       6.187   3.735  14.979  0.00  0.00    +0.000 S 
BRANCH  18  19
ATOM     19  C   UNL     1       6.386   4.238  13.198  0.00  0.00    +0.000 C 
BRANCH  19  20
ATOM     20  C   UNL     1       5.797   3.291  12.144  0.00  0.00    +0.000 C 
ATOM     21  O   UNL     1       4.638   3.279  11.740  0.00  0.00    +0.000 OA
BRANCH  20  22
ATOM     22  O   UNL     1       6.771   2.392  11.741  0.00  0.00    +0.000 OA
ATOM     23  C   UNL     1       6.295   1.210  11.073  0.00  0.00    +0.000 C 
ENDBRANCH  20  22
ENDBRANCH  19  20
ENDBRANCH  18  19
ENDBRANCH   2  18
TORSDOF 6
ENDMDL
MODEL 5
REMARK VINA RESULT:      -6.6      4.318      6.231
REMARK  Name = 
REMARK  8 active torsions:
REMARK  status: ('A' for Active; 'I' for Inactive)
REMARK    1  A    between atoms: C_1  and  C_2
REMARK    2  A    between atoms: C_2  and  N_3
REMARK    3  A    between atoms: C_4  and  S_5
REMARK    4  A    between atoms: S_5  and  C_6
REMARK    5  A    between atoms: C_6  and  C_7
REMARK    6  A    between atoms: C_7  and  O_9
REMARK    7  A    between atoms: O_9  and  C_10
REMARK    8  A    between atoms: C_13  and  C_14
REMARK                            x       y       z     vdW  Elec       q    Type
REMARK                         _______ _______ _______ _____ _____    ______ ____
ROOT
ATOM      1  N   UNL     1       2.997   6.402  18.998  0.00  0.00    +0.000 N 
ATOM      2  C   UNL     1       4.068   5.951  18.242  0.00  0.00    +0.000 A 
ATOM      3  N   UNL     1       4.316   6.857  17.301  0.00  0.00    +0.000 NA
ATOM      4  N   UNL     1       3.411   7.914  17.472  0.00  0.00    +0.000 NA
ATOM      5  C   UNL     1       2.645   7.666  18.504  0.00  0.00    +0.000 A 
ENDROOT
BRANCH   5   6
ATOM      6  C   UNL     1       1.625   8.700  19.023  0.00  0.00    +0.000 A 
ATOM      7  C   UNL     1       0.946   9.502  18.125  0.00  0.00    +0.000 A 
ATOM      8  N   UNL     1       0.059  10.302  18.774  0.00  0.00    +0.000 N 
ATOM      9  C   UNL     1       0.158  10.061  20.124  0.00  0.00    +0.000 A 
ATOM     10  C   UNL     1      -0.585  10.629  21.145  0.00  0.00    +0.000 A 
ATOM     11  C   UNL     1      -0.630   9.915  22.309  0.00  0.00    +0.000 A 
ATOM     12  C   UNL     1       0.558   9.283  22.835  0.00  0.00    +0.000 A 
ATOM     13  C   UNL     1       1.345   8.727  21.812  0.00  0.00    +0.000 A 
ATOM     14  C   UNL     1       1.123   9.072  20.370  0.00  0.00    +0.000 A 
ATOM     15  H   UNL     1      -0.528  10.978  18.300  0.00  0.00    +0.000 HD
ENDBRANCH   5   6
BRANCH   1  17
ATOM     16  C   UNL     1       1.462   4.527  19.658  0.00  0.00    +0.000 C 
ATOM     17  C   UNL     1       2.264   5.751  20.099  0.00  0.00    +0.000 C 
ENDBRANCH   1  17
BRANCH   2  18
ATOM     18  S   UNL     1       4.770   4.327  18.259  0.00  0.00    +0.000 S 
BRANCH  18  19
ATOM     19  C   UNL     1       5.728   3.981  16.701  0.00  0.00    +0.000 C 
BRANCH  19  20
ATOM     20  C   UNL     1       7.183   4.469  16.663  0.00  0.00    +0.000 C 
ATOM     21  O   UNL     1       7.969   4.492  17.605  0.00  0.00    +0.000 OA
BRANCH  20  22
ATOM     22  O   UNL     1       7.473   4.943  15.394  0.00  0.00    +0.000 OA
ATOM     23  C   UNL     1       6.595   4.501  14.344  0.00  0.00    +0.000 C 
ENDBRANCH  20  22
ENDBRANCH  19  20
ENDBRANCH  18  19
ENDBRANCH   2  18
TORSDOF 6
ENDMDL
MODEL 6
REMARK VINA RESULT:      -6.6      4.900      7.462
REMARK  Name = 
REMARK  8 active torsions:
REMARK  status: ('A' for Active; 'I' for Inactive)
REMARK    1  A    between atoms: C_1  and  C_2
REMARK    2  A    between atoms: C_2  and  N_3
REMARK    3  A    between atoms: C_4  and  S_5
REMARK    4  A    between atoms: S_5  and  C_6
REMARK    5  A    between atoms: C_6  and  C_7
REMARK    6  A    between atoms: C_7  and  O_9
REMARK    7  A    between atoms: O_9  and  C_10
REMARK    8  A    between atoms: C_13  and  C_14
REMARK                            x       y       z     vdW  Elec       q    Type
REMARK                         _______ _______ _______ _____ _____    ______ ____
ROOT
ATOM      1  N   UNL     1       4.472   5.421  17.893  0.00  0.00    +0.000 N 
ATOM      2  C   UNL     1       3.794   4.686  18.853  0.00  0.00    +0.000 A 
ATOM      3  N   UNL     1       3.808   3.410  18.479  0.00  0.00    +0.000 NA
ATOM      4  N   UNL     1       4.528   3.321  17.279  0.00  0.00    +0.000 NA
ATOM      5  C   UNL     1       4.958   4.511  16.942  0.00  0.00    +0.000 A 
ENDROOT
BRANCH   5   6
ATOM      6  C   UNL     1       5.886   4.723  15.729  0.00  0.00    +0.000 A 
ATOM      7  C   UNL     1       7.060   5.435  15.882  0.00  0.00    +0.000 A 
ATOM      8  N   UNL     1       7.758   5.463  14.715  0.00  0.00    +0.000 N 
ATOM      9  C   UNL     1       7.038   4.788  13.757  0.00  0.00    +0.000 A 
ATOM     10  C   UNL     1       7.394   4.544  12.443  0.00  0.00    +0.000 A 
ATOM     11  C   UNL     1       6.757   3.493  11.845  0.00  0.00    +0.000 A 
ATOM     12  C   UNL     1       5.342   3.279  12.037  0.00  0.00    +0.000 A 
ATOM     13  C   UNL     1       4.951   3.553  13.359  0.00  0.00    +0.000 A 
ATOM     14  C   UNL     1       5.844   4.296  14.307  0.00  0.00    +0.000 A 
ATOM     15  H   UNL     1       8.641   5.948  14.608  0.00  0.00    +0.000 HD
ENDBRANCH   5   6
BRANCH   1  17
ATOM     16  C   UNL     1       3.384   7.649  17.496  0.00  0.00    +0.000 C 
ATOM     17  C   UNL     1       4.674   6.875  17.769  0.00  0.00    +0.000 C 
ENDBRANCH   1  17
BRANCH   2  18
ATOM     18  S   UNL     1       2.778   5.323  20.154  0.00  0.00    +0.000 S 
BRANCH  18  19
ATOM     19  C   UNL     1       1.045   4.649  20.059  0.00  0.00    +0.000 C 
BRANCH  19  20
ATOM     20  C   UNL     1       0.899   3.121  20.054  0.00  0.00    +0.000 C 
ATOM     21  O   UNL     1       0.600   2.419  19.092  0.00  0.00    +0.000 OA
BRANCH  20  22
ATOM     22  O   UNL     1       1.105   2.638  21.336  0.00  0.00    +0.000 OA
ATOM     23  C   UNL     1       2.468   2.338  21.682  0.00  0.00    +0.000 C 
ENDBRANCH  20  22
ENDBRANCH  19  20
ENDBRANCH  18  19
ENDBRANCH   2  18
TORSDOF 6
ENDMDL
MODEL 7
REMARK VINA RESULT:      -6.5      5.256      6.955
REMARK  Name = 
REMARK  8 active torsions:
REMARK  status: ('A' for Active; 'I' for Inactive)
REMARK    1  A    between atoms: C_1  and  C_2
REMARK    2  A    between atoms: C_2  and  N_3
REMARK    3  A    between atoms: C_4  and  S_5
REMARK    4  A    between atoms: S_5  and  C_6
REMARK    5  A    between atoms: C_6  and  C_7
REMARK    6  A    between atoms: C_7  and  O_9
REMARK    7  A    between atoms: O_9  and  C_10
REMARK    8  A    between atoms: C_13  and  C_14
REMARK                            x       y       z     vdW  Elec       q    Type
REMARK                         _______ _______ _______ _____ _____    ______ ____
ROOT
ATOM      1  N   UNL     1       1.673   8.583  19.536  0.00  0.00    +0.000 N 
ATOM      2  C   UNL     1       1.270   9.671  18.775  0.00  0.00    +0.000 A 
ATOM      3  N   UNL     1       1.758   9.517  17.548  0.00  0.00    +0.000 NA
ATOM      4  N   UNL     1       2.459   8.303  17.513  0.00  0.00    +0.000 NA
ATOM      5  C   UNL     1       2.382   7.723  18.684  0.00  0.00    +0.000 A 
ENDROOT
BRANCH   5   6
ATOM      6  C   UNL     1       2.952   6.311  18.928  0.00  0.00    +0.000 A 
ATOM      7  C   UNL     1       4.192   5.977  18.419  0.00  0.00    +0.000 A 
ATOM      8  N   UNL     1       4.536   4.714  18.788  0.00  0.00    +0.000 N 
ATOM      9  C   UNL     1       3.509   4.179  19.530  0.00  0.00    +0.000 A 
ATOM     10  C   UNL     1       3.456   2.935  20.133  0.00  0.00    +0.000 A 
ATOM     11  C   UNL     1       2.569   2.818  21.165  0.00  0.00    +0.000 A 
ATOM     12  C   UNL     1       1.248   3.396  21.075  0.00  0.00    +0.000 A 
ATOM     13  C   UNL     1       1.273   4.648  20.436  0.00  0.00    +0.000 A 
ATOM     14  C   UNL     1       2.470   5.113  19.662  0.00  0.00    +0.000 A 
ATOM     15  H   UNL     1       5.401   4.270  18.505  0.00  0.00    +0.000 HD
ENDBRANCH   5   6
BRANCH   1  17
ATOM     16  C   UNL     1       0.019   8.209  21.388  0.00  0.00    +0.000 C 
ATOM     17  C   UNL     1       1.487   8.299  20.969  0.00  0.00    +0.000 C 
ENDBRANCH   1  17
BRANCH   2  18
ATOM     18  S   UNL     1       0.551  11.174  19.372  0.00  0.00    +0.000 S 
BRANCH  18  19
ATOM     19  C   UNL     1      -1.305  11.063  19.437  0.00  0.00    +0.000 C 
BRANCH  19  20
ATOM     20  C   UNL     1      -2.053  11.220  18.106  0.00  0.00    +0.000 C 
ATOM     21  O   UNL     1      -1.801  12.029  17.218  0.00  0.00    +0.000 OA
BRANCH  20  22
ATOM     22  O   UNL     1      -3.115  10.331  18.071  0.00  0.00    +0.000 OA
ATOM     23  C   UNL     1      -4.374  10.875  17.638  0.00  0.00    +0.000 C 
ENDBRANCH  20  22
ENDBRANCH  19  20
ENDBRANCH  18  19
ENDBRANCH   2  18
TORSDOF 6
ENDMDL
MODEL 8
REMARK VINA RESULT:      -6.5      5.404      6.958
REMARK  Name = 
REMARK  8 active torsions:
REMARK  status: ('A' for Active; 'I' for Inactive)
REMARK    1  A    between atoms: C_1  and  C_2
REMARK    2  A    between atoms: C_2  and  N_3
REMARK    3  A    between atoms: C_4  and  S_5
REMARK    4  A    between atoms: S_5  and  C_6
REMARK    5  A    between atoms: C_6  and  C_7
REMARK    6  A    between atoms: C_7  and  O_9
REMARK    7  A    between atoms: O_9  and  C_10
REMARK    8  A    between atoms: C_13  and  C_14
REMARK                            x       y       z     vdW  Elec       q    Type
REMARK                         _______ _______ _______ _____ _____    ______ ____
ROOT
ATOM      1  N   UNL     1       1.717   8.448  19.567  0.00  0.00    +0.000 N 
ATOM      2  C   UNL     1       1.367   9.519  18.759  0.00  0.00    +0.000 A 
ATOM      3  N   UNL     1       1.929   9.335  17.568  0.00  0.00    +0.000 NA
ATOM      4  N   UNL     1       2.624   8.118  17.603  0.00  0.00    +0.000 NA
ATOM      5  C   UNL     1       2.472   7.566  18.780  0.00  0.00    +0.000 A 
ENDROOT
BRANCH   5   6
ATOM      6  C   UNL     1       3.020   6.158  19.092  0.00  0.00    +0.000 A 
ATOM      7  C   UNL     1       4.311   5.830  18.726  0.00  0.00    +0.000 A 
ATOM      8  N   UNL     1       4.619   4.570  19.135  0.00  0.00    +0.000 N 
ATOM      9  C   UNL     1       3.518   4.031  19.758  0.00  0.00    +0.000 A 
ATOM     10  C   UNL     1       3.404   2.788  20.355  0.00  0.00    +0.000 A 
ATOM     11  C   UNL     1       2.407   2.668  21.281  0.00  0.00    +0.000 A 
ATOM     12  C   UNL     1       1.101   3.237  21.041  0.00  0.00    +0.000 A 
ATOM     13  C   UNL     1       1.191   4.488  20.405  0.00  0.00    +0.000 A 
ATOM     14  C   UNL     1       2.465   4.959  19.769  0.00  0.00    +0.000 A 
ATOM     15  H   UNL     1       5.513   4.130  18.953  0.00  0.00    +0.000 HD
ENDBRANCH   5   6
BRANCH   1  17
ATOM     16  C   UNL     1      -0.042   8.280  21.351  0.00  0.00    +0.000 C 
ATOM     17  C   UNL     1       1.441   8.197  20.992  0.00  0.00    +0.000 C 
ENDBRANCH   1  17
BRANCH   2  18
ATOM     18  S   UNL     1       0.620  11.038  19.275  0.00  0.00    +0.000 S 
BRANCH  18  19
ATOM     19  C   UNL     1      -1.105  11.215  18.599  0.00  0.00    +0.000 C 
BRANCH  19  20
ATOM     20  C   UNL     1      -2.156  11.819  19.541  0.00  0.00    +0.000 C 
ATOM     21  O   UNL     1      -1.977  12.176  20.701  0.00  0.00    +0.000 OA
BRANCH  20  22
ATOM     22  O   UNL     1      -3.381  11.855  18.895  0.00  0.00    +0.000 OA
ATOM     23  C   UNL     1      -4.456  12.471  19.624  0.00  0.00    +0.000 C 
ENDBRANCH  20  22
ENDBRANCH  19  20
ENDBRANCH  18  19
ENDBRANCH   2  18
TORSDOF 6
ENDMDL
MODEL 9
REMARK VINA RESULT:      -6.5      4.948      7.429
REMARK  Name = 
REMARK  8 active torsions:
REMARK  status: ('A' for Active; 'I' for Inactive)
REMARK    1  A    between atoms: C_1  and  C_2
REMARK    2  A    between atoms: C_2  and  N_3
REMARK    3  A    between atoms: C_4  and  S_5
REMARK    4  A    between atoms: S_5  and  C_6
REMARK    5  A    between atoms: C_6  and  C_7
REMARK    6  A    between atoms: C_7  and  O_9
REMARK    7  A    between atoms: O_9  and  C_10
REMARK    8  A    between atoms: C_13  and  C_14
REMARK                            x       y       z     vdW  Elec       q    Type
REMARK                         _______ _______ _______ _____ _____    ______ ____
ROOT
ATOM      1  N   UNL     1       3.900   5.260  17.675  0.00  0.00    +0.000 N 
ATOM      2  C   UNL     1       2.966   4.506  18.369  0.00  0.00    +0.000 A 
ATOM      3  N   UNL     1       2.826   3.344  17.739  0.00  0.00    +0.000 NA
ATOM      4  N   UNL     1       3.701   3.341  16.643  0.00  0.00    +0.000 NA
ATOM      5  C   UNL     1       4.371   4.465  16.620  0.00  0.00    +0.000 A 
ENDROOT
BRANCH   5   6
ATOM      6  C   UNL     1       5.501   4.713  15.600  0.00  0.00    +0.000 A 
ATOM      7  C   UNL     1       6.623   5.424  15.981  0.00  0.00    +0.000 A 
ATOM      8  N   UNL     1       7.519   5.486  14.960  0.00  0.00    +0.000 N 
ATOM      9  C   UNL     1       6.989   4.836  13.871  0.00  0.00    +0.000 A 
ATOM     10  C   UNL     1       7.578   4.630  12.635  0.00  0.00    +0.000 A 
ATOM     11  C   UNL     1       7.067   3.594  11.905  0.00  0.00    +0.000 A 
ATOM     12  C   UNL     1       5.642   3.372  11.832  0.00  0.00    +0.000 A 
ATOM     13  C   UNL     1       5.017   3.607  13.069  0.00  0.00    +0.000 A 
ATOM     14  C   UNL     1       5.719   4.326  14.183  0.00  0.00    +0.000 A 
ATOM     15  H   UNL     1       8.404   5.976  15.027  0.00  0.00    +0.000 HD
ENDBRANCH   5   6
BRANCH   1  17
ATOM     16  C   UNL     1       3.277   7.692  17.617  0.00  0.00    +0.000 C 
ATOM     17  C   UNL     1       4.358   6.645  17.886  0.00  0.00    +0.000 C 
ENDBRANCH   1  17
BRANCH   2  18
ATOM     18  S   UNL     1       1.878   5.077  19.643  0.00  0.00    +0.000 S 
BRANCH  18  19
ATOM     19  C   UNL     1       2.355   4.390  21.306  0.00  0.00    +0.000 C 
BRANCH  19  20
ATOM     20  C   UNL     1       2.036   2.910  21.558  0.00  0.00    +0.000 C 
ATOM     21  O   UNL     1       1.285   2.462  22.419  0.00  0.00    +0.000 OA
BRANCH  20  22
ATOM     22  O   UNL     1       2.779   2.128  20.689  0.00  0.00    +0.000 OA
ATOM     23  C   UNL     1       4.207   2.276  20.777  0.00  0.00    +0.000 C 
ENDBRANCH  20  22
ENDBRANCH  19  20
ENDBRANCH  18  19
ENDBRANCH   2  18
TORSDOF 6
ENDMDL
