MODEL 1
REMARK VINA RESULT:      -7.9      0.000      0.000
REMARK  Name = 
REMARK  7 active torsions:
REMARK  status: ('A' for Active; 'I' for Inactive)
REMARK    1  A    between atoms: C_1  and  C_2
REMARK    2  A    between atoms: C_2  and  C_3
REMARK    3  A    between atoms: C_3  and  C_4
REMARK    4  A    between atoms: C_7  and  C_8
REMARK    5  A    between atoms: N_10  and  C_11
REMARK    6  A    between atoms: C_11  and  C_12
REMARK    7  A    between atoms: C_15  and  C_16
REMARK                            x       y       z     vdW  Elec       q    Type
REMARK                         _______ _______ _______ _____ _____    ______ ____
ROOT
ATOM      1  C   UNL     1       6.889   5.345  16.022  0.00  0.00    +0.000 C 
ATOM      2  C   UNL     1       5.472   5.608  16.582  0.00  0.00    +0.000 C 
ATOM      3  N   UNL     1       5.477   6.142  17.968  0.00  0.00    +0.000 NA
ATOM      4  C   UNL     1       6.333   7.351  17.963  0.00  0.00    +0.000 C 
ATOM      5  C   UNL     1       7.727   7.138  17.336  0.00  0.00    +0.000 C 
ATOM      6  O   UNL     1       7.661   6.562  16.021  0.00  0.00    +0.000 OA
ENDROOT
BRANCH   1  10
ATOM      7  C   UNL     1       6.420   3.858  12.808  0.00  0.00    +0.000 A 
ATOM      8  N   UNL     1       7.458   4.641  12.486  0.00  0.00    +0.000 NA
ATOM      9  N   UNL     1       7.697   5.262  13.652  0.00  0.00    +0.000 N 
ATOM     10  C   UNL     1       6.831   4.850  14.622  0.00  0.00    +0.000 A 
ATOM     11  N   UNL     1       6.019   3.950  14.114  0.00  0.00    +0.000 NA
ATOM     12  H   UNL     1       8.437   5.949  13.725  0.00  0.00    +0.000 HD
BRANCH   7  13
ATOM     13  C   UNL     1       5.732   2.973  11.838  0.00  0.00    +0.000 C 
BRANCH  13  15
ATOM     14  C   UNL     1       3.706   3.525  10.440  0.00  0.00    +0.000 C 
ATOM     15  C   UNL     1       4.221   3.213  11.834  0.00  0.00    +0.000 C 
ENDBRANCH  13  15
ENDBRANCH   7  13
ENDBRANCH   1  10
BRANCH   3  16
ATOM     16  C   UNL     1       5.963   5.153  18.959  0.00  0.00    +0.000 C 
BRANCH  16  17
ATOM     17  C   UNL     1       4.978   4.108  19.372  0.00  0.00    +0.000 A 
ATOM     18  N   UNL     1       5.169   2.810  19.487  0.00  0.00    +0.000 NA
ATOM     19  N   UNL     1       3.993   2.291  19.979  0.00  0.00    +0.000 NA
ATOM     20  C   UNL     1       3.158   3.303  20.116  0.00  0.00    +0.000 A 
ATOM     21  O   UNL     1       3.718   4.499  19.741  0.00  0.00    +0.000 OA
BRANCH  20  22
ATOM     22  C   UNL     1       1.753   3.126  20.666  0.00  0.00    +0.000 C 
ATOM     23  C   UNL     1       0.681   4.124  20.278  0.00  0.00    +0.000 C 
ATOM     24  C   UNL     1       0.633   2.739  19.726  0.00  0.00    +0.000 C 
ENDBRANCH  20  22
ENDBRANCH  16  17
ENDBRANCH   3  16
TORSDOF 6
ENDMDL
MODEL 2
REMARK VINA RESULT:      -7.8      0.929      1.247
REMARK  Name = 
REMARK  7 active torsions:
REMARK  status: ('A' for Active; 'I' for Inactive)
REMARK    1  A    between atoms: C_1  and  C_2
REMARK    2  A    between atoms: C_2  and  C_3
REMARK    3  A    between atoms: C_3  and  C_4
REMARK    4  A    between atoms: C_7  and  C_8
REMARK    5  A    between atoms: N_10  and  C_11
REMARK    6  A    between atoms: C_11  and  C_12
REMARK    7  A    between atoms: C_15  and  C_16
REMARK                            x       y       z     vdW  Elec       q    Type
REMARK                         _______ _______ _______ _____ _____    ______ ____
ROOT
ATOM      1  C   UNL     1       6.708   4.914  15.793  0.00  0.00    +0.000 C 
ATOM      2  C   UNL     1       5.281   5.039  16.378  0.00  0.00    +0.000 C 
ATOM      3  N   UNL     1       5.263   5.511  17.787  0.00  0.00    +0.000 NA
ATOM      4  C   UNL     1       6.021   6.784  17.826  0.00  0.00    +0.000 C 
ATOM      5  C   UNL     1       7.419   6.710  17.177  0.00  0.00    +0.000 C 
ATOM      6  O   UNL     1       7.380   6.188  15.838  0.00  0.00    +0.000 OA
ENDROOT
BRANCH   1  10
ATOM      7  C   UNL     1       6.341   3.515  12.527  0.00  0.00    +0.000 A 
ATOM      8  N   UNL     1       7.241   4.455  12.212  0.00  0.00    +0.000 NA
ATOM      9  N   UNL     1       7.431   5.054  13.399  0.00  0.00    +0.000 N 
ATOM     10  C   UNL     1       6.670   4.477  14.374  0.00  0.00    +0.000 A 
ATOM     11  N   UNL     1       5.979   3.490  13.848  0.00  0.00    +0.000 NA
ATOM     12  H   UNL     1       8.065   5.838  13.483  0.00  0.00    +0.000 HD
BRANCH   7  13
ATOM     13  C   UNL     1       5.753   2.581  11.536  0.00  0.00    +0.000 C 
BRANCH  13  15
ATOM     14  C   UNL     1       6.188   0.112  11.269  0.00  0.00    +0.000 C 
ATOM     15  C   UNL     1       6.758   1.510  11.111  0.00  0.00    +0.000 C 
ENDBRANCH  13  15
ENDBRANCH   7  13
ENDBRANCH   1  10
BRANCH   3  16
ATOM     16  C   UNL     1       5.839   4.522  18.728  0.00  0.00    +0.000 C 
BRANCH  16  17
ATOM     17  C   UNL     1       4.865   3.579  19.356  0.00  0.00    +0.000 A 
ATOM     18  N   UNL     1       5.120   2.545  20.132  0.00  0.00    +0.000 NA
ATOM     19  N   UNL     1       3.897   2.051  20.526  0.00  0.00    +0.000 NA
ATOM     20  C   UNL     1       2.979   2.804  19.953  0.00  0.00    +0.000 A 
ATOM     21  O   UNL     1       3.525   3.802  19.183  0.00  0.00    +0.000 OA
BRANCH  20  22
ATOM     22  C   UNL     1       1.493   2.583  20.175  0.00  0.00    +0.000 C 
ATOM     23  C   UNL     1       0.567   3.782  20.206  0.00  0.00    +0.000 C 
ATOM     24  C   UNL     1       0.526   2.851  19.042  0.00  0.00    +0.000 C 
ENDBRANCH  20  22
ENDBRANCH  16  17
ENDBRANCH   3  16
TORSDOF 6
ENDMDL
MODEL 3
REMARK VINA RESULT:      -7.8      2.617      5.599
REMARK  Name = 
REMARK  7 active torsions:
REMARK  status: ('A' for Active; 'I' for Inactive)
REMARK    1  A    between atoms: C_1  and  C_2
REMARK    2  A    between atoms: C_2  and  C_3
REMARK    3  A    between atoms: C_3  and  C_4
REMARK    4  A    between atoms: C_7  and  C_8
REMARK    5  A    between atoms: N_10  and  C_11
REMARK    6  A    between atoms: C_11  and  C_12
REMARK    7  A    between atoms: C_15  and  C_16
REMARK                            x       y       z     vdW  Elec       q    Type
REMARK                         _______ _______ _______ _____ _____    ______ ____
ROOT
ATOM      1  C   UNL     1       6.424   6.124  16.665  0.00  0.00    +0.000 C 
ATOM      2  C   UNL     1       6.267   4.804  17.456  0.00  0.00    +0.000 C 
ATOM      3  N   UNL     1       5.480   3.774  16.730  0.00  0.00    +0.000 NA
ATOM      4  C   UNL     1       6.126   3.586  15.410  0.00  0.00    +0.000 C 
ATOM      5  C   UNL     1       6.369   4.897  14.632  0.00  0.00    +0.000 C 
ATOM      6  O   UNL     1       7.080   5.877  15.405  0.00  0.00    +0.000 OA
ENDROOT
BRANCH   1  10
ATOM      7  C   UNL     1       8.318   8.780  18.120  0.00  0.00    +0.000 A 
ATOM      8  N   UNL     1       8.639   7.832  19.010  0.00  0.00    +0.000 NA
ATOM      9  N   UNL     1       7.946   6.780  18.543  0.00  0.00    +0.000 N 
ATOM     10  C   UNL     1       7.249   7.105  17.416  0.00  0.00    +0.000 A 
ATOM     11  N   UNL     1       7.479   8.365  17.120  0.00  0.00    +0.000 NA
ATOM     12  H   UNL     1       7.974   5.892  19.026  0.00  0.00    +0.000 HD
BRANCH   7  13
ATOM     13  C   UNL     1       8.803  10.179  18.206  0.00  0.00    +0.000 C 
BRANCH  13  15
ATOM     14  C   UNL     1      10.669  11.383  19.401  0.00  0.00    +0.000 C 
ATOM     15  C   UNL     1       9.474  10.458  19.551  0.00  0.00    +0.000 C 
ENDBRANCH  13  15
ENDBRANCH   7  13
ENDBRANCH   1  10
BRANCH   3  16
ATOM     16  C   UNL     1       4.055   4.149  16.574  0.00  0.00    +0.000 C 
BRANCH  16  17
ATOM     17  C   UNL     1       3.363   4.607  17.817  0.00  0.00    +0.000 A 
ATOM     18  N   UNL     1       2.726   5.741  18.022  0.00  0.00    +0.000 NA
ATOM     19  N   UNL     1       2.189   5.656  19.286  0.00  0.00    +0.000 NA
ATOM     20  C   UNL     1       2.546   4.484  19.775  0.00  0.00    +0.000 A 
ATOM     21  O   UNL     1       3.305   3.758  18.890  0.00  0.00    +0.000 OA
BRANCH  20  22
ATOM     22  C   UNL     1       2.114   4.013  21.152  0.00  0.00    +0.000 C 
ATOM     23  C   UNL     1       1.150   2.849  21.262  0.00  0.00    +0.000 C 
ATOM     24  C   UNL     1       2.577   2.662  21.652  0.00  0.00    +0.000 C 
ENDBRANCH  20  22
ENDBRANCH  16  17
ENDBRANCH   3  16
TORSDOF 6
ENDMDL
MODEL 4
REMARK VINA RESULT:      -7.7      3.374      7.663
REMARK  Name = 
REMARK  7 active torsions:
REMARK  status: ('A' for Active; 'I' for Inactive)
REMARK    1  A    between atoms: C_1  and  C_2
REMARK    2  A    between atoms: C_2  and  C_3
REMARK    3  A    between atoms: C_3  and  C_4
REMARK    4  A    between atoms: C_7  and  C_8
REMARK    5  A    between atoms: N_10  and  C_11
REMARK    6  A    between atoms: C_11  and  C_12
REMARK    7  A    between atoms: C_15  and  C_16
REMARK                            x       y       z     vdW  Elec       q    Type
REMARK                         _______ _______ _______ _____ _____    ______ ____
ROOT
ATOM      1  C   UNL     1       3.669   5.622  18.982  0.00  0.00    +0.000 C 
ATOM      2  C   UNL     1       3.465   5.091  17.543  0.00  0.00    +0.000 C 
ATOM      3  N   UNL     1       4.297   3.900  17.234  0.00  0.00    +0.000 NA
ATOM      4  C   UNL     1       4.007   2.886  18.275  0.00  0.00    +0.000 C 
ATOM      5  C   UNL     1       4.125   3.411  19.721  0.00  0.00    +0.000 C 
ATOM      6  O   UNL     1       3.347   4.599  19.944  0.00  0.00    +0.000 OA
ENDROOT
BRANCH   1  10
ATOM      7  C   UNL     1       1.657   8.566  19.205  0.00  0.00    +0.000 A 
ATOM      8  N   UNL     1       1.508   8.158  20.472  0.00  0.00    +0.000 NA
ATOM      9  N   UNL     1       2.231   7.026  20.477  0.00  0.00    +0.000 N 
ATOM     10  C   UNL     1       2.787   6.787  19.254  0.00  0.00    +0.000 A 
ATOM     11  N   UNL     1       2.448   7.756  18.434  0.00  0.00    +0.000 NA
ATOM     12  H   UNL     1       2.299   6.465  21.316  0.00  0.00    +0.000 HD
BRANCH   7  13
ATOM     13  C   UNL     1       1.008   9.781  18.655  0.00  0.00    +0.000 C 
BRANCH  13  15
ATOM     14  C   UNL     1      -1.031  11.261  18.750  0.00  0.00    +0.000 C 
ATOM     15  C   UNL     1      -0.279  10.118  19.408  0.00  0.00    +0.000 C 
ENDBRANCH  13  15
ENDBRANCH   7  13
ENDBRANCH   1  10
BRANCH   3  16
ATOM     16  C   UNL     1       5.745   4.212  17.187  0.00  0.00    +0.000 C 
BRANCH  16  17
ATOM     17  C   UNL     1       6.302   4.514  15.833  0.00  0.00    +0.000 A 
ATOM     18  N   UNL     1       7.330   5.280  15.529  0.00  0.00    +0.000 NA
ATOM     19  N   UNL     1       7.501   5.169  14.168  0.00  0.00    +0.000 NA
ATOM     20  C   UNL     1       6.558   4.357  13.730  0.00  0.00    +0.000 A 
ATOM     21  O   UNL     1       5.749   3.902  14.741  0.00  0.00    +0.000 OA
BRANCH  20  22
ATOM     22  C   UNL     1       6.440   3.966  12.267  0.00  0.00    +0.000 C 
ATOM     23  C   UNL     1       6.564   2.505  11.885  0.00  0.00    +0.000 C 
ATOM     24  C   UNL     1       5.235   3.176  11.807  0.00  0.00    +0.000 C 
ENDBRANCH  20  22
ENDBRANCH  16  17
ENDBRANCH   3  16
TORSDOF 6
ENDMDL
MODEL 5
REMARK VINA RESULT:      -7.7      3.083      7.974
REMARK  Name = 
REMARK  7 active torsions:
REMARK  status: ('A' for Active; 'I' for Inactive)
REMARK    1  A    between atoms: C_1  and  C_2
REMARK    2  A    between atoms: C_2  and  C_3
REMARK    3  A    between atoms: C_3  and  C_4
REMARK    4  A    between atoms: C_7  and  C_8
REMARK    5  A    between atoms: N_10  and  C_11
REMARK    6  A    between atoms: C_11  and  C_12
REMARK    7  A    between atoms: C_15  and  C_16
REMARK                            x       y       z     vdW  Elec       q    Type
REMARK                         _______ _______ _______ _____ _____    ______ ____
ROOT
ATOM      1  C   UNL     1       3.638   5.757  18.996  0.00  0.00    +0.000 C 
ATOM      2  C   UNL     1       3.450   5.229  17.554  0.00  0.00    +0.000 C 
ATOM      3  N   UNL     1       4.293   4.046  17.247  0.00  0.00    +0.000 NA
ATOM      4  C   UNL     1       4.001   3.026  18.281  0.00  0.00    +0.000 C 
ATOM      5  C   UNL     1       4.103   3.546  19.731  0.00  0.00    +0.000 C 
ATOM      6  O   UNL     1       3.315   4.727  19.952  0.00  0.00    +0.000 OA
ENDROOT
BRANCH   1  10
ATOM      7  C   UNL     1       1.349   8.302  20.019  0.00  0.00    +0.000 A 
ATOM      8  N   UNL     1       1.714   8.855  18.855  0.00  0.00    +0.000 NA
ATOM      9  N   UNL     1       2.603   7.958  18.398  0.00  0.00    +0.000 N 
ATOM     10  C   UNL     1       2.746   6.914  19.265  0.00  0.00    +0.000 A 
ATOM     11  N   UNL     1       1.951   7.103  20.295  0.00  0.00    +0.000 NA
ATOM     12  H   UNL     1       3.079   8.110  17.518  0.00  0.00    +0.000 HD
BRANCH   7  13
ATOM     13  C   UNL     1       0.389   8.931  20.958  0.00  0.00    +0.000 C 
BRANCH  13  15
ATOM     14  C   UNL     1      -0.008   9.537  23.374  0.00  0.00    +0.000 C 
ATOM     15  C   UNL     1       1.032   9.200  22.320  0.00  0.00    +0.000 C 
ENDBRANCH  13  15
ENDBRANCH   7  13
ENDBRANCH   1  10
BRANCH   3  16
ATOM     16  C   UNL     1       5.740   4.369  17.214  0.00  0.00    +0.000 C 
BRANCH  16  17
ATOM     17  C   UNL     1       6.318   4.627  15.861  0.00  0.00    +0.000 A 
ATOM     18  N   UNL     1       7.381   5.341  15.554  0.00  0.00    +0.000 NA
ATOM     19  N   UNL     1       7.555   5.205  14.196  0.00  0.00    +0.000 NA
ATOM     20  C   UNL     1       6.579   4.432  13.761  0.00  0.00    +0.000 A 
ATOM     21  O   UNL     1       5.743   4.027  14.773  0.00  0.00    +0.000 OA
BRANCH  20  22
ATOM     22  C   UNL     1       6.452   4.028  12.303  0.00  0.00    +0.000 C 
ATOM     23  C   UNL     1       6.600   2.567  11.929  0.00  0.00    +0.000 C 
ATOM     24  C   UNL     1       5.257   3.211  11.862  0.00  0.00    +0.000 C 
ENDBRANCH  20  22
ENDBRANCH  16  17
ENDBRANCH   3  16
TORSDOF 6
ENDMDL
MODEL 6
REMARK VINA RESULT:      -7.6      0.963      1.085
REMARK  Name = 
REMARK  7 active torsions:
REMARK  status: ('A' for Active; 'I' for Inactive)
REMARK    1  A    between atoms: C_1  and  C_2
REMARK    2  A    between atoms: C_2  and  C_3
REMARK    3  A    between atoms: C_3  and  C_4
REMARK    4  A    between atoms: C_7  and  C_8
REMARK    5  A    between atoms: N_10  and  C_11
REMARK    6  A    between atoms: C_11  and  C_12
REMARK    7  A    between atoms: C_15  and  C_16
REMARK                            x       y       z     vdW  Elec       q    Type
REMARK                         _______ _______ _______ _____ _____    ______ ____
ROOT
ATOM      1  C   UNL     1       6.395   4.550  15.356  0.00  0.00    +0.000 C 
ATOM      2  C   UNL     1       5.030   4.758  16.053  0.00  0.00    +0.000 C 
ATOM      3  N   UNL     1       5.150   5.303  17.429  0.00  0.00    +0.000 NA
ATOM      4  C   UNL     1       5.949   6.546  17.334  0.00  0.00    +0.000 C 
ATOM      5  C   UNL     1       7.282   6.386  16.573  0.00  0.00    +0.000 C 
ATOM      6  O   UNL     1       7.111   5.798  15.274  0.00  0.00    +0.000 OA
ENDROOT
BRANCH   1  10
ATOM      7  C   UNL     1       5.525   3.257  12.141  0.00  0.00    +0.000 A 
ATOM      8  N   UNL     1       6.845   3.360  11.935  0.00  0.00    +0.000 NA
ATOM      9  N   UNL     1       7.261   3.863  13.108  0.00  0.00    +0.000 N 
ATOM     10  C   UNL     1       6.219   4.041  13.971  0.00  0.00    +0.000 A 
ATOM     11  N   UNL     1       5.109   3.652  13.385  0.00  0.00    +0.000 NA
ATOM     12  H   UNL     1       8.240   4.072  13.258  0.00  0.00    +0.000 HD
BRANCH   7  13
ATOM     13  C   UNL     1       4.572   2.777  11.112  0.00  0.00    +0.000 C 
BRANCH  13  15
ATOM     14  C   UNL     1       3.077   3.997   9.488  0.00  0.00    +0.000 C 
ATOM     15  C   UNL     1       3.392   3.737  10.951  0.00  0.00    +0.000 C 
ENDBRANCH  13  15
ENDBRANCH   7  13
ENDBRANCH   1  10
BRANCH   3  16
ATOM     16  C   UNL     1       5.773   4.343  18.371  0.00  0.00    +0.000 C 
BRANCH  16  17
ATOM     17  C   UNL     1       4.825   3.506  19.168  0.00  0.00    +0.000 A 
ATOM     18  N   UNL     1       5.109   2.625  20.106  0.00  0.00    +0.000 NA
ATOM     19  N   UNL     1       3.901   2.187  20.598  0.00  0.00    +0.000 NA
ATOM     20  C   UNL     1       2.961   2.816  19.919  0.00  0.00    +0.000 A 
ATOM     21  O   UNL     1       3.479   3.674  18.981  0.00  0.00    +0.000 OA
BRANCH  20  22
ATOM     22  C   UNL     1       1.483   2.612  20.201  0.00  0.00    +0.000 C 
ATOM     23  C   UNL     1       0.571   3.820  20.256  0.00  0.00    +0.000 C 
ATOM     24  C   UNL     1       0.476   2.879  19.104  0.00  0.00    +0.000 C 
ENDBRANCH  20  22
ENDBRANCH  16  17
ENDBRANCH   3  16
TORSDOF 6
ENDMDL
MODEL 7
REMARK VINA RESULT:      -7.6      1.393      1.466
REMARK  Name = 
REMARK  7 active torsions:
REMARK  status: ('A' for Active; 'I' for Inactive)
REMARK    1  A    between atoms: C_1  and  C_2
REMARK    2  A    between atoms: C_2  and  C_3
REMARK    3  A    between atoms: C_3  and  C_4
REMARK    4  A    between atoms: C_7  and  C_8
REMARK    5  A    between atoms: N_10  and  C_11
REMARK    6  A    between atoms: C_11  and  C_12
REMARK    7  A    between atoms: C_15  and  C_16
REMARK                            x       y       z     vdW  Elec       q    Type
REMARK                         _______ _______ _______ _____ _____    ______ ____
ROOT
ATOM      1  C   UNL     1       6.578   5.425  15.909  0.00  0.00    +0.000 C 
ATOM      2  C   UNL     1       5.228   6.130  16.178  0.00  0.00    +0.000 C 
ATOM      3  N   UNL     1       5.141   6.737  17.531  0.00  0.00    +0.000 NA
ATOM      4  C   UNL     1       6.307   7.639  17.677  0.00  0.00    +0.000 C 
ATOM      5  C   UNL     1       7.662   6.984  17.337  0.00  0.00    +0.000 C 
ATOM      6  O   UNL     1       7.666   6.361  16.042  0.00  0.00    +0.000 OA
ENDROOT
BRANCH   1  10
ATOM      7  C   UNL     1       6.347   3.816  12.728  0.00  0.00    +0.000 A 
ATOM      8  N   UNL     1       7.446   4.539  12.477  0.00  0.00    +0.000 NA
ATOM      9  N   UNL     1       7.602   5.201  13.634  0.00  0.00    +0.000 N 
ATOM     10  C   UNL     1       6.629   4.870  14.532  0.00  0.00    +0.000 A 
ATOM     11  N   UNL     1       5.828   3.984  13.985  0.00  0.00    +0.000 NA
ATOM     12  H   UNL     1       8.363   5.858  13.750  0.00  0.00    +0.000 HD
BRANCH   7  13
ATOM     13  C   UNL     1       5.713   2.918  11.733  0.00  0.00    +0.000 C 
BRANCH  13  15
ATOM     14  C   UNL     1       3.731   3.671  10.368  0.00  0.00    +0.000 C 
ATOM     15  C   UNL     1       4.195   3.103  11.697  0.00  0.00    +0.000 C 
ENDBRANCH  13  15
ENDBRANCH   7  13
ENDBRANCH   1  10
BRANCH   3  16
ATOM     16  C   UNL     1       5.118   5.722  18.611  0.00  0.00    +0.000 C 
BRANCH  16  17
ATOM     17  C   UNL     1       3.783   5.459  19.228  0.00  0.00    +0.000 A 
ATOM     18  N   UNL     1       2.933   6.332  19.730  0.00  0.00    +0.000 NA
ATOM     19  N   UNL     1       1.817   5.614  20.094  0.00  0.00    +0.000 NA
ATOM     20  C   UNL     1       2.064   4.351  19.806  0.00  0.00    +0.000 A 
ATOM     21  O   UNL     1       3.308   4.175  19.252  0.00  0.00    +0.000 OA
BRANCH  20  22
ATOM     22  C   UNL     1       1.045   3.250  20.042  0.00  0.00    +0.000 C 
ATOM     23  C   UNL     1       0.482   2.502  18.850  0.00  0.00    +0.000 C 
ATOM     24  C   UNL     1       1.431   1.813  19.770  0.00  0.00    +0.000 C 
ENDBRANCH  20  22
ENDBRANCH  16  17
ENDBRANCH   3  16
TORSDOF 6
ENDMDL
MODEL 8
REMARK VINA RESULT:      -7.5      3.503      4.546
REMARK  Name = 
REMARK  7 active torsions:
REMARK  status: ('A' for Active; 'I' for Inactive)
REMARK    1  A    between atoms: C_1  and  C_2
REMARK    2  A    between atoms: C_2  and  C_3
REMARK    3  A    between atoms: C_3  and  C_4
REMARK    4  A    between atoms: C_7  and  C_8
REMARK    5  A    between atoms: N_10  and  C_11
REMARK    6  A    between atoms: C_11  and  C_12
REMARK    7  A    between atoms: C_15  and  C_16
REMARK                            x       y       z     vdW  Elec       q    Type
REMARK                         _______ _______ _______ _____ _____    ______ ____
ROOT
ATOM      1  C   UNL     1       4.708   4.931  16.595  0.00  0.00    +0.000 C 
ATOM      2  C   UNL     1       4.998   6.186  17.451  0.00  0.00    +0.000 C 
ATOM      3  N   UNL     1       4.126   6.295  18.648  0.00  0.00    +0.000 NA
ATOM      4  C   UNL     1       4.270   5.030  19.406  0.00  0.00    +0.000 C 
ATOM      5  C   UNL     1       4.064   3.757  18.557  0.00  0.00    +0.000 C 
ATOM      6  O   UNL     1       4.889   3.736  17.381  0.00  0.00    +0.000 OA
ENDROOT
BRANCH   1  10
ATOM      7  C   UNL     1       6.636   4.403  13.634  0.00  0.00    +0.000 A 
ATOM      8  N   UNL     1       7.480   5.247  14.243  0.00  0.00    +0.000 NA
ATOM      9  N   UNL     1       6.818   5.516  15.379  0.00  0.00    +0.000 N 
ATOM     10  C   UNL     1       5.630   4.847  15.433  0.00  0.00    +0.000 A 
ATOM     11  N   UNL     1       5.498   4.125  14.343  0.00  0.00    +0.000 NA
ATOM     12  H   UNL     1       7.207   6.156  16.060  0.00  0.00    +0.000 HD
BRANCH   7  13
ATOM     13  C   UNL     1       6.884   3.824  12.292  0.00  0.00    +0.000 C 
BRANCH  13  15
ATOM     14  C   UNL     1       6.315   1.604  11.241  0.00  0.00    +0.000 C 
ATOM     15  C   UNL     1       5.765   2.867  11.880  0.00  0.00    +0.000 C 
ENDBRANCH  13  15
ENDBRANCH   7  13
ENDBRANCH   1  10
BRANCH   3  16
ATOM     16  C   UNL     1       2.707   6.547  18.300  0.00  0.00    +0.000 C 
BRANCH  16  17
ATOM     17  C   UNL     1       2.262   7.971  18.375  0.00  0.00    +0.000 A 
ATOM     18  N   UNL     1       2.313   8.890  17.432  0.00  0.00    +0.000 NA
ATOM     19  N   UNL     1       1.707  10.009  17.955  0.00  0.00    +0.000 NA
ATOM     20  C   UNL     1       1.340   9.706  19.185  0.00  0.00    +0.000 A 
ATOM     21  O   UNL     1       1.668   8.417  19.526  0.00  0.00    +0.000 OA
BRANCH  20  22
ATOM     22  C   UNL     1       0.607  10.690  20.079  0.00  0.00    +0.000 C 
ATOM     23  C   UNL     1      -0.892  10.852  19.920  0.00  0.00    +0.000 C 
ATOM     24  C   UNL     1      -0.349  10.168  21.129  0.00  0.00    +0.000 C 
ENDBRANCH  20  22
ENDBRANCH  16  17
ENDBRANCH   3  16
TORSDOF 6
ENDMDL
MODEL 9
REMARK VINA RESULT:      -7.4      3.384      7.310
REMARK  Name = 
REMARK  7 active torsions:
REMARK  status: ('A' for Active; 'I' for Inactive)
REMARK    1  A    between atoms: C_1  and  C_2
REMARK    2  A    between atoms: C_2  and  C_3
REMARK    3  A    between atoms: C_3  and  C_4
REMARK    4  A    between atoms: C_7  and  C_8
REMARK    5  A    between atoms: N_10  and  C_11
REMARK    6  A    between atoms: C_11  and  C_12
REMARK    7  A    between atoms: C_15  and  C_16
REMARK                            x       y       z     vdW  Elec       q    Type
REMARK                         _______ _______ _______ _____ _____    ______ ____
ROOT
ATOM      1  C   UNL     1       2.524   5.192  20.170  0.00  0.00    +0.000 C 
ATOM      2  C   UNL     1       2.168   4.316  18.945  0.00  0.00    +0.000 C 
ATOM      3  N   UNL     1       2.491   2.879  19.137  0.00  0.00    +0.000 NA
ATOM      4  C   UNL     1       1.811   2.444  20.380  0.00  0.00    +0.000 C 
ATOM      5  C   UNL     1       2.085   3.348  21.601  0.00  0.00    +0.000 C 
ATOM      6  O   UNL     1       1.813   4.734  21.337  0.00  0.00    +0.000 OA
ENDROOT
BRANCH   1  10
ATOM      7  C   UNL     1       1.782   8.547  19.191  0.00  0.00    +0.000 A 
ATOM      8  N   UNL     1       1.457   8.668  20.485  0.00  0.00    +0.000 NA
ATOM      9  N   UNL     1       1.693   7.426  20.939  0.00  0.00    +0.000 N 
ATOM     10  C   UNL     1       2.147   6.611  19.943  0.00  0.00    +0.000 A 
ATOM     11  N   UNL     1       2.224   7.302  18.828  0.00  0.00    +0.000 NA
ATOM     12  H   UNL     1       1.521   7.193  21.908  0.00  0.00    +0.000 HD
BRANCH   7  13
ATOM     13  C   UNL     1       1.660   9.652  18.210  0.00  0.00    +0.000 C 
BRANCH  13  15
ATOM     14  C   UNL     1      -0.806  10.152  18.051  0.00  0.00    +0.000 C 
ATOM     15  C   UNL     1       0.535  10.616  18.589  0.00  0.00    +0.000 C 
ENDBRANCH  13  15
ENDBRANCH   7  13
ENDBRANCH   1  10
BRANCH   3  16
ATOM     16  C   UNL     1       3.949   2.627  19.215  0.00  0.00    +0.000 C 
BRANCH  16  17
ATOM     17  C   UNL     1       4.793   3.386  18.243  0.00  0.00    +0.000 A 
ATOM     18  N   UNL     1       4.610   3.530  16.947  0.00  0.00    +0.000 NA
ATOM     19  N   UNL     1       5.598   4.384  16.512  0.00  0.00    +0.000 NA
ATOM     20  C   UNL     1       6.327   4.692  17.568  0.00  0.00    +0.000 A 
ATOM     21  O   UNL     1       5.873   4.085  18.713  0.00  0.00    +0.000 OA
BRANCH  20  22
ATOM     22  C   UNL     1       7.506   5.646  17.489  0.00  0.00    +0.000 C 
ATOM     23  C   UNL     1       7.249   7.139  17.531  0.00  0.00    +0.000 C 
ATOM     24  C   UNL     1       7.878   6.466  18.704  0.00  0.00    +0.000 C 
ENDBRANCH  20  22
ENDBRANCH  16  17
ENDBRANCH   3  16
TORSDOF 6
ENDMDL
