MODEL 1
REMARK VINA RESULT:      -6.4      0.000      0.000
REMARK  Name = 
REMARK  8 active torsions:
REMARK  status: ('A' for Active; 'I' for Inactive)
REMARK    1  A    between atoms: C_1  and  S_2
REMARK    2  A    between atoms: S_2  and  C_3
REMARK    3  A    between atoms: C_3  and  C_4
REMARK    4  A    between atoms: C_4  and  C_5
REMARK    5  A    between atoms: C_5  and  O_6
REMARK    6  A    between atoms: C_5  and  C_7
REMARK    7  A    between atoms: N_12  and  C_13
REMARK    8  A    between atoms: C_13  and  C_14
REMARK                            x       y       z     vdW  Elec       q    Type
REMARK                         _______ _______ _______ _____ _____    ______ ____
ROOT
ATOM      1  C   UNL     1       3.160   2.592  19.302  0.00  0.00    +0.000 C 
ATOM      2  O   UNL     1       2.309   1.827  18.840  0.00  0.00    +0.000 OA
ATOM      3  N   UNL     1       4.110   3.188  18.488  0.00  0.00    +0.000 N 
ATOM      4  C   UNL     1       4.039   3.006  17.033  0.00  0.00    +0.000 C 
ATOM      5  C   UNL     1       4.198   4.355  16.287  0.00  0.00    +0.000 C 
ATOM      6  N   UNL     1       5.366   5.174  16.711  0.00  0.00    +0.000 NA
ATOM      7  C   UNL     1       5.294   5.331  18.182  0.00  0.00    +0.000 C 
ATOM      8  C   UNL     1       5.240   4.001  18.951  0.00  0.00    +0.000 C 
ENDROOT
BRANCH   1   9
ATOM      9  C   UNL     1       3.163   2.962  20.812  0.00  0.00    +0.000 C 
BRANCH   9  10
ATOM     10  O   UNL     1       3.769   1.977  21.642  0.00  0.00    +0.000 OA
ATOM     11  H   UNL     1       3.237   1.915  22.454  0.00  0.00    +0.000 HD
ENDBRANCH   9  10
BRANCH   9  12
ATOM     12  C   UNL     1       1.738   3.227  21.312  0.00  0.00    +0.000 C 
BRANCH  12  13
ATOM     13  C   UNL     1       1.051   4.333  20.512  0.00  0.00    +0.000 C 
BRANCH  13  15
ATOM     14  C   UNL     1       2.112   6.240  18.826  0.00  0.00    +0.000 C 
ATOM     15  S   UNL     1       2.072   5.841  20.587  0.00  0.00    +0.000 S 
ENDBRANCH  13  15
ENDBRANCH  12  13
ENDBRANCH   9  12
ENDBRANCH   1   9
BRANCH   6  16
ATOM     16  C   UNL     1       6.618   4.549  16.241  0.00  0.00    +0.000 C 
BRANCH  16  17
ATOM     17  C   UNL     1       6.803   4.519  14.740  0.00  0.00    +0.000 A 
ATOM     18  C   UNL     1       7.719   5.391  14.112  0.00  0.00    +0.000 A 
ATOM     19  C   UNL     1       7.917   5.344  12.733  0.00  0.00    +0.000 A 
ATOM     20  C   UNL     1       7.222   4.415  11.959  0.00  0.00    +0.000 A 
ATOM     21  C   UNL     1       6.332   3.534  12.572  0.00  0.00    +0.000 A 
ATOM     22 CL   UNL     1       5.517   2.354  11.620  0.00  0.00    +0.000 Cl
ATOM     23  C   UNL     1       6.111   3.587  13.947  0.00  0.00    +0.000 A 
ENDBRANCH  16  17
ENDBRANCH   6  16
TORSDOF 7
ENDMDL
MODEL 2
REMARK VINA RESULT:      -6.2      1.460      1.643
REMARK  Name = 
REMARK  8 active torsions:
REMARK  status: ('A' for Active; 'I' for Inactive)
REMARK    1  A    between atoms: C_1  and  S_2
REMARK    2  A    between atoms: S_2  and  C_3
REMARK    3  A    between atoms: C_3  and  C_4
REMARK    4  A    between atoms: C_4  and  C_5
REMARK    5  A    between atoms: C_5  and  O_6
REMARK    6  A    between atoms: C_5  and  C_7
REMARK    7  A    between atoms: N_12  and  C_13
REMARK    8  A    between atoms: C_13  and  C_14
REMARK                            x       y       z     vdW  Elec       q    Type
REMARK                         _______ _______ _______ _____ _____    ______ ____
ROOT
ATOM      1  C   UNL     1       2.538   4.357  18.633  0.00  0.00    +0.000 C 
ATOM      2  O   UNL     1       1.494   4.350  17.976  0.00  0.00    +0.000 OA
ATOM      3  N   UNL     1       3.776   4.442  18.016  0.00  0.00    +0.000 N 
ATOM      4  C   UNL     1       3.854   4.647  16.564  0.00  0.00    +0.000 C 
ATOM      5  C   UNL     1       4.859   5.770  16.205  0.00  0.00    +0.000 C 
ATOM      6  N   UNL     1       6.197   5.642  16.844  0.00  0.00    +0.000 NA
ATOM      7  C   UNL     1       5.988   5.497  18.302  0.00  0.00    +0.000 C 
ATOM      8  C   UNL     1       5.074   4.323  18.689  0.00  0.00    +0.000 C 
ENDROOT
BRANCH   1   9
ATOM      9  C   UNL     1       2.502   4.326  20.186  0.00  0.00    +0.000 C 
BRANCH   9  10
ATOM     10  O   UNL     1       1.975   3.118  20.723  0.00  0.00    +0.000 OA
ATOM     11  H   UNL     1       2.527   2.876  21.487  0.00  0.00    +0.000 HD
ENDBRANCH   9  10
BRANCH   9  12
ATOM     12  C   UNL     1       1.698   5.510  20.737  0.00  0.00    +0.000 C 
BRANCH  12  13
ATOM     13  C   UNL     1       2.214   6.846  20.204  0.00  0.00    +0.000 C 
BRANCH  13  15
ATOM     14  C   UNL     1       1.169   9.306  19.526  0.00  0.00    +0.000 C 
ATOM     15  S   UNL     1       1.241   8.196  20.949  0.00  0.00    +0.000 S 
ENDBRANCH  13  15
ENDBRANCH  12  13
ENDBRANCH   9  12
ENDBRANCH   1   9
BRANCH   6  16
ATOM     16  C   UNL     1       6.942   4.521  16.236  0.00  0.00    +0.000 C 
BRANCH  16  17
ATOM     17  C   UNL     1       6.983   4.515  14.724  0.00  0.00    +0.000 A 
ATOM     18  C   UNL     1       7.834   5.399  14.026  0.00  0.00    +0.000 A 
ATOM     19  C   UNL     1       7.901   5.375  12.634  0.00  0.00    +0.000 A 
ATOM     20  C   UNL     1       7.136   4.457  11.915  0.00  0.00    +0.000 A 
ATOM     21  C   UNL     1       6.310   3.563  12.595  0.00  0.00    +0.000 A 
ATOM     22 CL   UNL     1       5.410   2.396  11.706  0.00  0.00    +0.000 Cl
ATOM     23  C   UNL     1       6.220   3.594  13.986  0.00  0.00    +0.000 A 
ENDBRANCH  16  17
ENDBRANCH   6  16
TORSDOF 7
ENDMDL
MODEL 3
REMARK VINA RESULT:      -6.2      4.484      6.922
REMARK  Name = 
REMARK  8 active torsions:
REMARK  status: ('A' for Active; 'I' for Inactive)
REMARK    1  A    between atoms: C_1  and  S_2
REMARK    2  A    between atoms: S_2  and  C_3
REMARK    3  A    between atoms: C_3  and  C_4
REMARK    4  A    between atoms: C_4  and  C_5
REMARK    5  A    between atoms: C_5  and  O_6
REMARK    6  A    between atoms: C_5  and  C_7
REMARK    7  A    between atoms: N_12  and  C_13
REMARK    8  A    between atoms: C_13  and  C_14
REMARK                            x       y       z     vdW  Elec       q    Type
REMARK                         _______ _______ _______ _____ _____    ______ ____
ROOT
ATOM      1  C   UNL     1       5.096   4.199  18.935  0.00  0.00    +0.000 C 
ATOM      2  O   UNL     1       6.261   4.054  18.554  0.00  0.00    +0.000 OA
ATOM      3  N   UNL     1       4.422   5.396  18.749  0.00  0.00    +0.000 N 
ATOM      4  C   UNL     1       5.055   6.477  17.983  0.00  0.00    +0.000 C 
ATOM      5  C   UNL     1       4.081   7.071  16.935  0.00  0.00    +0.000 C 
ATOM      6  N   UNL     1       2.741   7.445  17.464  0.00  0.00    +0.000 NA
ATOM      7  C   UNL     1       2.188   6.263  18.163  0.00  0.00    +0.000 C 
ATOM      8  C   UNL     1       3.092   5.716  19.280  0.00  0.00    +0.000 C 
ENDROOT
BRANCH   1   9
ATOM      9  C   UNL     1       4.319   3.022  19.588  0.00  0.00    +0.000 C 
BRANCH   9  10
ATOM     10  O   UNL     1       5.156   2.077  20.245  0.00  0.00    +0.000 OA
ATOM     11  H   UNL     1       6.013   2.081  19.784  0.00  0.00    +0.000 HD
ENDBRANCH   9  10
BRANCH   9  12
ATOM     12  C   UNL     1       3.462   2.291  18.548  0.00  0.00    +0.000 C 
BRANCH  12  13
ATOM     13  C   UNL     1       2.225   1.652  19.178  0.00  0.00    +0.000 C 
BRANCH  13  15
ATOM     14  C   UNL     1       1.421   2.670  21.611  0.00  0.00    +0.000 C 
ATOM     15  S   UNL     1       1.155   2.966  19.850  0.00  0.00    +0.000 S 
ENDBRANCH  13  15
ENDBRANCH  12  13
ENDBRANCH   9  12
ENDBRANCH   1   9
BRANCH   6  16
ATOM     16  C   UNL     1       2.852   8.643  18.320  0.00  0.00    +0.000 C 
BRANCH  16  17
ATOM     17  C   UNL     1       1.542   9.187  18.846  0.00  0.00    +0.000 A 
ATOM     18  C   UNL     1       0.606   9.777  17.969  0.00  0.00    +0.000 A 
ATOM     19  C   UNL     1      -0.617  10.249  18.443  0.00  0.00    +0.000 A 
ATOM     20  C   UNL     1      -0.935  10.125  19.795  0.00  0.00    +0.000 A 
ATOM     21  C   UNL     1      -0.027   9.524  20.666  0.00  0.00    +0.000 A 
ATOM     22 CL   UNL     1      -0.448   9.324  22.323  0.00  0.00    +0.000 Cl
ATOM     23  C   UNL     1       1.206   9.067  20.205  0.00  0.00    +0.000 A 
ENDBRANCH  16  17
ENDBRANCH   6  16
TORSDOF 7
ENDMDL
MODEL 4
REMARK VINA RESULT:      -6.1      7.108     10.422
REMARK  Name = 
REMARK  8 active torsions:
REMARK  status: ('A' for Active; 'I' for Inactive)
REMARK    1  A    between atoms: C_1  and  S_2
REMARK    2  A    between atoms: S_2  and  C_3
REMARK    3  A    between atoms: C_3  and  C_4
REMARK    4  A    between atoms: C_4  and  C_5
REMARK    5  A    between atoms: C_5  and  O_6
REMARK    6  A    between atoms: C_5  and  C_7
REMARK    7  A    between atoms: N_12  and  C_13
REMARK    8  A    between atoms: C_13  and  C_14
REMARK                            x       y       z     vdW  Elec       q    Type
REMARK                         _______ _______ _______ _____ _____    ______ ____
ROOT
ATOM      1  C   UNL     1       2.274   7.483  18.895  0.00  0.00    +0.000 C 
ATOM      2  O   UNL     1       2.647   7.826  17.770  0.00  0.00    +0.000 OA
ATOM      3  N   UNL     1       1.638   8.374  19.745  0.00  0.00    +0.000 N 
ATOM      4  C   UNL     1       1.293   9.718  19.265  0.00  0.00    +0.000 C 
ATOM      5  C   UNL     1      -0.169  10.087  19.623  0.00  0.00    +0.000 C 
ATOM      6  N   UNL     1      -0.541   9.868  21.047  0.00  0.00    +0.000 NA
ATOM      7  C   UNL     1      -0.197   8.470  21.392  0.00  0.00    +0.000 C 
ATOM      8  C   UNL     1       1.277   8.109  21.142  0.00  0.00    +0.000 C 
ENDROOT
BRANCH   1   9
ATOM      9  C   UNL     1       2.452   6.017  19.381  0.00  0.00    +0.000 C 
BRANCH   9  10
ATOM     10  O   UNL     1       3.749   5.739  19.897  0.00  0.00    +0.000 OA
ATOM     11  H   UNL     1       3.950   4.810  19.688  0.00  0.00    +0.000 HD
ENDBRANCH   9  10
BRANCH   9  12
ATOM     12  C   UNL     1       2.140   5.026  18.253  0.00  0.00    +0.000 C 
BRANCH  12  13
ATOM     13  C   UNL     1       3.305   4.073  17.996  0.00  0.00    +0.000 C 
BRANCH  13  15
ATOM     14  C   UNL     1       1.028   2.678  18.685  0.00  0.00    +0.000 C 
ATOM     15  S   UNL     1       2.693   2.357  18.063  0.00  0.00    +0.000 S 
ENDBRANCH  13  15
ENDBRANCH  12  13
ENDBRANCH   9  12
ENDBRANCH   1   9
BRANCH   6  16
ATOM     16  C   UNL     1       0.122  10.872  21.903  0.00  0.00    +0.000 C 
BRANCH  16  17
ATOM     17  C   UNL     1      -0.779  11.960  22.442  0.00  0.00    +0.000 A 
ATOM     18  C   UNL     1      -0.489  13.320  22.195  0.00  0.00    +0.000 A 
ATOM     19  C   UNL     1      -1.334  14.326  22.661  0.00  0.00    +0.000 A 
ATOM     20  C   UNL     1      -2.492  13.994  23.363  0.00  0.00    +0.000 A 
ATOM     21  C   UNL     1      -2.800  12.653  23.593  0.00  0.00    +0.000 A 
ATOM     22 CL   UNL     1      -4.258  12.248  24.413  0.00  0.00    +0.000 Cl
ATOM     23  C   UNL     1      -1.951  11.641  23.149  0.00  0.00    +0.000 A 
ENDBRANCH  16  17
ENDBRANCH   6  16
TORSDOF 7
ENDMDL
MODEL 5
REMARK VINA RESULT:      -6.1      1.227      1.352
REMARK  Name = 
REMARK  8 active torsions:
REMARK  status: ('A' for Active; 'I' for Inactive)
REMARK    1  A    between atoms: C_1  and  S_2
REMARK    2  A    between atoms: S_2  and  C_3
REMARK    3  A    between atoms: C_3  and  C_4
REMARK    4  A    between atoms: C_4  and  C_5
REMARK    5  A    between atoms: C_5  and  O_6
REMARK    6  A    between atoms: C_5  and  C_7
REMARK    7  A    between atoms: N_12  and  C_13
REMARK    8  A    between atoms: C_13  and  C_14
REMARK                            x       y       z     vdW  Elec       q    Type
REMARK                         _______ _______ _______ _____ _____    ______ ____
ROOT
ATOM      1  C   UNL     1       2.658   3.285  19.753  0.00  0.00    +0.000 C 
ATOM      2  O   UNL     1       1.949   2.287  19.604  0.00  0.00    +0.000 OA
ATOM      3  N   UNL     1       3.549   3.688  18.771  0.00  0.00    +0.000 N 
ATOM      4  C   UNL     1       3.573   2.990  17.479  0.00  0.00    +0.000 C 
ATOM      5  C   UNL     1       3.570   3.991  16.296  0.00  0.00    +0.000 C 
ATOM      6  N   UNL     1       4.587   5.074  16.388  0.00  0.00    +0.000 NA
ATOM      7  C   UNL     1       4.425   5.733  17.704  0.00  0.00    +0.000 C 
ATOM      8  C   UNL     1       4.528   4.773  18.901  0.00  0.00    +0.000 C 
ENDROOT
BRANCH   1   9
ATOM      9  C   UNL     1       2.538   4.165  21.028  0.00  0.00    +0.000 C 
BRANCH   9  10
ATOM     10  O   UNL     1       2.244   3.426  22.209  0.00  0.00    +0.000 OA
ATOM     11  H   UNL     1       1.283   3.269  22.220  0.00  0.00    +0.000 HD
ENDBRANCH   9  10
BRANCH   9  12
ATOM     12  C   UNL     1       1.473   5.252  20.842  0.00  0.00    +0.000 C 
BRANCH  12  13
ATOM     13  C   UNL     1       2.087   6.581  20.403  0.00  0.00    +0.000 C 
BRANCH  13  15
ATOM     14  C   UNL     1       1.171   9.099  19.750  0.00  0.00    +0.000 C 
ATOM     15  S   UNL     1       1.132   7.948  21.141  0.00  0.00    +0.000 S 
ENDBRANCH  13  15
ENDBRANCH  12  13
ENDBRANCH   9  12
ENDBRANCH   1   9
BRANCH   6  16
ATOM     16  C   UNL     1       5.937   4.520  16.163  0.00  0.00    +0.000 C 
BRANCH  16  17
ATOM     17  C   UNL     1       6.371   4.438  14.716  0.00  0.00    +0.000 A 
ATOM     18  C   UNL     1       7.410   5.261  14.231  0.00  0.00    +0.000 A 
ATOM     19  C   UNL     1       7.837   5.167  12.908  0.00  0.00    +0.000 A 
ATOM     20  C   UNL     1       7.249   4.237  12.050  0.00  0.00    +0.000 A 
ATOM     21  C   UNL     1       6.237   3.404  12.525  0.00  0.00    +0.000 A 
ATOM     22 CL   UNL     1       5.552   2.222  11.478  0.00  0.00    +0.000 Cl
ATOM     23  C   UNL     1       5.789   3.505  13.841  0.00  0.00    +0.000 A 
ENDBRANCH  16  17
ENDBRANCH   6  16
TORSDOF 7
ENDMDL
MODEL 6
REMARK VINA RESULT:      -6.0      4.300      6.822
REMARK  Name = 
REMARK  8 active torsions:
REMARK  status: ('A' for Active; 'I' for Inactive)
REMARK    1  A    between atoms: C_1  and  S_2
REMARK    2  A    between atoms: S_2  and  C_3
REMARK    3  A    between atoms: C_3  and  C_4
REMARK    4  A    between atoms: C_4  and  C_5
REMARK    5  A    between atoms: C_5  and  O_6
REMARK    6  A    between atoms: C_5  and  C_7
REMARK    7  A    between atoms: N_12  and  C_13
REMARK    8  A    between atoms: C_13  and  C_14
REMARK                            x       y       z     vdW  Elec       q    Type
REMARK                         _______ _______ _______ _____ _____    ______ ____
ROOT
ATOM      1  C   UNL     1       5.060   4.278  18.958  0.00  0.00    +0.000 C 
ATOM      2  O   UNL     1       6.239   4.174  18.610  0.00  0.00    +0.000 OA
ATOM      3  N   UNL     1       4.359   5.460  18.780  0.00  0.00    +0.000 N 
ATOM      4  C   UNL     1       4.984   6.576  18.059  0.00  0.00    +0.000 C 
ATOM      5  C   UNL     1       4.026   7.169  16.995  0.00  0.00    +0.000 C 
ATOM      6  N   UNL     1       2.661   7.493  17.491  0.00  0.00    +0.000 NA
ATOM      7  C   UNL     1       2.120   6.280  18.145  0.00  0.00    +0.000 C 
ATOM      8  C   UNL     1       3.005   5.731  19.276  0.00  0.00    +0.000 C 
ENDROOT
BRANCH   1   9
ATOM      9  C   UNL     1       4.296   3.065  19.559  0.00  0.00    +0.000 C 
BRANCH   9  10
ATOM     10  O   UNL     1       5.147   2.085  20.144  0.00  0.00    +0.000 OA
ATOM     11  H   UNL     1       5.388   2.403  21.031  0.00  0.00    +0.000 HD
ENDBRANCH   9  10
BRANCH   9  12
ATOM     12  C   UNL     1       3.417   2.393  18.498  0.00  0.00    +0.000 C 
BRANCH  12  13
ATOM     13  C   UNL     1       2.194   1.718  19.116  0.00  0.00    +0.000 C 
BRANCH  13  15
ATOM     14  C   UNL     1       1.473   2.623  21.620  0.00  0.00    +0.000 C 
ATOM     15  S   UNL     1       1.138   2.991  19.884  0.00  0.00    +0.000 S 
ENDBRANCH  13  15
ENDBRANCH  12  13
ENDBRANCH   9  12
ENDBRANCH   1   9
BRANCH   6  16
ATOM     16  C   UNL     1       2.712   8.673  18.377  0.00  0.00    +0.000 C 
BRANCH  16  17
ATOM     17  C   UNL     1       1.369   9.237  18.783  0.00  0.00    +0.000 A 
ATOM     18  C   UNL     1       1.060   9.445  20.145  0.00  0.00    +0.000 A 
ATOM     19  C   UNL     1      -0.164   9.996  20.523  0.00  0.00    +0.000 A 
ATOM     20  C   UNL     1      -1.092  10.366  19.551  0.00  0.00    +0.000 A 
ATOM     21  C   UNL     1      -0.788  10.186  18.202  0.00  0.00    +0.000 A 
ATOM     22 CL   UNL     1      -1.915  10.695  17.004  0.00  0.00    +0.000 Cl
ATOM     23  C   UNL     1       0.424   9.617  17.815  0.00  0.00    +0.000 A 
ENDBRANCH  16  17
ENDBRANCH   6  16
TORSDOF 7
ENDMDL
MODEL 7
REMARK VINA RESULT:      -6.0      3.935      5.389
REMARK  Name = 
REMARK  8 active torsions:
REMARK  status: ('A' for Active; 'I' for Inactive)
REMARK    1  A    between atoms: C_1  and  S_2
REMARK    2  A    between atoms: S_2  and  C_3
REMARK    3  A    between atoms: C_3  and  C_4
REMARK    4  A    between atoms: C_4  and  C_5
REMARK    5  A    between atoms: C_5  and  O_6
REMARK    6  A    between atoms: C_5  and  C_7
REMARK    7  A    between atoms: N_12  and  C_13
REMARK    8  A    between atoms: C_13  and  C_14
REMARK                            x       y       z     vdW  Elec       q    Type
REMARK                         _______ _______ _______ _____ _____    ______ ____
ROOT
ATOM      1  C   UNL     1       1.329   8.217  20.368  0.00  0.00    +0.000 C 
ATOM      2  O   UNL     1       0.621   8.169  21.377  0.00  0.00    +0.000 OA
ATOM      3  N   UNL     1       2.038   7.108  19.932  0.00  0.00    +0.000 N 
ATOM      4  C   UNL     1       1.858   5.818  20.609  0.00  0.00    +0.000 C 
ATOM      5  C   UNL     1       1.642   4.671  19.590  0.00  0.00    +0.000 C 
ATOM      6  N   UNL     1       2.643   4.613  18.489  0.00  0.00    +0.000 NA
ATOM      7  C   UNL     1       2.691   5.950  17.854  0.00  0.00    +0.000 C 
ATOM      8  C   UNL     1       3.006   7.095  18.831  0.00  0.00    +0.000 C 
ENDROOT
BRANCH   1   9
ATOM      9  C   UNL     1       1.408   9.511  19.510  0.00  0.00    +0.000 C 
BRANCH   9  10
ATOM     10  O   UNL     1       1.141  10.702  20.244  0.00  0.00    +0.000 OA
ATOM     11  H   UNL     1       1.991  11.156  20.377  0.00  0.00    +0.000 HD
ENDBRANCH   9  10
BRANCH   9  12
ATOM     12  C   UNL     1       0.448   9.435  18.317  0.00  0.00    +0.000 C 
BRANCH  12  13
ATOM     13  C   UNL     1      -0.590  10.555  18.349  0.00  0.00    +0.000 C 
BRANCH  13  15
ATOM     14  C   UNL     1      -3.123  11.452  17.725  0.00  0.00    +0.000 C 
ATOM     15  S   UNL     1      -2.050  10.039  17.386  0.00  0.00    +0.000 S 
ENDBRANCH  13  15
ENDBRANCH  12  13
ENDBRANCH   9  12
ENDBRANCH   1   9
BRANCH   6  16
ATOM     16  C   UNL     1       3.945   4.157  19.014  0.00  0.00    +0.000 C 
BRANCH  16  17
ATOM     17  C   UNL     1       5.128   4.386  18.099  0.00  0.00    +0.000 A 
ATOM     18  C   UNL     1       6.335   4.915  18.606  0.00  0.00    +0.000 A 
ATOM     19  C   UNL     1       7.439   5.097  17.775  0.00  0.00    +0.000 A 
ATOM     20  C   UNL     1       7.366   4.736  16.430  0.00  0.00    +0.000 A 
ATOM     21  C   UNL     1       6.186   4.191  15.924  0.00  0.00    +0.000 A 
ATOM     22 CL   UNL     1       6.120   3.697  14.276  0.00  0.00    +0.000 Cl
ATOM     23  C   UNL     1       5.070   4.025  16.742  0.00  0.00    +0.000 A 
ENDBRANCH  16  17
ENDBRANCH   6  16
TORSDOF 7
ENDMDL
MODEL 8
REMARK VINA RESULT:      -5.9      4.568      6.066
REMARK  Name = 
REMARK  8 active torsions:
REMARK  status: ('A' for Active; 'I' for Inactive)
REMARK    1  A    between atoms: C_1  and  S_2
REMARK    2  A    between atoms: S_2  and  C_3
REMARK    3  A    between atoms: C_3  and  C_4
REMARK    4  A    between atoms: C_4  and  C_5
REMARK    5  A    between atoms: C_5  and  O_6
REMARK    6  A    between atoms: C_5  and  C_7
REMARK    7  A    between atoms: N_12  and  C_13
REMARK    8  A    between atoms: C_13  and  C_14
REMARK                            x       y       z     vdW  Elec       q    Type
REMARK                         _______ _______ _______ _____ _____    ______ ____
ROOT
ATOM      1  C   UNL     1       0.885   8.750  20.415  0.00  0.00    +0.000 C 
ATOM      2  O   UNL     1       0.300   8.778  21.500  0.00  0.00    +0.000 OA
ATOM      3  N   UNL     1       1.701   7.686  20.064  0.00  0.00    +0.000 N 
ATOM      4  C   UNL     1       1.783   6.512  20.942  0.00  0.00    +0.000 C 
ATOM      5  C   UNL     1       1.635   5.195  20.140  0.00  0.00    +0.000 C 
ATOM      6  N   UNL     1       2.515   5.086  18.944  0.00  0.00    +0.000 NA
ATOM      7  C   UNL     1       2.301   6.295  18.117  0.00  0.00    +0.000 C 
ATOM      8  C   UNL     1       2.543   7.616  18.865  0.00  0.00    +0.000 C 
ENDROOT
BRANCH   1   9
ATOM      9  C   UNL     1       0.685   9.885  19.371  0.00  0.00    +0.000 C 
BRANCH   9  10
ATOM     10  O   UNL     1       1.344  11.100  19.713  0.00  0.00    +0.000 OA
ATOM     11  H   UNL     1       0.655  11.771  19.857  0.00  0.00    +0.000 HD
ENDBRANCH   9  10
BRANCH   9  12
ATOM     12  C   UNL     1      -0.806  10.170  19.155  0.00  0.00    +0.000 C 
BRANCH  12  13
ATOM     13  C   UNL     1      -1.202  10.040  17.685  0.00  0.00    +0.000 C 
BRANCH  13  15
ATOM     14  C   UNL     1      -2.829  10.806  15.594  0.00  0.00    +0.000 C 
ATOM     15  S   UNL     1      -2.516  11.249  17.317  0.00  0.00    +0.000 S 
ENDBRANCH  13  15
ENDBRANCH  12  13
ENDBRANCH   9  12
ENDBRANCH   1   9
BRANCH   6  16
ATOM     16  C   UNL     1       3.917   4.894  19.364  0.00  0.00    +0.000 C 
BRANCH  16  17
ATOM     17  C   UNL     1       4.950   5.063  18.272  0.00  0.00    +0.000 A 
ATOM     18  C   UNL     1       4.979   4.182  17.169  0.00  0.00    +0.000 A 
ATOM     19  C   UNL     1       5.907   4.353  16.143  0.00  0.00    +0.000 A 
ATOM     20  C   UNL     1       6.809   5.415  16.189  0.00  0.00    +0.000 A 
ATOM     21  C   UNL     1       6.775   6.304  17.263  0.00  0.00    +0.000 A 
ATOM     22 CL   UNL     1       7.854   7.644  17.287  0.00  0.00    +0.000 Cl
ATOM     23  C   UNL     1       5.864   6.130  18.303  0.00  0.00    +0.000 A 
ENDBRANCH  16  17
ENDBRANCH   6  16
TORSDOF 7
ENDMDL
MODEL 9
REMARK VINA RESULT:      -5.9      4.963      8.196
REMARK  Name = 
REMARK  8 active torsions:
REMARK  status: ('A' for Active; 'I' for Inactive)
REMARK    1  A    between atoms: C_1  and  S_2
REMARK    2  A    between atoms: S_2  and  C_3
REMARK    3  A    between atoms: C_3  and  C_4
REMARK    4  A    between atoms: C_4  and  C_5
REMARK    5  A    between atoms: C_5  and  O_6
REMARK    6  A    between atoms: C_5  and  C_7
REMARK    7  A    between atoms: N_12  and  C_13
REMARK    8  A    between atoms: C_13  and  C_14
REMARK                            x       y       z     vdW  Elec       q    Type
REMARK                         _______ _______ _______ _____ _____    ______ ____
ROOT
ATOM      1  C   UNL     1       6.259   5.965  16.915  0.00  0.00    +0.000 C 
ATOM      2  O   UNL     1       6.902   6.872  16.382  0.00  0.00    +0.000 OA
ATOM      3  N   UNL     1       5.144   6.234  17.693  0.00  0.00    +0.000 N 
ATOM      4  C   UNL     1       4.643   7.611  17.795  0.00  0.00    +0.000 C 
ATOM      5  C   UNL     1       3.109   7.671  17.585  0.00  0.00    +0.000 C 
ATOM      6  N   UNL     1       2.325   6.707  18.404  0.00  0.00    +0.000 NA
ATOM      7  C   UNL     1       2.888   5.357  18.174  0.00  0.00    +0.000 C 
ATOM      8  C   UNL     1       4.392   5.247  18.476  0.00  0.00    +0.000 C 
ENDROOT
BRANCH   1   9
ATOM      9  C   UNL     1       6.641   4.476  16.687  0.00  0.00    +0.000 C 
BRANCH   9  10
ATOM     10  O   UNL     1       7.689   4.017  17.534  0.00  0.00    +0.000 OA
ATOM     11  H   UNL     1       8.185   4.800  17.830  0.00  0.00    +0.000 HD
ENDBRANCH   9  10
BRANCH   9  12
ATOM     12  C   UNL     1       7.038   4.232  15.226  0.00  0.00    +0.000 C 
BRANCH  12  13
ATOM     13  C   UNL     1       5.816   4.108  14.317  0.00  0.00    +0.000 C 
BRANCH  13  15
ATOM     14  C   UNL     1       4.762   3.285  11.905  0.00  0.00    +0.000 C 
ATOM     15  S   UNL     1       6.369   3.662  12.638  0.00  0.00    +0.000 S 
ENDBRANCH  13  15
ENDBRANCH  12  13
ENDBRANCH   9  12
ENDBRANCH   1   9
BRANCH   6  16
ATOM     16  C   UNL     1       2.337   7.122  19.821  0.00  0.00    +0.000 C 
BRANCH  16  17
ATOM     17  C   UNL     1       1.486   8.329  20.150  0.00  0.00    +0.000 A 
ATOM     18  C   UNL     1       1.147   9.263  19.147  0.00  0.00    +0.000 A 
ATOM     19  C   UNL     1       0.335  10.358  19.438  0.00  0.00    +0.000 A 
ATOM     20  C   UNL     1      -0.167  10.532  20.727  0.00  0.00    +0.000 A 
ATOM     21  C   UNL     1       0.143   9.603  21.720  0.00  0.00    +0.000 A 
ATOM     22 CL   UNL     1      -0.524   9.793  23.295  0.00  0.00    +0.000 Cl
ATOM     23  C   UNL     1       0.971   8.516  21.444  0.00  0.00    +0.000 A 
ENDBRANCH  16  17
ENDBRANCH   6  16
TORSDOF 7
ENDMDL
