MODEL 1
REMARK VINA RESULT:      -7.2      0.000      0.000
REMARK  Name = 
REMARK  6 active torsions:
REMARK  status: ('A' for Active; 'I' for Inactive)
REMARK    1  A    between atoms: C_1  and  C_2
REMARK    2  A    between atoms: C_2  and  O_3
REMARK    3  A    between atoms: O_3  and  C_4
REMARK    4  A    between atoms: C_6  and  N_7
REMARK    5  A    between atoms: N_7  and  C_8
REMARK    6  A    between atoms: C_11  and  C_12
REMARK                            x       y       z     vdW  Elec       q    Type
REMARK                         _______ _______ _______ _____ _____    ______ ____
ROOT
ATOM      1  C   UNL     1       2.320   8.152  18.551  0.00  0.00    +0.000 A 
ATOM      2  C   UNL     1       1.830   7.707  19.783  0.00  0.00    +0.000 A 
ATOM      3  C   UNL     1       2.143   6.439  20.269  0.00  0.00    +0.000 A 
ATOM      4  C   UNL     1       2.893   5.542  19.500  0.00  0.00    +0.000 A 
ATOM      5  C   UNL     1       3.442   6.014  18.295  0.00  0.00    +0.000 A 
ATOM      6  C   UNL     1       3.136   7.293  17.813  0.00  0.00    +0.000 A 
ENDROOT
BRANCH   4   7
ATOM      7  C   UNL     1       3.075   4.091  19.945  0.00  0.00    +0.000 C 
ATOM      8  C   UNL     1       1.976   3.559  20.915  0.00  0.00    +0.000 C 
ATOM      9  N   UNL     1       0.641   3.482  20.278  0.00  0.00    +0.000 NA
ATOM     10  C   UNL     1       0.766   2.594  19.108  0.00  0.00    +0.000 C 
ATOM     11  C   UNL     1       1.897   3.003  18.155  0.00  0.00    +0.000 C 
ATOM     12  O   UNL     1       3.160   3.188  18.818  0.00  0.00    +0.000 OA
ATOM     13  H   UNL     1       0.398   4.417  19.940  0.00  0.00    +0.000 HD
ENDBRANCH   4   7
BRANCH   1  14
ATOM     14  N   UNL     1       1.960   9.416  18.018  0.00  0.00    +0.000 N 
ATOM     15  H   UNL     1       2.168   9.439  17.019  0.00  0.00    +0.000 HD
BRANCH  14  18
ATOM     16  C   UNL     1      -1.619  10.495  18.164  0.00  0.00    +0.000 A 
ATOM     17  C   UNL     1      -0.457   9.797  17.783  0.00  0.00    +0.000 A 
ATOM     18  C   UNL     1       0.782  10.124  18.344  0.00  0.00    +0.000 A 
ATOM     19  C   UNL     1       0.802  11.215  19.213  0.00  0.00    +0.000 A 
ATOM     20  N   UNL     1      -0.288  11.885  19.641  0.00  0.00    +0.000 NA
ATOM     21  C   UNL     1      -1.475  11.491  19.132  0.00  0.00    +0.000 A 
ATOM     22 CL   UNL     1      -2.766  12.307  19.924  0.00  0.00    +0.000 Cl
BRANCH  16  23
ATOM     23  O   UNL     1      -2.757  10.053  17.544  0.00  0.00    +0.000 OA
BRANCH  23  25
ATOM     24  C   UNL     1      -2.958  10.451  15.188  0.00  0.00    +0.000 C 
ATOM     25  C   UNL     1      -3.339  10.930  16.576  0.00  0.00    +0.000 C 
ENDBRANCH  23  25
ENDBRANCH  16  23
ENDBRANCH  14  18
ENDBRANCH   1  14
TORSDOF 5
ENDMDL
MODEL 2
REMARK VINA RESULT:      -7.2      1.268      1.513
REMARK  Name = 
REMARK  6 active torsions:
REMARK  status: ('A' for Active; 'I' for Inactive)
REMARK    1  A    between atoms: C_1  and  C_2
REMARK    2  A    between atoms: C_2  and  O_3
REMARK    3  A    between atoms: O_3  and  C_4
REMARK    4  A    between atoms: C_6  and  N_7
REMARK    5  A    between atoms: N_7  and  C_8
REMARK    6  A    between atoms: C_11  and  C_12
REMARK                            x       y       z     vdW  Elec       q    Type
REMARK                         _______ _______ _______ _____ _____    ______ ____
ROOT
ATOM      1  C   UNL     1       2.185   7.375  18.788  0.00  0.00    +0.000 A 
ATOM      2  C   UNL     1       2.027   7.011  20.128  0.00  0.00    +0.000 A 
ATOM      3  C   UNL     1       1.961   5.673  20.512  0.00  0.00    +0.000 A 
ATOM      4  C   UNL     1       1.971   4.652  19.554  0.00  0.00    +0.000 A 
ATOM      5  C   UNL     1       2.201   5.014  18.215  0.00  0.00    +0.000 A 
ATOM      6  C   UNL     1       2.278   6.360  17.833  0.00  0.00    +0.000 A 
ENDROOT
BRANCH   4   7
ATOM      7  C   UNL     1       1.707   3.201  19.954  0.00  0.00    +0.000 C 
ATOM      8  C   UNL     1       1.302   2.260  18.779  0.00  0.00    +0.000 C 
ATOM      9  N   UNL     1       2.392   2.075  17.793  0.00  0.00    +0.000 NA
ATOM     10  C   UNL     1       3.548   1.521  18.518  0.00  0.00    +0.000 C 
ATOM     11  C   UNL     1       3.945   2.348  19.749  0.00  0.00    +0.000 C 
ATOM     12  O   UNL     1       2.842   2.615  20.633  0.00  0.00    +0.000 OA
ATOM     13  H   UNL     1       2.654   2.998  17.437  0.00  0.00    +0.000 HD
ENDBRANCH   4   7
BRANCH   1  14
ATOM     14  N   UNL     1       2.193   8.732  18.378  0.00  0.00    +0.000 N 
ATOM     15  H   UNL     1       2.662   8.816  17.476  0.00  0.00    +0.000 HD
BRANCH  14  18
ATOM     16  C   UNL     1      -1.171  10.321  17.982  0.00  0.00    +0.000 A 
ATOM     17  C   UNL     1      -0.087   9.442  17.796  0.00  0.00    +0.000 A 
ATOM     18  C   UNL     1       1.103   9.621  18.509  0.00  0.00    +0.000 A 
ATOM     19  C   UNL     1       1.173  10.749  19.326  0.00  0.00    +0.000 A 
ATOM     20  N   UNL     1       0.149  11.593  19.570  0.00  0.00    +0.000 NA
ATOM     21  C   UNL     1      -1.006  11.344  18.918  0.00  0.00    +0.000 A 
ATOM     22 CL   UNL     1      -2.252  12.384  19.490  0.00  0.00    +0.000 Cl
BRANCH  16  23
ATOM     23  O   UNL     1      -2.271  10.009  17.229  0.00  0.00    +0.000 OA
BRANCH  23  25
ATOM     24  C   UNL     1      -2.936  10.129  14.928  0.00  0.00    +0.000 C 
ATOM     25  C   UNL     1      -2.606  10.921  16.180  0.00  0.00    +0.000 C 
ENDBRANCH  23  25
ENDBRANCH  16  23
ENDBRANCH  14  18
ENDBRANCH   1  14
TORSDOF 5
ENDMDL
MODEL 3
REMARK VINA RESULT:      -7.1      2.339      3.000
REMARK  Name = 
REMARK  6 active torsions:
REMARK  status: ('A' for Active; 'I' for Inactive)
REMARK    1  A    between atoms: C_1  and  C_2
REMARK    2  A    between atoms: C_2  and  O_3
REMARK    3  A    between atoms: O_3  and  C_4
REMARK    4  A    between atoms: C_6  and  N_7
REMARK    5  A    between atoms: N_7  and  C_8
REMARK    6  A    between atoms: C_11  and  C_12
REMARK                            x       y       z     vdW  Elec       q    Type
REMARK                         _______ _______ _______ _____ _____    ______ ____
ROOT
ATOM      1  C   UNL     1       1.913   7.015  20.518  0.00  0.00    +0.000 A 
ATOM      2  C   UNL     1       2.421   7.284  19.244  0.00  0.00    +0.000 A 
ATOM      3  C   UNL     1       2.445   6.303  18.253  0.00  0.00    +0.000 A 
ATOM      4  C   UNL     1       2.034   4.994  18.532  0.00  0.00    +0.000 A 
ATOM      5  C   UNL     1       1.458   4.743  19.789  0.00  0.00    +0.000 A 
ATOM      6  C   UNL     1       1.424   5.734  20.779  0.00  0.00    +0.000 A 
ENDROOT
BRANCH   4   7
ATOM      7  C   UNL     1       2.238   3.876  17.510  0.00  0.00    +0.000 C 
ATOM      8  C   UNL     1       3.727   3.520  17.214  0.00  0.00    +0.000 C 
ATOM      9  N   UNL     1       4.420   2.943  18.389  0.00  0.00    +0.000 NA
ATOM     10  C   UNL     1       3.673   1.737  18.788  0.00  0.00    +0.000 C 
ATOM     11  C   UNL     1       2.176   1.994  19.003  0.00  0.00    +0.000 C 
ATOM     12  O   UNL     1       1.549   2.663  17.894  0.00  0.00    +0.000 OA
ATOM     13  H   UNL     1       4.359   3.620  19.155  0.00  0.00    +0.000 HD
ENDBRANCH   4   7
BRANCH   1  14
ATOM     14  N   UNL     1       1.937   7.985  21.551  0.00  0.00    +0.000 N 
ATOM     15  H   UNL     1       2.901   8.261  21.741  0.00  0.00    +0.000 HD
BRANCH  14  18
ATOM     16  C   UNL     1      -0.318  10.848  20.703  0.00  0.00    +0.000 A 
ATOM     17  C   UNL     1       0.620   9.808  20.558  0.00  0.00    +0.000 A 
ATOM     18  C   UNL     1       1.031   9.063  21.668  0.00  0.00    +0.000 A 
ATOM     19  C   UNL     1       0.531   9.467  22.906  0.00  0.00    +0.000 A 
ATOM     20  N   UNL     1      -0.401  10.426  23.090  0.00  0.00    +0.000 NA
ATOM     21  C   UNL     1      -0.826  11.072  21.984  0.00  0.00    +0.000 A 
ATOM     22 CL   UNL     1      -2.143  12.111  22.368  0.00  0.00    +0.000 Cl
BRANCH  16  23
ATOM     23  O   UNL     1      -0.634  11.475  19.527  0.00  0.00    +0.000 OA
BRANCH  23  25
ATOM     24  C   UNL     1      -1.607  10.225  17.727  0.00  0.00    +0.000 C 
ATOM     25  C   UNL     1      -1.880  11.113  18.927  0.00  0.00    +0.000 C 
ENDBRANCH  23  25
ENDBRANCH  16  23
ENDBRANCH  14  18
ENDBRANCH   1  14
TORSDOF 5
ENDMDL
MODEL 4
REMARK VINA RESULT:      -7.1      0.413      1.076
REMARK  Name = 
REMARK  6 active torsions:
REMARK  status: ('A' for Active; 'I' for Inactive)
REMARK    1  A    between atoms: C_1  and  C_2
REMARK    2  A    between atoms: C_2  and  O_3
REMARK    3  A    between atoms: O_3  and  C_4
REMARK    4  A    between atoms: C_6  and  N_7
REMARK    5  A    between atoms: N_7  and  C_8
REMARK    6  A    between atoms: C_11  and  C_12
REMARK                            x       y       z     vdW  Elec       q    Type
REMARK                         _______ _______ _______ _____ _____    ______ ____
ROOT
ATOM      1  C   UNL     1       2.066   8.286  18.920  0.00  0.00    +0.000 A 
ATOM      2  C   UNL     1       2.659   7.422  17.994  0.00  0.00    +0.000 A 
ATOM      3  C   UNL     1       2.874   6.078  18.294  0.00  0.00    +0.000 A 
ATOM      4  C   UNL     1       2.573   5.571  19.563  0.00  0.00    +0.000 A 
ATOM      5  C   UNL     1       1.913   6.420  20.467  0.00  0.00    +0.000 A 
ATOM      6  C   UNL     1       1.688   7.769  20.160  0.00  0.00    +0.000 A 
ENDROOT
BRANCH   4   7
ATOM      7  C   UNL     1       2.982   4.151  19.955  0.00  0.00    +0.000 C 
ATOM      8  C   UNL     1       2.001   3.431  20.929  0.00  0.00    +0.000 C 
ATOM      9  N   UNL     1       0.677   3.172  20.318  0.00  0.00    +0.000 NA
ATOM     10  C   UNL     1       0.904   2.349  19.117  0.00  0.00    +0.000 C 
ATOM     11  C   UNL     1       1.935   2.953  18.154  0.00  0.00    +0.000 C 
ATOM     12  O   UNL     1       3.173   3.306  18.796  0.00  0.00    +0.000 OA
ATOM     13  H   UNL     1       0.288   4.069  20.017  0.00  0.00    +0.000 HD
ENDBRANCH   4   7
BRANCH   1  14
ATOM     14  N   UNL     1       1.897   9.667  18.650  0.00  0.00    +0.000 N 
ATOM     15  H   UNL     1       2.383   9.911  17.787  0.00  0.00    +0.000 HD
BRANCH  14  18
ATOM     16  C   UNL     1      -1.659  10.773  18.283  0.00  0.00    +0.000 A 
ATOM     17  C   UNL     1      -0.457  10.073  18.066  0.00  0.00    +0.000 A 
ATOM     18  C   UNL     1       0.687  10.379  18.811  0.00  0.00    +0.000 A 
ATOM     19  C   UNL     1       0.583  11.454  19.694  0.00  0.00    +0.000 A 
ATOM     20  N   UNL     1      -0.556  12.124  19.968  0.00  0.00    +0.000 NA
ATOM     21  C   UNL     1      -1.655  11.750  19.280  0.00  0.00    +0.000 A 
ATOM     22 CL   UNL     1      -3.046  12.561  19.888  0.00  0.00    +0.000 Cl
BRANCH  16  23
ATOM     23  O   UNL     1      -2.694  10.351  17.492  0.00  0.00    +0.000 OA
BRANCH  23  25
ATOM     24  C   UNL     1      -2.991   9.988  15.140  0.00  0.00    +0.000 C 
ATOM     25  C   UNL     1      -2.857  11.024  16.241  0.00  0.00    +0.000 C 
ENDBRANCH  23  25
ENDBRANCH  16  23
ENDBRANCH  14  18
ENDBRANCH   1  14
TORSDOF 5
ENDMDL
MODEL 5
REMARK VINA RESULT:      -7.1      3.916      8.143
REMARK  Name = 
REMARK  6 active torsions:
REMARK  status: ('A' for Active; 'I' for Inactive)
REMARK    1  A    between atoms: C_1  and  C_2
REMARK    2  A    between atoms: C_2  and  O_3
REMARK    3  A    between atoms: O_3  and  C_4
REMARK    4  A    between atoms: C_6  and  N_7
REMARK    5  A    between atoms: N_7  and  C_8
REMARK    6  A    between atoms: C_11  and  C_12
REMARK                            x       y       z     vdW  Elec       q    Type
REMARK                         _______ _______ _______ _____ _____    ______ ____
ROOT
ATOM      1  C   UNL     1       2.152   7.491  19.343  0.00  0.00    +0.000 A 
ATOM      2  C   UNL     1       2.093   8.306  18.209  0.00  0.00    +0.000 A 
ATOM      3  C   UNL     1       1.450   9.542  18.239  0.00  0.00    +0.000 A 
ATOM      4  C   UNL     1       0.774   9.969  19.388  0.00  0.00    +0.000 A 
ATOM      5  C   UNL     1       0.893   9.184  20.547  0.00  0.00    +0.000 A 
ATOM      6  C   UNL     1       1.550   7.946  20.517  0.00  0.00    +0.000 A 
ENDROOT
BRANCH   4   7
ATOM      7  C   UNL     1      -0.089  11.231  19.364  0.00  0.00    +0.000 C 
ATOM      8  C   UNL     1      -0.557  11.732  20.764  0.00  0.00    +0.000 C 
ATOM      9  N   UNL     1       0.568  12.190  21.612  0.00  0.00    +0.000 NA
ATOM     10  C   UNL     1       1.253  13.272  20.882  0.00  0.00    +0.000 C 
ATOM     11  C   UNL     1       1.659  12.878  19.455  0.00  0.00    +0.000 C 
ATOM     12  O   UNL     1       0.574  12.325  18.689  0.00  0.00    +0.000 OA
ATOM     13  H   UNL     1       1.224  11.411  21.712  0.00  0.00    +0.000 HD
ENDBRANCH   4   7
BRANCH   1  14
ATOM     14  N   UNL     1       2.750   6.206  19.309  0.00  0.00    +0.000 N 
ATOM     15  H   UNL     1       2.080   5.507  19.630  0.00  0.00    +0.000 HD
BRANCH  14  18
ATOM     16  C   UNL     1       5.516   5.924  16.805  0.00  0.00    +0.000 A 
ATOM     17  C   UNL     1       4.687   6.449  17.815  0.00  0.00    +0.000 A 
ATOM     18  C   UNL     1       3.577   5.728  18.268  0.00  0.00    +0.000 A 
ATOM     19  C   UNL     1       3.304   4.529  17.609  0.00  0.00    +0.000 A 
ATOM     20  N   UNL     1       4.092   3.965  16.670  0.00  0.00    +0.000 NA
ATOM     21  C   UNL     1       5.193   4.658  16.312  0.00  0.00    +0.000 A 
ATOM     22 CL   UNL     1       6.178   3.715  15.263  0.00  0.00    +0.000 Cl
BRANCH  16  23
ATOM     23  O   UNL     1       6.570   6.735  16.478  0.00  0.00    +0.000 OA
BRANCH  23  25
ATOM     24  C   UNL     1       7.846   8.409  17.626  0.00  0.00    +0.000 C 
ATOM     25  C   UNL     1       7.566   6.924  17.486  0.00  0.00    +0.000 C 
ENDBRANCH  23  25
ENDBRANCH  16  23
ENDBRANCH  14  18
ENDBRANCH   1  14
TORSDOF 5
ENDMDL
MODEL 6
REMARK VINA RESULT:      -7.1      1.123      1.648
REMARK  Name = 
REMARK  6 active torsions:
REMARK  status: ('A' for Active; 'I' for Inactive)
REMARK    1  A    between atoms: C_1  and  C_2
REMARK    2  A    between atoms: C_2  and  O_3
REMARK    3  A    between atoms: O_3  and  C_4
REMARK    4  A    between atoms: C_6  and  N_7
REMARK    5  A    between atoms: N_7  and  C_8
REMARK    6  A    between atoms: C_11  and  C_12
REMARK                            x       y       z     vdW  Elec       q    Type
REMARK                         _______ _______ _______ _____ _____    ______ ____
ROOT
ATOM      1  C   UNL     1       1.401   9.228  19.124  0.00  0.00    +0.000 A 
ATOM      2  C   UNL     1       2.009   8.478  18.114  0.00  0.00    +0.000 A 
ATOM      3  C   UNL     1       2.423   7.166  18.337  0.00  0.00    +0.000 A 
ATOM      4  C   UNL     1       2.315   6.588  19.607  0.00  0.00    +0.000 A 
ATOM      5  C   UNL     1       1.641   7.316  20.603  0.00  0.00    +0.000 A 
ATOM      6  C   UNL     1       1.215   8.631  20.372  0.00  0.00    +0.000 A 
ENDROOT
BRANCH   4   7
ATOM      7  C   UNL     1       2.941   5.225  19.902  0.00  0.00    +0.000 C 
ATOM      8  C   UNL     1       2.151   4.346  20.920  0.00  0.00    +0.000 C 
ATOM      9  N   UNL     1       0.825   3.931  20.407  0.00  0.00    +0.000 NA
ATOM     10  C   UNL     1       1.053   3.186  19.157  0.00  0.00    +0.000 C 
ATOM     11  C   UNL     1       1.909   3.956  18.141  0.00  0.00    +0.000 C 
ATOM     12  O   UNL     1       3.140   4.452  18.695  0.00  0.00    +0.000 OA
ATOM     13  H   UNL     1       0.296   4.777  20.179  0.00  0.00    +0.000 HD
ENDBRANCH   4   7
BRANCH   1  14
ATOM     14  N   UNL     1       1.029  10.583  18.928  0.00  0.00    +0.000 N 
ATOM     15  H   UNL     1       1.559  10.975  18.149  0.00  0.00    +0.000 HD
BRANCH  14  18
ATOM     16  C   UNL     1      -2.555  11.261  18.097  0.00  0.00    +0.000 A 
ATOM     17  C   UNL     1      -1.232  10.793  17.986  0.00  0.00    +0.000 A 
ATOM     18  C   UNL     1      -0.294  11.073  18.986  0.00  0.00    +0.000 A 
ATOM     19  C   UNL     1      -0.723  11.898  20.026  0.00  0.00    +0.000 A 
ATOM     20  N   UNL     1      -1.989  12.333  20.197  0.00  0.00    +0.000 NA
ATOM     21  C   UNL     1      -2.881  11.980  19.248  0.00  0.00    +0.000 A 
ATOM     22 CL   UNL     1      -4.470  12.443  19.719  0.00  0.00    +0.000 Cl
BRANCH  16  23
ATOM     23  O   UNL     1      -3.360  10.894  17.051  0.00  0.00    +0.000 OA
BRANCH  23  25
ATOM     24  C   UNL     1      -3.275   9.951  14.848  0.00  0.00    +0.000 C 
ATOM     25  C   UNL     1      -2.833  11.098  15.738  0.00  0.00    +0.000 C 
ENDBRANCH  23  25
ENDBRANCH  16  23
ENDBRANCH  14  18
ENDBRANCH   1  14
TORSDOF 5
ENDMDL
MODEL 7
REMARK VINA RESULT:      -7.0      3.966      8.156
REMARK  Name = 
REMARK  6 active torsions:
REMARK  status: ('A' for Active; 'I' for Inactive)
REMARK    1  A    between atoms: C_1  and  C_2
REMARK    2  A    between atoms: C_2  and  O_3
REMARK    3  A    between atoms: O_3  and  C_4
REMARK    4  A    between atoms: C_6  and  N_7
REMARK    5  A    between atoms: N_7  and  C_8
REMARK    6  A    between atoms: C_11  and  C_12
REMARK                            x       y       z     vdW  Elec       q    Type
REMARK                         _______ _______ _______ _____ _____    ______ ____
ROOT
ATOM      1  C   UNL     1       2.080   7.297  19.256  0.00  0.00    +0.000 A 
ATOM      2  C   UNL     1       2.117   8.059  18.085  0.00  0.00    +0.000 A 
ATOM      3  C   UNL     1       1.663   9.376  18.064  0.00  0.00    +0.000 A 
ATOM      4  C   UNL     1       1.081   9.951  19.200  0.00  0.00    +0.000 A 
ATOM      5  C   UNL     1       1.108   9.210  20.395  0.00  0.00    +0.000 A 
ATOM      6  C   UNL     1       1.576   7.889  20.416  0.00  0.00    +0.000 A 
ENDROOT
BRANCH   4   7
ATOM      7  C   UNL     1       0.411  11.323  19.128  0.00  0.00    +0.000 C 
ATOM      8  C   UNL     1       0.190  12.019  20.505  0.00  0.00    +0.000 C 
ATOM      9  N   UNL     1       1.463  12.374  21.175  0.00  0.00    +0.000 NA
ATOM     10  C   UNL     1       2.204  13.264  20.263  0.00  0.00    +0.000 C 
ATOM     11  C   UNL     1       2.375  12.680  18.854  0.00  0.00    +0.000 C 
ATOM     12  O   UNL     1       1.139  12.233  18.270  0.00  0.00    +0.000 OA
ATOM     13  H   UNL     1       2.008  11.516  21.292  0.00  0.00    +0.000 HD
ENDBRANCH   4   7
BRANCH   1  14
ATOM     14  N   UNL     1       2.483   5.938  19.276  0.00  0.00    +0.000 N 
ATOM     15  H   UNL     1       1.694   5.342  19.024  0.00  0.00    +0.000 HD
BRANCH  14  18
ATOM     16  C   UNL     1       5.083   4.506  16.998  0.00  0.00    +0.000 A 
ATOM     17  C   UNL     1       3.833   4.940  17.480  0.00  0.00    +0.000 A 
ATOM     18  C   UNL     1       3.712   5.453  18.776  0.00  0.00    +0.000 A 
ATOM     19  C   UNL     1       4.862   5.423  19.566  0.00  0.00    +0.000 A 
ATOM     20  N   UNL     1       6.088   5.058  19.135  0.00  0.00    +0.000 NA
ATOM     21  C   UNL     1       6.177   4.638  17.856  0.00  0.00    +0.000 A 
ATOM     22 CL   UNL     1       7.823   4.405  17.416  0.00  0.00    +0.000 Cl
BRANCH  16  23
ATOM     23  O   UNL     1       5.047   4.046  15.709  0.00  0.00    +0.000 OA
BRANCH  23  25
ATOM     24  C   UNL     1       6.302   3.984  13.667  0.00  0.00    +0.000 C 
ATOM     25  C   UNL     1       5.665   4.872  14.719  0.00  0.00    +0.000 C 
ENDBRANCH  23  25
ENDBRANCH  16  23
ENDBRANCH  14  18
ENDBRANCH   1  14
TORSDOF 5
ENDMDL
MODEL 8
REMARK VINA RESULT:      -7.0      3.979      8.122
REMARK  Name = 
REMARK  6 active torsions:
REMARK  status: ('A' for Active; 'I' for Inactive)
REMARK    1  A    between atoms: C_1  and  C_2
REMARK    2  A    between atoms: C_2  and  O_3
REMARK    3  A    between atoms: O_3  and  C_4
REMARK    4  A    between atoms: C_6  and  N_7
REMARK    5  A    between atoms: N_7  and  C_8
REMARK    6  A    between atoms: C_11  and  C_12
REMARK                            x       y       z     vdW  Elec       q    Type
REMARK                         _______ _______ _______ _____ _____    ______ ____
ROOT
ATOM      1  C   UNL     1       2.381   7.256  19.605  0.00  0.00    +0.000 A 
ATOM      2  C   UNL     1       1.642   7.661  20.720  0.00  0.00    +0.000 A 
ATOM      3  C   UNL     1       0.828   8.792  20.676  0.00  0.00    +0.000 A 
ATOM      4  C   UNL     1       0.789   9.602  19.536  0.00  0.00    +0.000 A 
ATOM      5  C   UNL     1       1.475   9.156  18.393  0.00  0.00    +0.000 A 
ATOM      6  C   UNL     1       2.284   8.013  18.436  0.00  0.00    +0.000 A 
ENDROOT
BRANCH   4   7
ATOM      7  C   UNL     1       0.050  10.940  19.552  0.00  0.00    +0.000 C 
ATOM      8  C   UNL     1       0.053  11.675  20.927  0.00  0.00    +0.000 C 
ATOM      9  N   UNL     1       1.408  12.109  21.338  0.00  0.00    +0.000 NA
ATOM     10  C   UNL     1       1.923  12.997  20.281  0.00  0.00    +0.000 C 
ATOM     11  C   UNL     1       1.860  12.371  18.881  0.00  0.00    +0.000 C 
ATOM     12  O   UNL     1       0.561  11.849  18.550  0.00  0.00    +0.000 OA
ATOM     13  H   UNL     1       2.007  11.280  21.375  0.00  0.00    +0.000 HD
ENDBRANCH   4   7
BRANCH   1  14
ATOM     14  N   UNL     1       3.258   6.143  19.654  0.00  0.00    +0.000 N 
ATOM     15  H   UNL     1       2.836   5.397  20.207  0.00  0.00    +0.000 HD
BRANCH  14  18
ATOM     16  C   UNL     1       6.051   5.503  17.248  0.00  0.00    +0.000 A 
ATOM     17  C   UNL     1       5.324   6.045  18.325  0.00  0.00    +0.000 A 
ATOM     18  C   UNL     1       4.001   5.653  18.558  0.00  0.00    +0.000 A 
ATOM     19  C   UNL     1       3.439   4.782  17.624  0.00  0.00    +0.000 A 
ATOM     20  N   UNL     1       4.107   4.203  16.604  0.00  0.00    +0.000 NA
ATOM     21  C   UNL     1       5.402   4.552  16.457  0.00  0.00    +0.000 A 
ATOM     22 CL   UNL     1       6.149   3.583  15.248  0.00  0.00    +0.000 Cl
BRANCH  16  23
ATOM     23  O   UNL     1       7.335   5.969  17.158  0.00  0.00    +0.000 OA
BRANCH  23  25
ATOM     24  C   UNL     1       7.947   8.237  17.638  0.00  0.00    +0.000 C 
ATOM     25  C   UNL     1       7.773   6.840  18.204  0.00  0.00    +0.000 C 
ENDBRANCH  23  25
ENDBRANCH  16  23
ENDBRANCH  14  18
ENDBRANCH   1  14
TORSDOF 5
ENDMDL
MODEL 9
REMARK VINA RESULT:      -6.9      3.478      7.773
REMARK  Name = 
REMARK  6 active torsions:
REMARK  status: ('A' for Active; 'I' for Inactive)
REMARK    1  A    between atoms: C_1  and  C_2
REMARK    2  A    between atoms: C_2  and  O_3
REMARK    3  A    between atoms: O_3  and  C_4
REMARK    4  A    between atoms: C_6  and  N_7
REMARK    5  A    between atoms: N_7  and  C_8
REMARK    6  A    between atoms: C_11  and  C_12
REMARK                            x       y       z     vdW  Elec       q    Type
REMARK                         _______ _______ _______ _____ _____    ______ ____
ROOT
ATOM      1  C   UNL     1       2.244   8.088  18.505  0.00  0.00    +0.000 A 
ATOM      2  C   UNL     1       1.954   8.109  19.872  0.00  0.00    +0.000 A 
ATOM      3  C   UNL     1       0.988   8.968  20.393  0.00  0.00    +0.000 A 
ATOM      4  C   UNL     1       0.334   9.893  19.570  0.00  0.00    +0.000 A 
ATOM      5  C   UNL     1       0.574   9.823  18.187  0.00  0.00    +0.000 A 
ATOM      6  C   UNL     1       1.538   8.950  17.665  0.00  0.00    +0.000 A 
ENDROOT
BRANCH   4   7
ATOM      7  C   UNL     1      -0.582  10.961  20.168  0.00  0.00    +0.000 C 
ATOM      8  C   UNL     1      -0.097  11.557  21.525  0.00  0.00    +0.000 C 
ATOM      9  N   UNL     1       1.163  12.323  21.394  0.00  0.00    +0.000 NA
ATOM     10  C   UNL     1       0.921  13.401  20.418  0.00  0.00    +0.000 C 
ATOM     11  C   UNL     1       0.350  12.895  19.087  0.00  0.00    +0.000 C 
ATOM     12  O   UNL     1      -0.807  12.054  19.247  0.00  0.00    +0.000 OA
ATOM     13  H   UNL     1       1.873  11.698  21.004  0.00  0.00    +0.000 HD
ENDBRANCH   4   7
BRANCH   1  14
ATOM     14  N   UNL     1       3.266   7.262  17.971  0.00  0.00    +0.000 N 
ATOM     15  H   UNL     1       4.174   7.707  18.110  0.00  0.00    +0.000 HD
BRANCH  14  18
ATOM     16  C   UNL     1       2.323   3.717  18.707  0.00  0.00    +0.000 A 
ATOM     17  C   UNL     1       2.251   5.121  18.625  0.00  0.00    +0.000 A 
ATOM     18  C   UNL     1       3.322   5.858  18.107  0.00  0.00    +0.000 A 
ATOM     19  C   UNL     1       4.467   5.135  17.771  0.00  0.00    +0.000 A 
ATOM     20  N   UNL     1       4.568   3.790  17.790  0.00  0.00    +0.000 NA
ATOM     21  C   UNL     1       3.486   3.111  18.227  0.00  0.00    +0.000 A 
ATOM     22 CL   UNL     1       3.709   1.420  18.000  0.00  0.00    +0.000 Cl
BRANCH  16  23
ATOM     23  O   UNL     1       1.195   3.135  19.219  0.00  0.00    +0.000 OA
BRANCH  23  25
ATOM     24  C   UNL     1       1.667   2.652  21.519  0.00  0.00    +0.000 C 
ATOM     25  C   UNL     1       0.845   3.490  20.558  0.00  0.00    +0.000 C 
ENDBRANCH  23  25
ENDBRANCH  16  23
ENDBRANCH  14  18
ENDBRANCH   1  14
TORSDOF 5
ENDMDL
