MODEL 1
REMARK VINA RESULT:     -10.3      0.000      0.000
REMARK  Name = 
REMARK  3 active torsions:
REMARK  status: ('A' for Active; 'I' for Inactive)
REMARK    1  A    between atoms: C_7  and  N_8
REMARK    2  A    between atoms: N_13  and  C_14
REMARK    3  A    between atoms: C_14  and  C_15
REMARK                            x       y       z     vdW  Elec       q    Type
REMARK                         _______ _______ _______ _____ _____    ______ ____
ROOT
ATOM      1  N   UNL     1       6.567   4.271  13.421  0.00  0.00    +0.000 N 
ATOM      2  C   UNL     1       7.705   5.008  13.151  0.00  0.00    +0.000 A 
ATOM      3  N   UNL     1       8.099   5.738  14.171  0.00  0.00    +0.000 NA
ATOM      4  C   UNL     1       7.190   5.455  15.165  0.00  0.00    +0.000 A 
ATOM      5  C   UNL     1       7.047   5.954  16.468  0.00  0.00    +0.000 A 
ATOM      6  N   UNL     1       7.896   6.965  16.913  0.00  0.00    +0.000 N 
ATOM      7  N   UNL     1       6.069   5.413  17.244  0.00  0.00    +0.000 NA
ATOM      8  C   UNL     1       5.267   4.427  16.767  0.00  0.00    +0.000 A 
ATOM      9  N   UNL     1       4.426   3.777  17.636  0.00  0.00    +0.000 N 
ATOM     10  C   UNL     1       4.356   4.124  19.053  0.00  0.00    +0.000 C 
ATOM     11  C   UNL     1       4.309   2.829  19.886  0.00  0.00    +0.000 C 
ATOM     12  O   UNL     1       3.236   1.965  19.469  0.00  0.00    +0.000 OA
ATOM     13  C   UNL     1       3.400   1.597  18.090  0.00  0.00    +0.000 C 
ATOM     14  C   UNL     1       3.410   2.830  17.172  0.00  0.00    +0.000 C 
ATOM     15  N   UNL     1       5.285   3.991  15.497  0.00  0.00    +0.000 NA
ATOM     16  C   UNL     1       6.252   4.535  14.743  0.00  0.00    +0.000 A 
ATOM     17  H   UNL     1       8.865   6.682  16.782  0.00  0.00    +0.000 HD
ENDROOT
BRANCH   1  24
ATOM     18  F   UNL     1       2.802   3.388  10.565  0.00  0.00    +0.000 F 
ATOM     19  C   UNL     1       3.977   2.998  11.076  0.00  0.00    +0.000 A 
ATOM     20  C   UNL     1       4.527   1.790  10.674  0.00  0.00    +0.000 A 
ATOM     21  C   UNL     1       5.756   1.413  11.192  0.00  0.00    +0.000 A 
ATOM     22  F   UNL     1       6.292   0.240  10.833  0.00  0.00    +0.000 F 
ATOM     23  C   UNL     1       6.447   2.227  12.089  0.00  0.00    +0.000 A 
ATOM     24  C   UNL     1       5.875   3.437  12.504  0.00  0.00    +0.000 A 
ATOM     25  C   UNL     1       4.627   3.820  11.995  0.00  0.00    +0.000 A 
ENDBRANCH   1  24
BRANCH   6  26
ATOM     26  C   UNL     1       7.602   7.619  18.174  0.00  0.00    +0.000 C 
BRANCH  26  27
ATOM     27  C   UNL     1       8.237   8.978  18.275  0.00  0.00    +0.000 A 
ATOM     28  N   UNL     1       7.932  10.058  17.583  0.00  0.00    +0.000 NA
ATOM     29  C   UNL     1       8.746  11.064  18.067  0.00  0.00    +0.000 A 
ATOM     30  C   UNL     1       8.842  12.419  17.707  0.00  0.00    +0.000 A 
ATOM     31  F   UNL     1       8.073  12.934  16.742  0.00  0.00    +0.000 F 
ATOM     32  C   UNL     1       9.754  13.227  18.385  0.00  0.00    +0.000 A 
ATOM     33  F   UNL     1       9.857  14.524  18.062  0.00  0.00    +0.000 F 
ATOM     34  C   UNL     1      10.564  12.720  19.400  0.00  0.00    +0.000 A 
ATOM     35  C   UNL     1      10.491  11.373  19.773  0.00  0.00    +0.000 A 
ATOM     36  C   UNL     1       9.569  10.573  19.082  0.00  0.00    +0.000 A 
ATOM     37  N   UNL     1       9.239   9.249  19.186  0.00  0.00    +0.000 N 
ATOM     38  H   UNL     1       9.616   8.576  19.838  0.00  0.00    +0.000 HD
ENDBRANCH  26  27
ENDBRANCH   6  26
TORSDOF 3
ENDMDL
MODEL 2
REMARK VINA RESULT:     -10.2      0.038      1.369
REMARK  Name = 
REMARK  3 active torsions:
REMARK  status: ('A' for Active; 'I' for Inactive)
REMARK    1  A    between atoms: C_7  and  N_8
REMARK    2  A    between atoms: N_13  and  C_14
REMARK    3  A    between atoms: C_14  and  C_15
REMARK                            x       y       z     vdW  Elec       q    Type
REMARK                         _______ _______ _______ _____ _____    ______ ____
ROOT
ATOM      1  N   UNL     1       6.578   4.278  13.420  0.00  0.00    +0.000 N 
ATOM      2  C   UNL     1       7.714   5.020  13.154  0.00  0.00    +0.000 A 
ATOM      3  N   UNL     1       8.100   5.751  14.175  0.00  0.00    +0.000 NA
ATOM      4  C   UNL     1       7.189   5.465  15.166  0.00  0.00    +0.000 A 
ATOM      5  C   UNL     1       7.037   5.963  16.467  0.00  0.00    +0.000 A 
ATOM      6  N   UNL     1       7.879   6.979  16.916  0.00  0.00    +0.000 N 
ATOM      7  N   UNL     1       6.058   5.418  17.239  0.00  0.00    +0.000 NA
ATOM      8  C   UNL     1       5.263   4.429  16.760  0.00  0.00    +0.000 A 
ATOM      9  N   UNL     1       4.422   3.775  17.625  0.00  0.00    +0.000 N 
ATOM     10  C   UNL     1       4.343   4.122  19.042  0.00  0.00    +0.000 C 
ATOM     11  C   UNL     1       4.299   2.827  19.875  0.00  0.00    +0.000 C 
ATOM     12  O   UNL     1       3.232   1.958  19.454  0.00  0.00    +0.000 OA
ATOM     13  C   UNL     1       3.404   1.590  18.076  0.00  0.00    +0.000 C 
ATOM     14  C   UNL     1       3.412   2.823  17.157  0.00  0.00    +0.000 C 
ATOM     15  N   UNL     1       5.289   3.992  15.489  0.00  0.00    +0.000 NA
ATOM     16  C   UNL     1       6.257   4.540  14.740  0.00  0.00    +0.000 A 
ATOM     17  H   UNL     1       8.851   6.700  16.789  0.00  0.00    +0.000 HD
ENDROOT
BRANCH   1  24
ATOM     18  F   UNL     1       6.292   0.232  10.838  0.00  0.00    +0.000 F 
ATOM     19  C   UNL     1       5.762   1.408  11.201  0.00  0.00    +0.000 A 
ATOM     20  C   UNL     1       4.524   1.781  10.697  0.00  0.00    +0.000 A 
ATOM     21  C   UNL     1       3.977   2.988  11.104  0.00  0.00    +0.000 A 
ATOM     22  F   UNL     1       2.794   3.374  10.611  0.00  0.00    +0.000 F 
ATOM     23  C   UNL     1       4.636   3.815  12.011  0.00  0.00    +0.000 A 
ATOM     24  C   UNL     1       5.895   3.440  12.500  0.00  0.00    +0.000 A 
ATOM     25  C   UNL     1       6.461   2.227  12.085  0.00  0.00    +0.000 A 
ENDBRANCH   1  24
BRANCH   6  26
ATOM     26  C   UNL     1       7.577   7.632  18.175  0.00  0.00    +0.000 C 
BRANCH  26  27
ATOM     27  C   UNL     1       8.229   8.982  18.291  0.00  0.00    +0.000 A 
ATOM     28  N   UNL     1       7.951  10.068  17.598  0.00  0.00    +0.000 NA
ATOM     29  C   UNL     1       8.771  11.061  18.098  0.00  0.00    +0.000 A 
ATOM     30  C   UNL     1       8.891  12.415  17.744  0.00  0.00    +0.000 A 
ATOM     31  F   UNL     1       8.145  12.945  16.768  0.00  0.00    +0.000 F 
ATOM     32  C   UNL     1       9.804  13.208  18.438  0.00  0.00    +0.000 A 
ATOM     33  F   UNL     1       9.931  14.504  18.122  0.00  0.00    +0.000 F 
ATOM     34  C   UNL     1      10.590  12.687  19.465  0.00  0.00    +0.000 A 
ATOM     35  C   UNL     1      10.492  11.340  19.832  0.00  0.00    +0.000 A 
ATOM     36  C   UNL     1       9.571  10.555  19.124  0.00  0.00    +0.000 A 
ATOM     37  N   UNL     1       9.220   9.236  19.218  0.00  0.00    +0.000 N 
ATOM     38  H   UNL     1       9.577   8.556  19.874  0.00  0.00    +0.000 HD
ENDBRANCH  26  27
ENDBRANCH   6  26
TORSDOF 3
ENDMDL
MODEL 3
REMARK VINA RESULT:      -9.7      0.812      1.339
REMARK  Name = 
REMARK  3 active torsions:
REMARK  status: ('A' for Active; 'I' for Inactive)
REMARK    1  A    between atoms: C_7  and  N_8
REMARK    2  A    between atoms: N_13  and  C_14
REMARK    3  A    between atoms: C_14  and  C_15
REMARK                            x       y       z     vdW  Elec       q    Type
REMARK                         _______ _______ _______ _____ _____    ______ ____
ROOT
ATOM      1  N   UNL     1       6.584   4.305  13.457  0.00  0.00    +0.000 N 
ATOM      2  C   UNL     1       7.724   5.040  13.189  0.00  0.00    +0.000 A 
ATOM      3  N   UNL     1       8.114   5.773  14.208  0.00  0.00    +0.000 NA
ATOM      4  C   UNL     1       7.201   5.495  15.199  0.00  0.00    +0.000 A 
ATOM      5  C   UNL     1       7.052   5.999  16.499  0.00  0.00    +0.000 A 
ATOM      6  N   UNL     1       7.899   7.012  16.943  0.00  0.00    +0.000 N 
ATOM      7  N   UNL     1       6.070   5.463  17.272  0.00  0.00    +0.000 NA
ATOM      8  C   UNL     1       5.269   4.475  16.797  0.00  0.00    +0.000 A 
ATOM      9  N   UNL     1       4.424   3.829  17.664  0.00  0.00    +0.000 N 
ATOM     10  C   UNL     1       4.348   4.182  19.080  0.00  0.00    +0.000 C 
ATOM     11  C   UNL     1       4.296   2.891  19.917  0.00  0.00    +0.000 C 
ATOM     12  O   UNL     1       3.225   2.026  19.500  0.00  0.00    +0.000 OA
ATOM     13  C   UNL     1       3.395   1.652  18.123  0.00  0.00    +0.000 C 
ATOM     14  C   UNL     1       3.410   2.881  17.200  0.00  0.00    +0.000 C 
ATOM     15  N   UNL     1       5.293   4.034  15.528  0.00  0.00    +0.000 NA
ATOM     16  C   UNL     1       6.264   4.574  14.776  0.00  0.00    +0.000 A 
ATOM     17  H   UNL     1       8.869   6.728  16.818  0.00  0.00    +0.000 HD
ENDROOT
BRANCH   1  24
ATOM     18  F   UNL     1       2.836   3.415  10.582  0.00  0.00    +0.000 F 
ATOM     19  C   UNL     1       4.007   3.025  11.103  0.00  0.00    +0.000 A 
ATOM     20  C   UNL     1       4.556   1.812  10.712  0.00  0.00    +0.000 A 
ATOM     21  C   UNL     1       5.780   1.436  11.240  0.00  0.00    +0.000 A 
ATOM     22  F   UNL     1       6.315   0.259  10.891  0.00  0.00    +0.000 F 
ATOM     23  C   UNL     1       6.468   2.253  12.136  0.00  0.00    +0.000 A 
ATOM     24  C   UNL     1       5.896   3.467  12.540  0.00  0.00    +0.000 A 
ATOM     25  C   UNL     1       4.653   3.851  12.021  0.00  0.00    +0.000 A 
ENDBRANCH   1  24
BRANCH   6  26
ATOM     26  C   UNL     1       7.600   7.671  18.200  0.00  0.00    +0.000 C 
BRANCH  26  27
ATOM     27  C   UNL     1       8.221   9.038  18.291  0.00  0.00    +0.000 A 
ATOM     28  N   UNL     1       9.301   9.385  18.962  0.00  0.00    +0.000 NA
ATOM     29  C   UNL     1       9.503  10.725  18.695  0.00  0.00    +0.000 A 
ATOM     30  C   UNL     1      10.507  11.605  19.132  0.00  0.00    +0.000 A 
ATOM     31  F   UNL     1      11.479  11.194  19.954  0.00  0.00    +0.000 F 
ATOM     32  C   UNL     1      10.479  12.926  18.685  0.00  0.00    +0.000 A 
ATOM     33  F   UNL     1      11.430  13.781  19.084  0.00  0.00    +0.000 F 
ATOM     34  C   UNL     1       9.483  13.382  17.823  0.00  0.00    +0.000 A 
ATOM     35  C   UNL     1       8.469  12.526  17.377  0.00  0.00    +0.000 A 
ATOM     36  C   UNL     1       8.511  11.202  17.837  0.00  0.00    +0.000 A 
ATOM     37  N   UNL     1       7.704  10.120  17.607  0.00  0.00    +0.000 N 
ATOM     38  H   UNL     1       6.891  10.083  17.008  0.00  0.00    +0.000 HD
ENDBRANCH  26  27
ENDBRANCH   6  26
TORSDOF 3
ENDMDL
MODEL 4
REMARK VINA RESULT:      -9.6      0.826      1.920
REMARK  Name = 
REMARK  3 active torsions:
REMARK  status: ('A' for Active; 'I' for Inactive)
REMARK    1  A    between atoms: C_7  and  N_8
REMARK    2  A    between atoms: N_13  and  C_14
REMARK    3  A    between atoms: C_14  and  C_15
REMARK                            x       y       z     vdW  Elec       q    Type
REMARK                         _______ _______ _______ _____ _____    ______ ____
ROOT
ATOM      1  N   UNL     1       6.599   4.313  13.448  0.00  0.00    +0.000 N 
ATOM      2  C   UNL     1       7.741   5.045  13.186  0.00  0.00    +0.000 A 
ATOM      3  N   UNL     1       8.123   5.784  14.204  0.00  0.00    +0.000 NA
ATOM      4  C   UNL     1       7.201   5.511  15.189  0.00  0.00    +0.000 A 
ATOM      5  C   UNL     1       7.041   6.022  16.485  0.00  0.00    +0.000 A 
ATOM      6  N   UNL     1       7.886   7.036  16.931  0.00  0.00    +0.000 N 
ATOM      7  N   UNL     1       6.052   5.490  17.253  0.00  0.00    +0.000 NA
ATOM      8  C   UNL     1       5.255   4.501  16.775  0.00  0.00    +0.000 A 
ATOM      9  N   UNL     1       4.402   3.860  17.639  0.00  0.00    +0.000 N 
ATOM     10  C   UNL     1       4.314   4.221  19.052  0.00  0.00    +0.000 C 
ATOM     11  C   UNL     1       4.253   2.934  19.895  0.00  0.00    +0.000 C 
ATOM     12  O   UNL     1       3.185   2.068  19.473  0.00  0.00    +0.000 OA
ATOM     13  C   UNL     1       3.366   1.686  18.099  0.00  0.00    +0.000 C 
ATOM     14  C   UNL     1       3.390   2.911  17.170  0.00  0.00    +0.000 C 
ATOM     15  N   UNL     1       5.289   4.053  15.509  0.00  0.00    +0.000 NA
ATOM     16  C   UNL     1       6.267   4.589  14.763  0.00  0.00    +0.000 A 
ATOM     17  H   UNL     1       8.857   6.751  16.816  0.00  0.00    +0.000 HD
ENDROOT
BRANCH   1  24
ATOM     18  F   UNL     1       6.309   0.246  10.901  0.00  0.00    +0.000 F 
ATOM     19  C   UNL     1       5.783   1.428  11.248  0.00  0.00    +0.000 A 
ATOM     20  C   UNL     1       4.553   1.805  10.730  0.00  0.00    +0.000 A 
ATOM     21  C   UNL     1       4.010   3.019  11.120  0.00  0.00    +0.000 A 
ATOM     22  F   UNL     1       2.834   3.408  10.613  0.00  0.00    +0.000 F 
ATOM     23  C   UNL     1       4.666   3.850  12.026  0.00  0.00    +0.000 A 
ATOM     24  C   UNL     1       5.918   3.471  12.529  0.00  0.00    +0.000 A 
ATOM     25  C   UNL     1       6.480   2.250  12.132  0.00  0.00    +0.000 A 
ENDBRANCH   1  24
BRANCH   6  26
ATOM     26  C   UNL     1       7.577   7.702  18.183  0.00  0.00    +0.000 C 
BRANCH  26  27
ATOM     27  C   UNL     1       8.220   9.058  18.283  0.00  0.00    +0.000 A 
ATOM     28  N   UNL     1       9.301   9.383  18.963  0.00  0.00    +0.000 NA
ATOM     29  C   UNL     1       9.528  10.721  18.702  0.00  0.00    +0.000 A 
ATOM     30  C   UNL     1      10.543  11.583  19.150  0.00  0.00    +0.000 A 
ATOM     31  F   UNL     1      11.502  11.152  19.977  0.00  0.00    +0.000 F 
ATOM     32  C   UNL     1      10.540  12.905  18.708  0.00  0.00    +0.000 A 
ATOM     33  F   UNL     1      11.503  13.743  19.117  0.00  0.00    +0.000 F 
ATOM     34  C   UNL     1       9.558  13.382  17.840  0.00  0.00    +0.000 A 
ATOM     35  C   UNL     1       8.534  12.544  17.385  0.00  0.00    +0.000 A 
ATOM     36  C   UNL     1       8.550  11.218  17.839  0.00  0.00    +0.000 A 
ATOM     37  N   UNL     1       7.727  10.152  17.599  0.00  0.00    +0.000 N 
ATOM     38  H   UNL     1       6.917  10.130  16.995  0.00  0.00    +0.000 HD
ENDBRANCH  26  27
ENDBRANCH   6  26
TORSDOF 3
ENDMDL
MODEL 5
REMARK VINA RESULT:      -9.6      9.150     12.478
REMARK  Name = 
REMARK  3 active torsions:
REMARK  status: ('A' for Active; 'I' for Inactive)
REMARK    1  A    between atoms: C_7  and  N_8
REMARK    2  A    between atoms: N_13  and  C_14
REMARK    3  A    between atoms: C_14  and  C_15
REMARK                            x       y       z     vdW  Elec       q    Type
REMARK                         _______ _______ _______ _____ _____    ______ ____
ROOT
ATOM      1  N   UNL     1      -1.014  12.216  21.465  0.00  0.00    +0.000 N 
ATOM      2  C   UNL     1       0.302  12.322  21.876  0.00  0.00    +0.000 A 
ATOM      3  N   UNL     1       1.140  11.693  21.083  0.00  0.00    +0.000 NA
ATOM      4  C   UNL     1       0.343  11.163  20.093  0.00  0.00    +0.000 A 
ATOM      5  C   UNL     1       0.641  10.351  18.990  0.00  0.00    +0.000 A 
ATOM      6  N   UNL     1       1.944   9.895  18.806  0.00  0.00    +0.000 N 
ATOM      7  N   UNL     1      -0.378  10.046  18.142  0.00  0.00    +0.000 NA
ATOM      8  C   UNL     1      -1.632  10.515  18.361  0.00  0.00    +0.000 A 
ATOM      9  N   UNL     1      -2.584  10.348  17.386  0.00  0.00    +0.000 N 
ATOM     10  C   UNL     1      -2.293   9.667  16.127  0.00  0.00    +0.000 C 
ATOM     11  C   UNL     1      -2.932  10.456  14.969  0.00  0.00    +0.000 C 
ATOM     12  O   UNL     1      -4.340  10.665  15.178  0.00  0.00    +0.000 OA
ATOM     13  C   UNL     1      -4.559  11.405  16.390  0.00  0.00    +0.000 C 
ATOM     14  C   UNL     1      -3.995  10.666  17.614  0.00  0.00    +0.000 C 
ATOM     15  N   UNL     1      -1.997  11.202  19.457  0.00  0.00    +0.000 NA
ATOM     16  C   UNL     1      -0.984  11.492  20.286  0.00  0.00    +0.000 A 
ATOM     17  H   UNL     1       2.588  10.684  18.807  0.00  0.00    +0.000 HD
ENDROOT
BRANCH   1  24
ATOM     18  F   UNL     1      -4.443  15.549  21.958  0.00  0.00    +0.000 F 
ATOM     19  C   UNL     1      -3.861  14.422  22.389  0.00  0.00    +0.000 A 
ATOM     20  C   UNL     1      -4.395  13.755  23.481  0.00  0.00    +0.000 A 
ATOM     21  C   UNL     1      -3.797  12.576  23.898  0.00  0.00    +0.000 A 
ATOM     22  F   UNL     1      -4.286  11.929  24.964  0.00  0.00    +0.000 F 
ATOM     23  C   UNL     1      -2.690  12.049  23.235  0.00  0.00    +0.000 A 
ATOM     24  C   UNL     1      -2.146  12.740  22.144  0.00  0.00    +0.000 A 
ATOM     25  C   UNL     1      -2.736  13.939  21.723  0.00  0.00    +0.000 A 
ENDBRANCH   1  24
BRANCH   6  26
ATOM     26  C   UNL     1       2.195   8.887  17.793  0.00  0.00    +0.000 C 
BRANCH  26  27
ATOM     27  C   UNL     1       2.409   7.521  18.386  0.00  0.00    +0.000 A 
ATOM     28  N   UNL     1       3.136   6.539  17.892  0.00  0.00    +0.000 NA
ATOM     29  C   UNL     1       3.071   5.514  18.816  0.00  0.00    +0.000 A 
ATOM     30  C   UNL     1       3.662   4.239  18.814  0.00  0.00    +0.000 A 
ATOM     31  F   UNL     1       4.430   3.834  17.797  0.00  0.00    +0.000 F 
ATOM     32  C   UNL     1       3.438   3.398  19.903  0.00  0.00    +0.000 A 
ATOM     33  F   UNL     1       3.997   2.180  19.925  0.00  0.00    +0.000 F 
ATOM     34  C   UNL     1       2.647   3.794  20.981  0.00  0.00    +0.000 A 
ATOM     35  C   UNL     1       2.044   5.057  21.004  0.00  0.00    +0.000 A 
ATOM     36  C   UNL     1       2.277   5.891  19.901  0.00  0.00    +0.000 A 
ATOM     37  N   UNL     1       1.860   7.158  19.599  0.00  0.00    +0.000 N 
ATOM     38  H   UNL     1       1.284   7.762  20.170  0.00  0.00    +0.000 HD
ENDBRANCH  26  27
ENDBRANCH   6  26
TORSDOF 3
ENDMDL
MODEL 6
REMARK VINA RESULT:      -9.6      9.272     12.465
REMARK  Name = 
REMARK  3 active torsions:
REMARK  status: ('A' for Active; 'I' for Inactive)
REMARK    1  A    between atoms: C_7  and  N_8
REMARK    2  A    between atoms: N_13  and  C_14
REMARK    3  A    between atoms: C_14  and  C_15
REMARK                            x       y       z     vdW  Elec       q    Type
REMARK                         _______ _______ _______ _____ _____    ______ ____
ROOT
ATOM      1  N   UNL     1      -0.953  12.268  21.511  0.00  0.00    +0.000 N 
ATOM      2  C   UNL     1       0.374  12.361  21.887  0.00  0.00    +0.000 A 
ATOM      3  N   UNL     1       1.186  11.732  21.066  0.00  0.00    +0.000 NA
ATOM      4  C   UNL     1       0.359  11.217  20.094  0.00  0.00    +0.000 A 
ATOM      5  C   UNL     1       0.620  10.412  18.977  0.00  0.00    +0.000 A 
ATOM      6  N   UNL     1       1.915   9.949  18.753  0.00  0.00    +0.000 N 
ATOM      7  N   UNL     1      -0.423  10.121  18.153  0.00  0.00    +0.000 NA
ATOM      8  C   UNL     1      -1.668  10.598  18.411  0.00  0.00    +0.000 A 
ATOM      9  N   UNL     1      -2.647  10.446  17.461  0.00  0.00    +0.000 N 
ATOM     10  C   UNL     1      -2.396   9.773  16.189  0.00  0.00    +0.000 C 
ATOM     11  C   UNL     1      -3.060  10.577  15.056  0.00  0.00    +0.000 C 
ATOM     12  O   UNL     1      -4.460  10.794  15.305  0.00  0.00    +0.000 OA
ATOM     13  C   UNL     1      -4.641  11.525  16.528  0.00  0.00    +0.000 C 
ATOM     14  C   UNL     1      -4.049  10.772  17.731  0.00  0.00    +0.000 C 
ATOM     15  N   UNL     1      -1.997  11.277  19.522  0.00  0.00    +0.000 NA
ATOM     16  C   UNL     1      -0.960  11.554  20.326  0.00  0.00    +0.000 A 
ATOM     17  H   UNL     1       2.564  10.733  18.742  0.00  0.00    +0.000 HD
ENDROOT
BRANCH   1  24
ATOM     18  F   UNL     1      -4.181  15.745  22.286  0.00  0.00    +0.000 F 
ATOM     19  C   UNL     1      -3.675  14.548  22.612  0.00  0.00    +0.000 A 
ATOM     20  C   UNL     1      -4.267  13.814  23.630  0.00  0.00    +0.000 A 
ATOM     21  C   UNL     1      -3.749  12.566  23.937  0.00  0.00    +0.000 A 
ATOM     22  F   UNL     1      -4.294  11.852  24.931  0.00  0.00    +0.000 F 
ATOM     23  C   UNL     1      -2.665  12.037  23.239  0.00  0.00    +0.000 A 
ATOM     24  C   UNL     1      -2.062  12.794  22.225  0.00  0.00    +0.000 A 
ATOM     25  C   UNL     1      -2.571  14.062  21.915  0.00  0.00    +0.000 A 
ENDBRANCH   1  24
BRANCH   6  26
ATOM     26  C   UNL     1       2.130   8.948  17.725  0.00  0.00    +0.000 C 
BRANCH  26  27
ATOM     27  C   UNL     1       2.599   7.636  18.293  0.00  0.00    +0.000 A 
ATOM     28  N   UNL     1       2.052   6.948  19.275  0.00  0.00    +0.000 NA
ATOM     29  C   UNL     1       2.803   5.795  19.397  0.00  0.00    +0.000 A 
ATOM     30  C   UNL     1       2.668   4.701  20.269  0.00  0.00    +0.000 A 
ATOM     31  F   UNL     1       1.694   4.661  21.183  0.00  0.00    +0.000 F 
ATOM     32  C   UNL     1       3.571   3.644  20.159  0.00  0.00    +0.000 A 
ATOM     33  F   UNL     1       3.458   2.588  20.976  0.00  0.00    +0.000 F 
ATOM     34  C   UNL     1       4.594   3.654  19.211  0.00  0.00    +0.000 A 
ATOM     35  C   UNL     1       4.752   4.734  18.335  0.00  0.00    +0.000 A 
ATOM     36  C   UNL     1       3.836   5.789  18.458  0.00  0.00    +0.000 A 
ATOM     37  N   UNL     1       3.695   6.970  17.782  0.00  0.00    +0.000 N 
ATOM     38  H   UNL     1       4.255   7.300  17.009  0.00  0.00    +0.000 HD
ENDBRANCH  26  27
ENDBRANCH   6  26
TORSDOF 3
ENDMDL
MODEL 7
REMARK VINA RESULT:      -9.6      9.131     12.502
REMARK  Name = 
REMARK  3 active torsions:
REMARK  status: ('A' for Active; 'I' for Inactive)
REMARK    1  A    between atoms: C_7  and  N_8
REMARK    2  A    between atoms: N_13  and  C_14
REMARK    3  A    between atoms: C_14  and  C_15
REMARK                            x       y       z     vdW  Elec       q    Type
REMARK                         _______ _______ _______ _____ _____    ______ ____
ROOT
ATOM      1  N   UNL     1      -0.977  12.238  21.430  0.00  0.00    +0.000 N 
ATOM      2  C   UNL     1       0.340  12.353  21.835  0.00  0.00    +0.000 A 
ATOM      3  N   UNL     1       1.178  11.724  21.041  0.00  0.00    +0.000 NA
ATOM      4  C   UNL     1       0.380  11.185  20.058  0.00  0.00    +0.000 A 
ATOM      5  C   UNL     1       0.677  10.368  18.958  0.00  0.00    +0.000 A 
ATOM      6  N   UNL     1       1.983   9.918  18.770  0.00  0.00    +0.000 N 
ATOM      7  N   UNL     1      -0.343  10.053  18.115  0.00  0.00    +0.000 NA
ATOM      8  C   UNL     1      -1.599  10.517  18.338  0.00  0.00    +0.000 A 
ATOM      9  N   UNL     1      -2.554  10.339  17.368  0.00  0.00    +0.000 N 
ATOM     10  C   UNL     1      -2.265   9.653  16.111  0.00  0.00    +0.000 C 
ATOM     11  C   UNL     1      -2.913  10.432  14.952  0.00  0.00    +0.000 C 
ATOM     12  O   UNL     1      -4.321  10.635  15.166  0.00  0.00    +0.000 OA
ATOM     13  C   UNL     1      -4.540  11.380  16.375  0.00  0.00    +0.000 C 
ATOM     14  C   UNL     1      -3.966  10.651  17.601  0.00  0.00    +0.000 C 
ATOM     15  N   UNL     1      -1.963  11.207  19.432  0.00  0.00    +0.000 NA
ATOM     16  C   UNL     1      -0.948  11.508  20.255  0.00  0.00    +0.000 A 
ATOM     17  H   UNL     1       2.621  10.711  18.764  0.00  0.00    +0.000 HD
ENDROOT
BRANCH   1  24
ATOM     18  F   UNL     1      -4.263  11.966  24.928  0.00  0.00    +0.000 F 
ATOM     19  C   UNL     1      -3.760  12.611  23.867  0.00  0.00    +0.000 A 
ATOM     20  C   UNL     1      -4.332  13.809  23.465  0.00  0.00    +0.000 A 
ATOM     21  C   UNL     1      -3.782  14.478  22.383  0.00  0.00    +0.000 A 
ATOM     22  F   UNL     1      -4.334  15.625  21.966  0.00  0.00    +0.000 F 
ATOM     23  C   UNL     1      -2.668  13.979  21.710  0.00  0.00    +0.000 A 
ATOM     24  C   UNL     1      -2.108  12.759  22.111  0.00  0.00    +0.000 A 
ATOM     25  C   UNL     1      -2.665  12.069  23.197  0.00  0.00    +0.000 A 
ENDBRANCH   1  24
BRANCH   6  26
ATOM     26  C   UNL     1       2.234   8.907  17.762  0.00  0.00    +0.000 C 
BRANCH  26  27
ATOM     27  C   UNL     1       2.434   7.541  18.359  0.00  0.00    +0.000 A 
ATOM     28  N   UNL     1       3.186   6.565  17.892  0.00  0.00    +0.000 NA
ATOM     29  C   UNL     1       3.091   5.537  18.810  0.00  0.00    +0.000 A 
ATOM     30  C   UNL     1       3.690   4.266  18.828  0.00  0.00    +0.000 A 
ATOM     31  F   UNL     1       4.501   3.869  17.842  0.00  0.00    +0.000 F 
ATOM     32  C   UNL     1       3.429   3.420  19.905  0.00  0.00    +0.000 A 
ATOM     33  F   UNL     1       3.995   2.206  19.947  0.00  0.00    +0.000 F 
ATOM     34  C   UNL     1       2.594   3.808  20.952  0.00  0.00    +0.000 A 
ATOM     35  C   UNL     1       1.982   5.067  20.954  0.00  0.00    +0.000 A 
ATOM     36  C   UNL     1       2.253   5.905  19.863  0.00  0.00    +0.000 A 
ATOM     37  N   UNL     1       1.839   7.171  19.549  0.00  0.00    +0.000 N 
ATOM     38  H   UNL     1       1.238   7.770  20.097  0.00  0.00    +0.000 HD
ENDBRANCH  26  27
ENDBRANCH   6  26
TORSDOF 3
ENDMDL
MODEL 8
REMARK VINA RESULT:      -9.5      9.151     12.475
REMARK  Name = 
REMARK  3 active torsions:
REMARK  status: ('A' for Active; 'I' for Inactive)
REMARK    1  A    between atoms: C_7  and  N_8
REMARK    2  A    between atoms: N_13  and  C_14
REMARK    3  A    between atoms: C_14  and  C_15
REMARK                            x       y       z     vdW  Elec       q    Type
REMARK                         _______ _______ _______ _____ _____    ______ ____
ROOT
ATOM      1  N   UNL     1      -0.709  12.314  21.455  0.00  0.00    +0.000 N 
ATOM      2  C   UNL     1       0.630  12.397  21.787  0.00  0.00    +0.000 A 
ATOM      3  N   UNL     1       1.407  11.739  20.955  0.00  0.00    +0.000 NA
ATOM      4  C   UNL     1       0.542  11.212  20.023  0.00  0.00    +0.000 A 
ATOM      5  C   UNL     1       0.758  10.378  18.917  0.00  0.00    +0.000 A 
ATOM      6  N   UNL     1       2.038   9.891  18.664  0.00  0.00    +0.000 N 
ATOM      7  N   UNL     1      -0.315  10.082  18.135  0.00  0.00    +0.000 NA
ATOM      8  C   UNL     1      -1.545  10.582  18.420  0.00  0.00    +0.000 A 
ATOM      9  N   UNL     1      -2.555  10.421  17.505  0.00  0.00    +0.000 N 
ATOM     10  C   UNL     1      -2.354   9.715  16.242  0.00  0.00    +0.000 C 
ATOM     11  C   UNL     1      -3.043  10.501  15.112  0.00  0.00    +0.000 C 
ATOM     12  O   UNL     1      -4.432  10.744  15.399  0.00  0.00    +0.000 OA
ATOM     13  C   UNL     1      -4.564  11.505  16.611  0.00  0.00    +0.000 C 
ATOM     14  C   UNL     1      -3.944  10.772  17.811  0.00  0.00    +0.000 C 
ATOM     15  N   UNL     1      -1.830  11.291  19.524  0.00  0.00    +0.000 NA
ATOM     16  C   UNL     1      -0.764  11.572  20.288  0.00  0.00    +0.000 A 
ATOM     17  H   UNL     1       2.697  10.666  18.614  0.00  0.00    +0.000 HD
ENDROOT
BRANCH   1  24
ATOM     18  F   UNL     1      -4.213  11.914  24.723  0.00  0.00    +0.000 F 
ATOM     19  C   UNL     1      -3.550  12.660  23.829  0.00  0.00    +0.000 A 
ATOM     20  C   UNL     1      -3.904  13.991  23.657  0.00  0.00    +0.000 A 
ATOM     21  C   UNL     1      -3.190  14.756  22.749  0.00  0.00    +0.000 A 
ATOM     22  F   UNL     1      -3.532  16.036  22.554  0.00  0.00    +0.000 F 
ATOM     23  C   UNL     1      -2.126  14.221  22.025  0.00  0.00    +0.000 A 
ATOM     24  C   UNL     1      -1.788  12.872  22.191  0.00  0.00    +0.000 A 
ATOM     25  C   UNL     1      -2.511  12.086  23.099  0.00  0.00    +0.000 A 
ENDBRANCH   1  24
BRANCH   6  26
ATOM     26  C   UNL     1       2.208   8.863  17.654  0.00  0.00    +0.000 C 
BRANCH  26  27
ATOM     27  C   UNL     1       2.607   7.540  18.246  0.00  0.00    +0.000 A 
ATOM     28  N   UNL     1       2.029   6.902  19.244  0.00  0.00    +0.000 NA
ATOM     29  C   UNL     1       2.716   5.712  19.386  0.00  0.00    +0.000 A 
ATOM     30  C   UNL     1       2.527   4.645  20.280  0.00  0.00    +0.000 A 
ATOM     31  F   UNL     1       1.556   4.676  21.200  0.00  0.00    +0.000 F 
ATOM     32  C   UNL     1       3.370   3.538  20.188  0.00  0.00    +0.000 A 
ATOM     33  F   UNL     1       3.204   2.506  21.027  0.00  0.00    +0.000 F 
ATOM     34  C   UNL     1       4.387   3.473  19.236  0.00  0.00    +0.000 A 
ATOM     35  C   UNL     1       4.598   4.526  18.337  0.00  0.00    +0.000 A 
ATOM     36  C   UNL     1       3.743   5.631  18.443  0.00  0.00    +0.000 A 
ATOM     37  N   UNL     1       3.662   6.805  17.744  0.00  0.00    +0.000 N 
ATOM     38  H   UNL     1       4.235   7.089  16.962  0.00  0.00    +0.000 HD
ENDBRANCH  26  27
ENDBRANCH   6  26
TORSDOF 3
ENDMDL
MODEL 9
REMARK VINA RESULT:      -9.4      8.682     12.922
REMARK  Name = 
REMARK  3 active torsions:
REMARK  status: ('A' for Active; 'I' for Inactive)
REMARK    1  A    between atoms: C_7  and  N_8
REMARK    2  A    between atoms: N_13  and  C_14
REMARK    3  A    between atoms: C_14  and  C_15
REMARK                            x       y       z     vdW  Elec       q    Type
REMARK                         _______ _______ _______ _____ _____    ______ ____
ROOT
ATOM      1  N   UNL     1      -1.026  11.462  22.584  0.00  0.00    +0.000 N 
ATOM      2  C   UNL     1      -0.866  10.145  22.971  0.00  0.00    +0.000 A 
ATOM      3  N   UNL     1      -0.112   9.454  22.144  0.00  0.00    +0.000 NA
ATOM      4  C   UNL     1       0.257  10.362  21.178  0.00  0.00    +0.000 A 
ATOM      5  C   UNL     1       1.015  10.222  20.007  0.00  0.00    +0.000 A 
ATOM      6  N   UNL     1       1.477   8.961  19.635  0.00  0.00    +0.000 N 
ATOM      7  N   UNL     1       1.265  11.346  19.282  0.00  0.00    +0.000 NA
ATOM      8  C   UNL     1       0.796  12.554  19.685  0.00  0.00    +0.000 A 
ATOM      9  N   UNL     1       1.229  13.684  19.038  0.00  0.00    +0.000 N 
ATOM     10  C   UNL     1       2.166  13.627  17.919  0.00  0.00    +0.000 C 
ATOM     11  C   UNL     1       3.217  14.739  18.086  0.00  0.00    +0.000 C 
ATOM     12  O   UNL     1       2.607  16.033  18.236  0.00  0.00    +0.000 OA
ATOM     13  C   UNL     1       1.757  16.052  19.395  0.00  0.00    +0.000 C 
ATOM     14  C   UNL     1       0.640  15.000  19.294  0.00  0.00    +0.000 C 
ATOM     15  N   UNL     1      -0.026  12.730  20.733  0.00  0.00    +0.000 NA
ATOM     16  C   UNL     1      -0.267  11.613  21.437  0.00  0.00    +0.000 A 
ATOM     17  H   UNL     1       1.996   8.545  20.405  0.00  0.00    +0.000 HD
ENDROOT
BRANCH   1  24
ATOM     18  F   UNL     1      -5.180  12.824  24.582  0.00  0.00    +0.000 F 
ATOM     19  C   UNL     1      -3.918  13.113  24.237  0.00  0.00    +0.000 A 
ATOM     20  C   UNL     1      -3.391  14.355  24.559  0.00  0.00    +0.000 A 
ATOM     21  C   UNL     1      -2.076  14.627  24.219  0.00  0.00    +0.000 A 
ATOM     22  F   UNL     1      -1.557  15.829  24.502  0.00  0.00    +0.000 F 
ATOM     23  C   UNL     1      -1.279  13.679  23.579  0.00  0.00    +0.000 A 
ATOM     24  C   UNL     1      -1.826  12.434  23.241  0.00  0.00    +0.000 A 
ATOM     25  C   UNL     1      -3.159  12.154  23.570  0.00  0.00    +0.000 A 
ENDBRANCH   1  24
BRANCH   6  26
ATOM     26  C   UNL     1       2.069   8.794  18.321  0.00  0.00    +0.000 C 
BRANCH  26  27
ATOM     27  C   UNL     1       2.626   7.412  18.117  0.00  0.00    +0.000 A 
ATOM     28  N   UNL     1       2.104   6.271  18.519  0.00  0.00    +0.000 NA
ATOM     29  C   UNL     1       2.945   5.281  18.049  0.00  0.00    +0.000 A 
ATOM     30  C   UNL     1       2.872   3.883  18.171  0.00  0.00    +0.000 A 
ATOM     31  F   UNL     1       1.871   3.297  18.836  0.00  0.00    +0.000 F 
ATOM     32  C   UNL     1       3.866   3.108  17.573  0.00  0.00    +0.000 A 
ATOM     33  F   UNL     1       3.812   1.772  17.671  0.00  0.00    +0.000 F 
ATOM     34  C   UNL     1       4.918   3.689  16.867  0.00  0.00    +0.000 A 
ATOM     35  C   UNL     1       5.015   5.079  16.737  0.00  0.00    +0.000 A 
ATOM     36  C   UNL     1       4.010   5.844  17.344  0.00  0.00    +0.000 A 
ATOM     37  N   UNL     1       3.793   7.194  17.412  0.00  0.00    +0.000 N 
ATOM     38  H   UNL     1       4.351   7.922  16.990  0.00  0.00    +0.000 HD
ENDBRANCH  26  27
ENDBRANCH   6  26
TORSDOF 3
ENDMDL
