MODEL 1
REMARK VINA RESULT:      -7.3      0.000      0.000
REMARK  Name = 
REMARK  11 active torsions:
REMARK  status: ('A' for Active; 'I' for Inactive)
REMARK    1  A    between atoms: C_2  and  O_3
REMARK    2  A    between atoms: C_2  and  C_24
REMARK    3  A    between atoms: O_3  and  C_4
REMARK    4  A    between atoms: C_4  and  C_5
REMARK    5  A    between atoms: C_5  and  C_6
REMARK    6  A    between atoms: C_6  and  C_7
REMARK    7  A    between atoms: C_7  and  C_8
REMARK    8  A    between atoms: C_9  and  C_10
REMARK    9  A    between atoms: C_13  and  C_14
REMARK   10  A    between atoms: C_14  and  O_16
REMARK   11  A    between atoms: O_16  and  C_17
REMARK                            x       y       z     vdW  Elec       q    Type
REMARK                         _______ _______ _______ _____ _____    ______ ____
ROOT
ATOM      1  C   UNL     1       4.350   6.917  16.450  0.00  0.00    +0.000 C 
ATOM      2  C   UNL     1       3.570   7.346  17.257  0.00  0.00    +0.000 C 
ENDROOT
BRANCH   2   3
ATOM      3  C   UNL     1       2.705   7.889  18.258  0.00  0.00    +0.000 A 
ATOM      4  C   UNL     1       2.027   9.084  18.006  0.00  0.00    +0.000 A 
ATOM      5  C   UNL     1       1.173   9.626  18.970  0.00  0.00    +0.000 A 
ATOM      6  C   UNL     1       0.998   8.981  20.201  0.00  0.00    +0.000 A 
ATOM      7  C   UNL     1       1.696   7.791  20.459  0.00  0.00    +0.000 A 
ATOM      8  C   UNL     1       2.540   7.244  19.484  0.00  0.00    +0.000 A 
BRANCH   6   9
ATOM      9  C   UNL     1      -0.037   9.518  21.129  0.00  0.00    +0.000 C 
ATOM     10  O   UNL     1      -0.682   8.825  21.900  0.00  0.00    +0.000 OA
BRANCH   9  11
ATOM     11  O   UNL     1      -0.019  10.874  21.135  0.00  0.00    +0.000 OA
BRANCH  11  12
ATOM     12  C   UNL     1      -1.329  11.483  21.090  0.00  0.00    +0.000 C 
ATOM     13  C   UNL     1      -1.566  12.202  22.425  0.00  0.00    +0.000 C 
ATOM     14  S   UNL     1      -0.615  13.755  22.413  0.00  0.00    +0.000 S 
ATOM     15  S   UNL     1      -0.416  13.925  20.380  0.00  0.00    +0.000 S 
ATOM     16  C   UNL     1      -1.444  12.495  19.949  0.00  0.00    +0.000 C 
ENDBRANCH  11  12
ENDBRANCH   9  11
ENDBRANCH   6   9
ENDBRANCH   2   3
BRANCH   1  17
ATOM     17  C   UNL     1       5.361   6.403  15.515  0.00  0.00    +0.000 C 
BRANCH  17  18
ATOM     18  C   UNL     1       5.658   4.915  15.731  0.00  0.00    +0.000 C 
BRANCH  18  19
ATOM     19  C   UNL     1       7.078   4.586  16.205  0.00  0.00    +0.000 C 
BRANCH  19  20
ATOM     20  C   UNL     1       7.254   4.636  17.722  0.00  0.00    +0.000 C 
BRANCH  20  21
ATOM     21  O   UNL     1       6.266   3.817  18.372  0.00  0.00    +0.000 OA
BRANCH  21  23
ATOM     22  O   UNL     1       5.518   5.515  19.728  0.00  0.00    +0.000 OA
ATOM     23  C   UNL     1       5.329   4.498  19.078  0.00  0.00    +0.000 C 
BRANCH  23  24
ATOM     24  C   UNL     1       3.989   3.860  18.958  0.00  0.00    +0.000 A 
ATOM     25  C   UNL     1       3.086   4.030  20.019  0.00  0.00    +0.000 A 
ATOM     26  C   UNL     1       1.810   3.465  19.962  0.00  0.00    +0.000 A 
ATOM     27  C   UNL     1       1.441   2.736  18.842  0.00  0.00    +0.000 A 
ATOM     28  F   UNL     1       0.215   2.197  18.784  0.00  0.00    +0.000 F 
ATOM     29  C   UNL     1       2.318   2.554  17.780  0.00  0.00    +0.000 A 
ATOM     30  C   UNL     1       3.599   3.115  17.834  0.00  0.00    +0.000 A 
ENDBRANCH  23  24
ENDBRANCH  21  23
ENDBRANCH  20  21
ENDBRANCH  19  20
ENDBRANCH  18  19
ENDBRANCH  17  18
ENDBRANCH   1  17
TORSDOF 11
ENDMDL
MODEL 2
REMARK VINA RESULT:      -7.3      0.785      1.289
REMARK  Name = 
REMARK  11 active torsions:
REMARK  status: ('A' for Active; 'I' for Inactive)
REMARK    1  A    between atoms: C_2  and  O_3
REMARK    2  A    between atoms: C_2  and  C_24
REMARK    3  A    between atoms: O_3  and  C_4
REMARK    4  A    between atoms: C_4  and  C_5
REMARK    5  A    between atoms: C_5  and  C_6
REMARK    6  A    between atoms: C_6  and  C_7
REMARK    7  A    between atoms: C_7  and  C_8
REMARK    8  A    between atoms: C_9  and  C_10
REMARK    9  A    between atoms: C_13  and  C_14
REMARK   10  A    between atoms: C_14  and  O_16
REMARK   11  A    between atoms: O_16  and  C_17
REMARK                            x       y       z     vdW  Elec       q    Type
REMARK                         _______ _______ _______ _____ _____    ______ ____
ROOT
ATOM      1  C   UNL     1       4.483   6.944  16.537  0.00  0.00    +0.000 C 
ATOM      2  C   UNL     1       3.722   7.319  17.387  0.00  0.00    +0.000 C 
ENDROOT
BRANCH   2   3
ATOM      3  C   UNL     1       2.782   7.817  18.344  0.00  0.00    +0.000 A 
ATOM      4  C   UNL     1       2.047   8.969  18.051  0.00  0.00    +0.000 A 
ATOM      5  C   UNL     1       1.120   9.466  18.971  0.00  0.00    +0.000 A 
ATOM      6  C   UNL     1       0.927   8.819  20.198  0.00  0.00    +0.000 A 
ATOM      7  C   UNL     1       1.680   7.674  20.497  0.00  0.00    +0.000 A 
ATOM      8  C   UNL     1       2.598   7.171  19.567  0.00  0.00    +0.000 A 
BRANCH   6   9
ATOM      9  C   UNL     1      -0.179   9.301  21.073  0.00  0.00    +0.000 C 
ATOM     10  O   UNL     1      -0.573   8.700  22.059  0.00  0.00    +0.000 OA
BRANCH   9  11
ATOM     11  O   UNL     1      -0.540  10.565  20.740  0.00  0.00    +0.000 OA
BRANCH  11  12
ATOM     12  C   UNL     1      -0.268  11.547  21.764  0.00  0.00    +0.000 C 
ATOM     13  C   UNL     1       0.311  12.796  21.085  0.00  0.00    +0.000 C 
ATOM     14  S   UNL     1      -1.058  13.698  20.291  0.00  0.00    +0.000 S 
ATOM     15  S   UNL     1      -2.581  12.895  21.402  0.00  0.00    +0.000 S 
ATOM     16  C   UNL     1      -1.535  11.935  22.528  0.00  0.00    +0.000 C 
ENDBRANCH  11  12
ENDBRANCH   9  11
ENDBRANCH   6   9
ENDBRANCH   2   3
BRANCH   1  17
ATOM     17  C   UNL     1       5.396   6.549  15.456  0.00  0.00    +0.000 C 
BRANCH  17  18
ATOM     18  C   UNL     1       5.233   5.077  15.059  0.00  0.00    +0.000 C 
BRANCH  18  19
ATOM     19  C   UNL     1       6.148   4.089  15.791  0.00  0.00    +0.000 C 
BRANCH  19  20
ATOM     20  C   UNL     1       6.700   4.617  17.113  0.00  0.00    +0.000 C 
BRANCH  20  21
ATOM     21  O   UNL     1       6.232   3.817  18.213  0.00  0.00    +0.000 OA
BRANCH  21  23
ATOM     22  O   UNL     1       5.593   5.404  19.747  0.00  0.00    +0.000 OA
ATOM     23  C   UNL     1       5.354   4.435  19.042  0.00  0.00    +0.000 C 
BRANCH  23  24
ATOM     24  C   UNL     1       4.012   3.794  18.988  0.00  0.00    +0.000 A 
ATOM     25  C   UNL     1       3.314   3.838  17.771  0.00  0.00    +0.000 A 
ATOM     26  C   UNL     1       2.055   3.244  17.654  0.00  0.00    +0.000 A 
ATOM     27  C   UNL     1       1.500   2.608  18.754  0.00  0.00    +0.000 A 
ATOM     28  F   UNL     1       0.293   2.036  18.642  0.00  0.00    +0.000 F 
ATOM     29  C   UNL     1       2.172   2.554  19.969  0.00  0.00    +0.000 A 
ATOM     30  C   UNL     1       3.432   3.149  20.092  0.00  0.00    +0.000 A 
ENDBRANCH  23  24
ENDBRANCH  21  23
ENDBRANCH  20  21
ENDBRANCH  19  20
ENDBRANCH  18  19
ENDBRANCH  17  18
ENDBRANCH   1  17
TORSDOF 11
ENDMDL
MODEL 3
REMARK VINA RESULT:      -7.2      0.813      1.555
REMARK  Name = 
REMARK  11 active torsions:
REMARK  status: ('A' for Active; 'I' for Inactive)
REMARK    1  A    between atoms: C_2  and  O_3
REMARK    2  A    between atoms: C_2  and  C_24
REMARK    3  A    between atoms: O_3  and  C_4
REMARK    4  A    between atoms: C_4  and  C_5
REMARK    5  A    between atoms: C_5  and  C_6
REMARK    6  A    between atoms: C_6  and  C_7
REMARK    7  A    between atoms: C_7  and  C_8
REMARK    8  A    between atoms: C_9  and  C_10
REMARK    9  A    between atoms: C_13  and  C_14
REMARK   10  A    between atoms: C_14  and  O_16
REMARK   11  A    between atoms: O_16  and  C_17
REMARK                            x       y       z     vdW  Elec       q    Type
REMARK                         _______ _______ _______ _____ _____    ______ ____
ROOT
ATOM      1  C   UNL     1       4.061   7.093  16.955  0.00  0.00    +0.000 C 
ATOM      2  C   UNL     1       3.305   7.542  17.773  0.00  0.00    +0.000 C 
ENDROOT
BRANCH   2   3
ATOM      3  C   UNL     1       2.360   8.110  18.684  0.00  0.00    +0.000 A 
ATOM      4  C   UNL     1       2.148   7.501  19.924  0.00  0.00    +0.000 A 
ATOM      5  C   UNL     1       1.234   8.046  20.829  0.00  0.00    +0.000 A 
ATOM      6  C   UNL     1       0.515   9.202  20.498  0.00  0.00    +0.000 A 
ATOM      7  C   UNL     1       0.716   9.800  19.245  0.00  0.00    +0.000 A 
ATOM      8  C   UNL     1       1.643   9.258  18.345  0.00  0.00    +0.000 A 
BRANCH   6   9
ATOM      9  C   UNL     1      -0.330   9.825  21.556  0.00  0.00    +0.000 C 
ATOM     10  O   UNL     1      -0.418   9.393  22.693  0.00  0.00    +0.000 OA
BRANCH   9  11
ATOM     11  O   UNL     1      -0.817  11.020  21.139  0.00  0.00    +0.000 OA
BRANCH  11  12
ATOM     12  C   UNL     1      -1.102  11.948  22.210  0.00  0.00    +0.000 C 
ATOM     13  C   UNL     1      -0.211  13.183  22.019  0.00  0.00    +0.000 C 
ATOM     14  S   UNL     1      -0.916  14.192  20.677  0.00  0.00    +0.000 S 
ATOM     15  S   UNL     1      -2.822  13.443  20.759  0.00  0.00    +0.000 S 
ATOM     16  C   UNL     1      -2.568  12.383  22.208  0.00  0.00    +0.000 C 
ENDBRANCH  11  12
ENDBRANCH   9  11
ENDBRANCH   6   9
ENDBRANCH   2   3
BRANCH   1  17
ATOM     17  C   UNL     1       4.959   6.594  15.904  0.00  0.00    +0.000 C 
BRANCH  17  18
ATOM     18  C   UNL     1       5.096   5.067  15.926  0.00  0.00    +0.000 C 
BRANCH  18  19
ATOM     19  C   UNL     1       6.499   4.534  16.237  0.00  0.00    +0.000 C 
BRANCH  19  20
ATOM     20  C   UNL     1       6.881   4.616  17.714  0.00  0.00    +0.000 C 
BRANCH  20  21
ATOM     21  O   UNL     1       5.999   3.807  18.510  0.00  0.00    +0.000 OA
BRANCH  21  23
ATOM     22  O   UNL     1       5.201   5.524  19.813  0.00  0.00    +0.000 OA
ATOM     23  C   UNL     1       5.038   4.490  19.181  0.00  0.00    +0.000 C 
BRANCH  23  24
ATOM     24  C   UNL     1       3.709   3.832  19.050  0.00  0.00    +0.000 A 
ATOM     25  C   UNL     1       3.639   2.642  18.309  0.00  0.00    +0.000 A 
ATOM     26  C   UNL     1       2.423   1.971  18.159  0.00  0.00    +0.000 A 
ATOM     27  C   UNL     1       1.283   2.492  18.752  0.00  0.00    +0.000 A 
ATOM     28  F   UNL     1       0.117   1.848  18.612  0.00  0.00    +0.000 F 
ATOM     29  C   UNL     1       1.329   3.669  19.489  0.00  0.00    +0.000 A 
ATOM     30  C   UNL     1       2.545   4.346  19.640  0.00  0.00    +0.000 A 
ENDBRANCH  23  24
ENDBRANCH  21  23
ENDBRANCH  20  21
ENDBRANCH  19  20
ENDBRANCH  18  19
ENDBRANCH  17  18
ENDBRANCH   1  17
TORSDOF 11
ENDMDL
MODEL 4
REMARK VINA RESULT:      -7.0      2.870      4.818
REMARK  Name = 
REMARK  11 active torsions:
REMARK  status: ('A' for Active; 'I' for Inactive)
REMARK    1  A    between atoms: C_2  and  O_3
REMARK    2  A    between atoms: C_2  and  C_24
REMARK    3  A    between atoms: O_3  and  C_4
REMARK    4  A    between atoms: C_4  and  C_5
REMARK    5  A    between atoms: C_5  and  C_6
REMARK    6  A    between atoms: C_6  and  C_7
REMARK    7  A    between atoms: C_7  and  C_8
REMARK    8  A    between atoms: C_9  and  C_10
REMARK    9  A    between atoms: C_13  and  C_14
REMARK   10  A    between atoms: C_14  and  O_16
REMARK   11  A    between atoms: O_16  and  C_17
REMARK                            x       y       z     vdW  Elec       q    Type
REMARK                         _______ _______ _______ _____ _____    ______ ____
ROOT
ATOM      1  C   UNL     1       1.571   6.555  20.725  0.00  0.00    +0.000 C 
ATOM      2  C   UNL     1       1.083   7.613  21.015  0.00  0.00    +0.000 C 
ENDROOT
BRANCH   2   3
ATOM      3  C   UNL     1       0.462   8.836  21.423  0.00  0.00    +0.000 A 
ATOM      4  C   UNL     1      -0.029   8.956  22.726  0.00  0.00    +0.000 A 
ATOM      5  C   UNL     1      -0.632  10.145  23.144  0.00  0.00    +0.000 A 
ATOM      6  C   UNL     1      -0.759  11.223  22.258  0.00  0.00    +0.000 A 
ATOM      7  C   UNL     1      -0.283  11.092  20.945  0.00  0.00    +0.000 A 
ATOM      8  C   UNL     1       0.334   9.903  20.534  0.00  0.00    +0.000 A 
BRANCH   6   9
ATOM      9  C   UNL     1      -1.269  12.514  22.799  0.00  0.00    +0.000 C 
ATOM     10  O   UNL     1      -0.600  13.276  23.477  0.00  0.00    +0.000 OA
BRANCH   9  11
ATOM     11  O   UNL     1      -2.487  12.805  22.277  0.00  0.00    +0.000 OA
BRANCH  11  12
ATOM     12  C   UNL     1      -2.958  14.138  22.582  0.00  0.00    +0.000 C 
ATOM     13  C   UNL     1      -3.605  14.715  21.316  0.00  0.00    +0.000 C 
ATOM     14  S   UNL     1      -5.248  13.955  21.119  0.00  0.00    +0.000 S 
ATOM     15  S   UNL     1      -5.502  13.371  23.068  0.00  0.00    +0.000 S 
ATOM     16  C   UNL     1      -3.987  14.130  23.712  0.00  0.00    +0.000 C 
ENDBRANCH  11  12
ENDBRANCH   9  11
ENDBRANCH   6   9
ENDBRANCH   2   3
BRANCH   1  17
ATOM     17  C   UNL     1       2.115   5.226  20.414  0.00  0.00    +0.000 C 
BRANCH  17  18
ATOM     18  C   UNL     1       1.044   4.130  20.448  0.00  0.00    +0.000 C 
BRANCH  18  19
ATOM     19  C   UNL     1       0.920   3.286  19.175  0.00  0.00    +0.000 C 
BRANCH  19  20
ATOM     20  C   UNL     1       1.459   3.971  17.921  0.00  0.00    +0.000 C 
BRANCH  20  21
ATOM     21  O   UNL     1       2.254   3.056  17.146  0.00  0.00    +0.000 OA
BRANCH  21  23
ATOM     22  O   UNL     1       3.600   1.565  18.262  0.00  0.00    +0.000 OA
ATOM     23  C   UNL     1       3.406   2.651  17.737  0.00  0.00    +0.000 C 
BRANCH  23  24
ATOM     24  C   UNL     1       4.455   3.704  17.660  0.00  0.00    +0.000 A 
ATOM     25  C   UNL     1       4.795   4.198  16.391  0.00  0.00    +0.000 A 
ATOM     26  C   UNL     1       5.764   5.195  16.255  0.00  0.00    +0.000 A 
ATOM     27  C   UNL     1       6.387   5.694  17.388  0.00  0.00    +0.000 A 
ATOM     28  F   UNL     1       7.315   6.653  17.259  0.00  0.00    +0.000 F 
ATOM     29  C   UNL     1       6.068   5.220  18.654  0.00  0.00    +0.000 A 
ATOM     30  C   UNL     1       5.099   4.219  18.796  0.00  0.00    +0.000 A 
ENDBRANCH  23  24
ENDBRANCH  21  23
ENDBRANCH  20  21
ENDBRANCH  19  20
ENDBRANCH  18  19
ENDBRANCH  17  18
ENDBRANCH   1  17
TORSDOF 11
ENDMDL
MODEL 5
REMARK VINA RESULT:      -6.9      1.561      2.292
REMARK  Name = 
REMARK  11 active torsions:
REMARK  status: ('A' for Active; 'I' for Inactive)
REMARK    1  A    between atoms: C_2  and  O_3
REMARK    2  A    between atoms: C_2  and  C_24
REMARK    3  A    between atoms: O_3  and  C_4
REMARK    4  A    between atoms: C_4  and  C_5
REMARK    5  A    between atoms: C_5  and  C_6
REMARK    6  A    between atoms: C_6  and  C_7
REMARK    7  A    between atoms: C_7  and  C_8
REMARK    8  A    between atoms: C_9  and  C_10
REMARK    9  A    between atoms: C_13  and  C_14
REMARK   10  A    between atoms: C_14  and  O_16
REMARK   11  A    between atoms: O_16  and  C_17
REMARK                            x       y       z     vdW  Elec       q    Type
REMARK                         _______ _______ _______ _____ _____    ______ ____
ROOT
ATOM      1  C   UNL     1       3.634   7.300  17.495  0.00  0.00    +0.000 C 
ATOM      2  C   UNL     1       2.912   7.806  18.311  0.00  0.00    +0.000 C 
ENDROOT
BRANCH   2   3
ATOM      3  C   UNL     1       2.040   8.333  19.315  0.00  0.00    +0.000 A 
ATOM      4  C   UNL     1       1.858   7.627  20.507  0.00  0.00    +0.000 A 
ATOM      5  C   UNL     1       1.015   8.130  21.501  0.00  0.00    +0.000 A 
ATOM      6  C   UNL     1       0.337   9.340  21.307  0.00  0.00    +0.000 A 
ATOM      7  C   UNL     1       0.507  10.037  20.101  0.00  0.00    +0.000 A 
ATOM      8  C   UNL     1       1.364   9.537  19.113  0.00  0.00    +0.000 A 
BRANCH   6   9
ATOM      9  C   UNL     1      -0.426   9.904  22.457  0.00  0.00    +0.000 C 
ATOM     10  O   UNL     1      -0.145   9.692  23.625  0.00  0.00    +0.000 OA
BRANCH   9  11
ATOM     11  O   UNL     1      -1.329  10.821  22.030  0.00  0.00    +0.000 OA
BRANCH  11  12
ATOM     12  C   UNL     1      -1.533  11.921  22.945  0.00  0.00    +0.000 C 
ATOM     13  C   UNL     1      -0.810  13.151  22.380  0.00  0.00    +0.000 C 
ATOM     14  S   UNL     1      -1.812  13.826  21.018  0.00  0.00    +0.000 S 
ATOM     15  S   UNL     1      -3.599  12.982  21.564  0.00  0.00    +0.000 S 
ATOM     16  C   UNL     1      -3.017  12.248  23.116  0.00  0.00    +0.000 C 
ENDBRANCH  11  12
ENDBRANCH   9  11
ENDBRANCH   6   9
ENDBRANCH   2   3
BRANCH   1  17
ATOM     17  C   UNL     1       4.488   6.614  16.516  0.00  0.00    +0.000 C 
BRANCH  17  18
ATOM     18  C   UNL     1       5.978   6.890  16.740  0.00  0.00    +0.000 C 
BRANCH  18  19
ATOM     19  C   UNL     1       6.725   5.850  17.582  0.00  0.00    +0.000 C 
BRANCH  19  20
ATOM     20  C   UNL     1       6.161   4.436  17.465  0.00  0.00    +0.000 C 
BRANCH  20  21
ATOM     21  O   UNL     1       5.214   4.181  18.517  0.00  0.00    +0.000 OA
BRANCH  21  23
ATOM     22  O   UNL     1       3.751   3.316  16.971  0.00  0.00    +0.000 OA
ATOM     23  C   UNL     1       4.047   3.618  18.118  0.00  0.00    +0.000 C 
BRANCH  23  24
ATOM     24  C   UNL     1       3.133   3.384  19.270  0.00  0.00    +0.000 A 
ATOM     25  C   UNL     1       3.593   2.565  20.313  0.00  0.00    +0.000 A 
ATOM     26  C   UNL     1       2.787   2.316  21.427  0.00  0.00    +0.000 A 
ATOM     27  C   UNL     1       1.526   2.889  21.493  0.00  0.00    +0.000 A 
ATOM     28  F   UNL     1       0.754   2.654  22.563  0.00  0.00    +0.000 F 
ATOM     29  C   UNL     1       1.050   3.702  20.472  0.00  0.00    +0.000 A 
ATOM     30  C   UNL     1       1.853   3.952  19.353  0.00  0.00    +0.000 A 
ENDBRANCH  23  24
ENDBRANCH  21  23
ENDBRANCH  20  21
ENDBRANCH  19  20
ENDBRANCH  18  19
ENDBRANCH  17  18
ENDBRANCH   1  17
TORSDOF 11
ENDMDL
MODEL 6
REMARK VINA RESULT:      -6.8      2.952      4.931
REMARK  Name = 
REMARK  11 active torsions:
REMARK  status: ('A' for Active; 'I' for Inactive)
REMARK    1  A    between atoms: C_2  and  O_3
REMARK    2  A    between atoms: C_2  and  C_24
REMARK    3  A    between atoms: O_3  and  C_4
REMARK    4  A    between atoms: C_4  and  C_5
REMARK    5  A    between atoms: C_5  and  C_6
REMARK    6  A    between atoms: C_6  and  C_7
REMARK    7  A    between atoms: C_7  and  C_8
REMARK    8  A    between atoms: C_9  and  C_10
REMARK    9  A    between atoms: C_13  and  C_14
REMARK   10  A    between atoms: C_14  and  O_16
REMARK   11  A    between atoms: O_16  and  C_17
REMARK                            x       y       z     vdW  Elec       q    Type
REMARK                         _______ _______ _______ _____ _____    ______ ____
ROOT
ATOM      1  C   UNL     1       1.604   6.932  20.771  0.00  0.00    +0.000 C 
ATOM      2  C   UNL     1       1.022   7.912  21.149  0.00  0.00    +0.000 C 
ENDROOT
BRANCH   2   3
ATOM      3  C   UNL     1       0.357   9.119  21.533  0.00  0.00    +0.000 A 
ATOM      4  C   UNL     1      -0.183   9.228  22.817  0.00  0.00    +0.000 A 
ATOM      5  C   UNL     1      -0.830  10.402  23.212  0.00  0.00    +0.000 A 
ATOM      6  C   UNL     1      -0.952  11.475  22.320  0.00  0.00    +0.000 A 
ATOM      7  C   UNL     1      -0.427  11.355  21.024  0.00  0.00    +0.000 A 
ATOM      8  C   UNL     1       0.234  10.182  20.637  0.00  0.00    +0.000 A 
BRANCH   6   9
ATOM      9  C   UNL     1      -1.514  12.754  22.840  0.00  0.00    +0.000 C 
ATOM     10  O   UNL     1      -0.844  13.751  23.053  0.00  0.00    +0.000 OA
BRANCH   9  11
ATOM     11  O   UNL     1      -2.870  12.712  22.853  0.00  0.00    +0.000 OA
BRANCH  11  12
ATOM     12  C   UNL     1      -3.502  13.999  22.671  0.00  0.00    +0.000 C 
ATOM     13  C   UNL     1      -4.281  13.965  21.349  0.00  0.00    +0.000 C 
ATOM     14  S   UNL     1      -5.813  13.016  21.615  0.00  0.00    +0.000 S 
ATOM     15  S   UNL     1      -5.893  13.215  23.654  0.00  0.00    +0.000 S 
ATOM     16  C   UNL     1      -4.467  14.323  23.812  0.00  0.00    +0.000 C 
ENDBRANCH  11  12
ENDBRANCH   9  11
ENDBRANCH   6   9
ENDBRANCH   2   3
BRANCH   1  17
ATOM     17  C   UNL     1       2.358   5.778  20.261  0.00  0.00    +0.000 C 
BRANCH  17  18
ATOM     18  C   UNL     1       1.871   4.451  20.854  0.00  0.00    +0.000 C 
BRANCH  18  19
ATOM     19  C   UNL     1       0.846   3.686  20.010  0.00  0.00    +0.000 C 
BRANCH  19  20
ATOM     20  C   UNL     1       1.465   2.680  19.042  0.00  0.00    +0.000 C 
BRANCH  20  21
ATOM     21  O   UNL     1       2.297   3.350  18.079  0.00  0.00    +0.000 OA
BRANCH  21  23
ATOM     22  O   UNL     1       3.739   1.574  17.854  0.00  0.00    +0.000 OA
ATOM     23  C   UNL     1       3.505   2.774  17.862  0.00  0.00    +0.000 C 
BRANCH  23  24
ATOM     24  C   UNL     1       4.557   3.797  17.609  0.00  0.00    +0.000 A 
ATOM     25  C   UNL     1       5.355   4.196  18.692  0.00  0.00    +0.000 A 
ATOM     26  C   UNL     1       6.367   5.144  18.516  0.00  0.00    +0.000 A 
ATOM     27  C   UNL     1       6.577   5.685  17.257  0.00  0.00    +0.000 A 
ATOM     28  F   UNL     1       7.550   6.592  17.086  0.00  0.00    +0.000 F 
ATOM     29  C   UNL     1       5.799   5.305  16.171  0.00  0.00    +0.000 A 
ATOM     30  C   UNL     1       4.783   4.358  16.343  0.00  0.00    +0.000 A 
ENDBRANCH  23  24
ENDBRANCH  21  23
ENDBRANCH  20  21
ENDBRANCH  19  20
ENDBRANCH  18  19
ENDBRANCH  17  18
ENDBRANCH   1  17
TORSDOF 11
ENDMDL
MODEL 7
REMARK VINA RESULT:      -6.8      2.647      4.532
REMARK  Name = 
REMARK  11 active torsions:
REMARK  status: ('A' for Active; 'I' for Inactive)
REMARK    1  A    between atoms: C_2  and  O_3
REMARK    2  A    between atoms: C_2  and  C_24
REMARK    3  A    between atoms: O_3  and  C_4
REMARK    4  A    between atoms: C_4  and  C_5
REMARK    5  A    between atoms: C_5  and  C_6
REMARK    6  A    between atoms: C_6  and  C_7
REMARK    7  A    between atoms: C_7  and  C_8
REMARK    8  A    between atoms: C_9  and  C_10
REMARK    9  A    between atoms: C_13  and  C_14
REMARK   10  A    between atoms: C_14  and  O_16
REMARK   11  A    between atoms: O_16  and  C_17
REMARK                            x       y       z     vdW  Elec       q    Type
REMARK                         _______ _______ _______ _____ _____    ______ ____
ROOT
ATOM      1  C   UNL     1       1.947   7.382  20.242  0.00  0.00    +0.000 C 
ATOM      2  C   UNL     1       1.267   8.222  20.767  0.00  0.00    +0.000 C 
ENDROOT
BRANCH   2   3
ATOM      3  C   UNL     1       0.443   9.254  21.317  0.00  0.00    +0.000 A 
ATOM      4  C   UNL     1       0.010   9.155  22.642  0.00  0.00    +0.000 A 
ATOM      5  C   UNL     1      -0.790  10.158  23.197  0.00  0.00    +0.000 A 
ATOM      6  C   UNL     1      -1.173  11.264  22.428  0.00  0.00    +0.000 A 
ATOM      7  C   UNL     1      -0.752  11.350  21.092  0.00  0.00    +0.000 A 
ATOM      8  C   UNL     1       0.061  10.350  20.543  0.00  0.00    +0.000 A 
BRANCH   6   9
ATOM      9  C   UNL     1      -1.895  12.373  23.112  0.00  0.00    +0.000 C 
ATOM     10  O   UNL     1      -3.008  12.257  23.599  0.00  0.00    +0.000 OA
BRANCH   9  11
ATOM     11  O   UNL     1      -1.080  13.442  23.286  0.00  0.00    +0.000 OA
BRANCH  11  12
ATOM     12  C   UNL     1      -1.706  14.715  23.007  0.00  0.00    +0.000 C 
ATOM     13  C   UNL     1      -0.841  15.818  23.631  0.00  0.00    +0.000 C 
ATOM     14  S   UNL     1       0.618  16.068  22.570  0.00  0.00    +0.000 S 
ATOM     15  S   UNL     1      -0.164  15.257  20.857  0.00  0.00    +0.000 S 
ATOM     16  C   UNL     1      -1.832  14.968  21.505  0.00  0.00    +0.000 C 
ENDBRANCH  11  12
ENDBRANCH   9  11
ENDBRANCH   6   9
ENDBRANCH   2   3
BRANCH   1  17
ATOM     17  C   UNL     1       2.780   6.398  19.538  0.00  0.00    +0.000 C 
BRANCH  17  18
ATOM     18  C   UNL     1       2.309   6.152  18.100  0.00  0.00    +0.000 C 
BRANCH  18  19
ATOM     19  C   UNL     1       1.795   4.739  17.805  0.00  0.00    +0.000 C 
BRANCH  19  20
ATOM     20  C   UNL     1       2.432   3.653  18.671  0.00  0.00    +0.000 C 
BRANCH  20  21
ATOM     21  O   UNL     1       3.684   3.226  18.106  0.00  0.00    +0.000 OA
BRANCH  21  23
ATOM     22  O   UNL     1       5.011   2.723  19.914  0.00  0.00    +0.000 OA
ATOM     23  C   UNL     1       4.762   3.381  18.914  0.00  0.00    +0.000 C 
BRANCH  23  24
ATOM     24  C   UNL     1       5.655   4.468  18.427  0.00  0.00    +0.000 A 
ATOM     25  C   UNL     1       5.605   4.794  17.063  0.00  0.00    +0.000 A 
ATOM     26  C   UNL     1       6.410   5.813  16.547  0.00  0.00    +0.000 A 
ATOM     27  C   UNL     1       7.260   6.502  17.399  0.00  0.00    +0.000 A 
ATOM     28  F   UNL     1       8.031   7.481  16.906  0.00  0.00    +0.000 F 
ATOM     29  C   UNL     1       7.327   6.195  18.752  0.00  0.00    +0.000 A 
ATOM     30  C   UNL     1       6.525   5.174  19.273  0.00  0.00    +0.000 A 
ENDBRANCH  23  24
ENDBRANCH  21  23
ENDBRANCH  20  21
ENDBRANCH  19  20
ENDBRANCH  18  19
ENDBRANCH  17  18
ENDBRANCH   1  17
TORSDOF 11
ENDMDL
MODEL 8
REMARK VINA RESULT:      -6.8      2.936      4.919
REMARK  Name = 
REMARK  11 active torsions:
REMARK  status: ('A' for Active; 'I' for Inactive)
REMARK    1  A    between atoms: C_2  and  O_3
REMARK    2  A    between atoms: C_2  and  C_24
REMARK    3  A    between atoms: O_3  and  C_4
REMARK    4  A    between atoms: C_4  and  C_5
REMARK    5  A    between atoms: C_5  and  C_6
REMARK    6  A    between atoms: C_6  and  C_7
REMARK    7  A    between atoms: C_7  and  C_8
REMARK    8  A    between atoms: C_9  and  C_10
REMARK    9  A    between atoms: C_13  and  C_14
REMARK   10  A    between atoms: C_14  and  O_16
REMARK   11  A    between atoms: O_16  and  C_17
REMARK                            x       y       z     vdW  Elec       q    Type
REMARK                         _______ _______ _______ _____ _____    ______ ____
ROOT
ATOM      1  C   UNL     1       1.824   7.585  20.493  0.00  0.00    +0.000 C 
ATOM      2  C   UNL     1       1.280   8.553  20.953  0.00  0.00    +0.000 C 
ENDROOT
BRANCH   2   3
ATOM      3  C   UNL     1       0.576   9.699  21.441  0.00  0.00    +0.000 A 
ATOM      4  C   UNL     1      -0.224   9.580  22.580  0.00  0.00    +0.000 A 
ATOM      5  C   UNL     1      -0.914  10.690  23.074  0.00  0.00    +0.000 A 
ATOM      6  C   UNL     1      -0.817  11.928  22.426  0.00  0.00    +0.000 A 
ATOM      7  C   UNL     1      -0.029  12.039  21.271  0.00  0.00    +0.000 A 
ATOM      8  C   UNL     1       0.673  10.927  20.787  0.00  0.00    +0.000 A 
BRANCH   6   9
ATOM      9  C   UNL     1      -1.448  13.109  23.080  0.00  0.00    +0.000 C 
ATOM     10  O   UNL     1      -0.871  13.832  23.876  0.00  0.00    +0.000 OA
BRANCH   9  11
ATOM     11  O   UNL     1      -2.659  13.374  22.529  0.00  0.00    +0.000 OA
BRANCH  11  12
ATOM     12  C   UNL     1      -3.781  13.045  23.379  0.00  0.00    +0.000 C 
ATOM     13  C   UNL     1      -3.949  14.175  24.403  0.00  0.00    +0.000 C 
ATOM     14  S   UNL     1      -4.732  15.591  23.566  0.00  0.00    +0.000 S 
ATOM     15  S   UNL     1      -5.553  14.549  22.003  0.00  0.00    +0.000 S 
ATOM     16  C   UNL     1      -5.075  12.898  22.578  0.00  0.00    +0.000 C 
ENDBRANCH  11  12
ENDBRANCH   9  11
ENDBRANCH   6   9
ENDBRANCH   2   3
BRANCH   1  17
ATOM     17  C   UNL     1       2.448   6.413  19.866  0.00  0.00    +0.000 C 
BRANCH  17  18
ATOM     18  C   UNL     1       1.696   5.113  20.172  0.00  0.00    +0.000 C 
BRANCH  18  19
ATOM     19  C   UNL     1       1.491   4.171  18.981  0.00  0.00    +0.000 C 
BRANCH  19  20
ATOM     20  C   UNL     1       2.552   3.078  18.863  0.00  0.00    +0.000 C 
BRANCH  20  21
ATOM     21  O   UNL     1       3.691   3.557  18.127  0.00  0.00    +0.000 OA
BRANCH  21  23
ATOM     22  O   UNL     1       5.186   3.009  19.784  0.00  0.00    +0.000 OA
ATOM     23  C   UNL     1       4.822   3.719  18.858  0.00  0.00    +0.000 C 
BRANCH  23  24
ATOM     24  C   UNL     1       5.613   4.888  18.385  0.00  0.00    +0.000 A 
ATOM     25  C   UNL     1       6.825   5.165  19.036  0.00  0.00    +0.000 A 
ATOM     26  C   UNL     1       7.618   6.242  18.631  0.00  0.00    +0.000 A 
ATOM     27  C   UNL     1       7.196   7.034  17.574  0.00  0.00    +0.000 A 
ATOM     28  F   UNL     1       7.958   8.065  17.182  0.00  0.00    +0.000 F 
ATOM     29  C   UNL     1       6.001   6.779  16.915  0.00  0.00    +0.000 A 
ATOM     30  C   UNL     1       5.201   5.703  17.319  0.00  0.00    +0.000 A 
ENDBRANCH  23  24
ENDBRANCH  21  23
ENDBRANCH  20  21
ENDBRANCH  19  20
ENDBRANCH  18  19
ENDBRANCH  17  18
ENDBRANCH   1  17
TORSDOF 11
ENDMDL
MODEL 9
REMARK VINA RESULT:      -6.8      7.610     10.308
REMARK  Name = 
REMARK  11 active torsions:
REMARK  status: ('A' for Active; 'I' for Inactive)
REMARK    1  A    between atoms: C_2  and  O_3
REMARK    2  A    between atoms: C_2  and  C_24
REMARK    3  A    between atoms: O_3  and  C_4
REMARK    4  A    between atoms: C_4  and  C_5
REMARK    5  A    between atoms: C_5  and  C_6
REMARK    6  A    between atoms: C_6  and  C_7
REMARK    7  A    between atoms: C_7  and  C_8
REMARK    8  A    between atoms: C_9  and  C_10
REMARK    9  A    between atoms: C_13  and  C_14
REMARK   10  A    between atoms: C_14  and  O_16
REMARK   11  A    between atoms: O_16  and  C_17
REMARK                            x       y       z     vdW  Elec       q    Type
REMARK                         _______ _______ _______ _____ _____    ______ ____
ROOT
ATOM      1  C   UNL     1       8.750   9.730  18.353  0.00  0.00    +0.000 C 
ATOM      2  C   UNL     1       8.167   8.719  18.068  0.00  0.00    +0.000 C 
ENDROOT
BRANCH   2   3
ATOM      3  C   UNL     1       7.439   7.516  17.804  0.00  0.00    +0.000 A 
ATOM      4  C   UNL     1       6.317   7.559  16.973  0.00  0.00    +0.000 A 
ATOM      5  C   UNL     1       5.598   6.393  16.699  0.00  0.00    +0.000 A 
ATOM      6  C   UNL     1       5.990   5.172  17.264  0.00  0.00    +0.000 A 
ATOM      7  C   UNL     1       7.105   5.136  18.115  0.00  0.00    +0.000 A 
ATOM      8  C   UNL     1       7.832   6.305  18.375  0.00  0.00    +0.000 A 
BRANCH   6   9
ATOM      9  C   UNL     1       5.282   3.939  16.819  0.00  0.00    +0.000 C 
ATOM     10  O   UNL     1       5.573   3.318  15.810  0.00  0.00    +0.000 OA
BRANCH   9  11
ATOM     11  O   UNL     1       4.423   3.506  17.775  0.00  0.00    +0.000 OA
BRANCH  11  12
ATOM     12  C   UNL     1       3.038   3.487  17.361  0.00  0.00    +0.000 C 
ATOM     13  C   UNL     1       2.380   2.236  17.958  0.00  0.00    +0.000 C 
ATOM     14  S   UNL     1       2.064   2.546  19.725  0.00  0.00    +0.000 S 
ATOM     15  S   UNL     1       2.107   4.594  19.643  0.00  0.00    +0.000 S 
ATOM     16  C   UNL     1       2.285   4.727  17.844  0.00  0.00    +0.000 C 
ENDBRANCH  11  12
ENDBRANCH   9  11
ENDBRANCH   6   9
ENDBRANCH   2   3
BRANCH   1  17
ATOM     17  C   UNL     1       9.448  10.951  18.775  0.00  0.00    +0.000 C 
BRANCH  17  18
ATOM     18  C   UNL     1      10.562  11.356  17.804  0.00  0.00    +0.000 C 
BRANCH  18  19
ATOM     19  C   UNL     1      11.764  12.069  18.435  0.00  0.00    +0.000 C 
BRANCH  19  20
ATOM     20  C   UNL     1      12.146  13.375  17.741  0.00  0.00    +0.000 C 
BRANCH  20  21
ATOM     21  O   UNL     1      11.019  13.920  17.033  0.00  0.00    +0.000 OA
BRANCH  21  23
ATOM     22  O   UNL     1      11.487  16.144  16.698  0.00  0.00    +0.000 OA
ATOM     23  C   UNL     1      10.822  15.251  17.202  0.00  0.00    +0.000 C 
BRANCH  23  24
ATOM     24  C   UNL     1       9.655  15.521  18.085  0.00  0.00    +0.000 A 
ATOM     25  C   UNL     1       8.643  14.551  18.148  0.00  0.00    +0.000 A 
ATOM     26  C   UNL     1       7.528  14.741  18.968  0.00  0.00    +0.000 A 
ATOM     27  C   UNL     1       7.432  15.899  19.723  0.00  0.00    +0.000 A 
ATOM     28  F   UNL     1       6.364  16.081  20.512  0.00  0.00    +0.000 F 
ATOM     29  C   UNL     1       8.421  16.874  19.677  0.00  0.00    +0.000 A 
ATOM     30  C   UNL     1       9.538  16.689  18.854  0.00  0.00    +0.000 A 
ENDBRANCH  23  24
ENDBRANCH  21  23
ENDBRANCH  20  21
ENDBRANCH  19  20
ENDBRANCH  18  19
ENDBRANCH  17  18
ENDBRANCH   1  17
TORSDOF 11
ENDMDL
