MODEL 1
REMARK VINA RESULT:      -6.9      0.000      0.000
REMARK  Name = 
REMARK  2 active torsions:
REMARK  status: ('A' for Active; 'I' for Inactive)
REMARK    1  A    between atoms: C_2  and  C_13
REMARK    2  A    between atoms: C_7  and  C_8
REMARK                            x       y       z     vdW  Elec       q    Type
REMARK                         _______ _______ _______ _____ _____    ______ ____
ROOT
ATOM      1  O   UNL     1       7.625   9.511  17.578  0.00  0.00    +0.000 OA
ATOM      2  C   UNL     1       8.465   9.216  18.425  0.00  0.00    +0.000 C 
ATOM      3  N   UNL     1       8.630   7.951  18.951  0.00  0.00    +0.000 N 
ATOM      4  C   UNL     1       7.943   6.827  18.568  0.00  0.00    +0.000 A 
ATOM      5  N   UNL     1       7.961   5.707  19.257  0.00  0.00    +0.000 NA
ATOM      6  N   UNL     1       7.178   4.724  18.681  0.00  0.00    +0.000 NA
ATOM      7  C   UNL     1       6.634   5.122  17.544  0.00  0.00    +0.000 A 
ATOM      8  S   UNL     1       7.054   6.733  17.116  0.00  0.00    +0.000 S 
ATOM      9  H   UNL     1       9.224   7.833  19.761  0.00  0.00    +0.000 HD
ENDROOT
BRANCH   2  10
ATOM     10  C   UNL     1       9.339  10.247  18.975  0.00  0.00    +0.000 A 
ATOM     11  C   UNL     1       9.477  10.559  20.318  0.00  0.00    +0.000 A 
ATOM     12  C   UNL     1      10.360  11.653  20.544  0.00  0.00    +0.000 A 
ATOM     13  C   UNL     1      10.859  12.131  19.361  0.00  0.00    +0.000 A 
ATOM     14 BR   UNL     1      12.024  13.593  19.251  0.00  0.00    +0.000 Br
ATOM     15  S   UNL     1      10.311  11.274  18.004  0.00  0.00    +0.000 S 
ENDBRANCH   2  10
BRANCH   7  16
ATOM     16  C   UNL     1       5.743   4.329  16.652  0.00  0.00    +0.000 C 
ATOM     17  F   UNL     1       4.968   3.442  17.328  0.00  0.00    +0.000 F 
ATOM     18  F   UNL     1       4.890   5.119  15.941  0.00  0.00    +0.000 F 
ATOM     19  F   UNL     1       6.448   3.606  15.738  0.00  0.00    +0.000 F 
ENDBRANCH   7  16
TORSDOF 2
ENDMDL
MODEL 2
REMARK VINA RESULT:      -6.6      6.082      6.795
REMARK  Name = 
REMARK  2 active torsions:
REMARK  status: ('A' for Active; 'I' for Inactive)
REMARK    1  A    between atoms: C_2  and  C_13
REMARK    2  A    between atoms: C_7  and  C_8
REMARK                            x       y       z     vdW  Elec       q    Type
REMARK                         _______ _______ _______ _____ _____    ______ ____
ROOT
ATOM      1  O   UNL     1       2.628   8.491  17.390  0.00  0.00    +0.000 OA
ATOM      2  C   UNL     1       2.336   8.014  18.485  0.00  0.00    +0.000 C 
ATOM      3  N   UNL     1       2.774   6.790  18.943  0.00  0.00    +0.000 N 
ATOM      4  C   UNL     1       3.646   5.954  18.293  0.00  0.00    +0.000 A 
ATOM      5  N   UNL     1       3.842   4.704  18.651  0.00  0.00    +0.000 NA
ATOM      6  N   UNL     1       4.753   4.061  17.832  0.00  0.00    +0.000 NA
ATOM      7  C   UNL     1       5.253   4.867  16.912  0.00  0.00    +0.000 A 
ATOM      8  S   UNL     1       4.631   6.467  16.998  0.00  0.00    +0.000 S 
ATOM      9  H   UNL     1       2.351   6.401  19.775  0.00  0.00    +0.000 HD
ENDROOT
BRANCH   2  10
ATOM     10  C   UNL     1       1.431   8.735  19.375  0.00  0.00    +0.000 A 
ATOM     11  C   UNL     1       0.658   9.831  19.027  0.00  0.00    +0.000 A 
ATOM     12  C   UNL     1      -0.080  10.359  20.125  0.00  0.00    +0.000 A 
ATOM     13  C   UNL     1       0.164   9.642  21.267  0.00  0.00    +0.000 A 
ATOM     14 BR   UNL     1      -0.596  10.059  22.927  0.00  0.00    +0.000 Br
ATOM     15  S   UNL     1       1.229   8.342  21.032  0.00  0.00    +0.000 S 
ENDBRANCH   2  10
BRANCH   7  16
ATOM     16  C   UNL     1       6.260   4.521  15.871  0.00  0.00    +0.000 C 
ATOM     17  F   UNL     1       6.002   3.337  15.255  0.00  0.00    +0.000 F 
ATOM     18  F   UNL     1       6.324   5.459  14.885  0.00  0.00    +0.000 F 
ATOM     19  F   UNL     1       7.516   4.421  16.387  0.00  0.00    +0.000 F 
ENDBRANCH   7  16
TORSDOF 2
ENDMDL
MODEL 3
REMARK VINA RESULT:      -6.4      8.568      9.822
REMARK  Name = 
REMARK  2 active torsions:
REMARK  status: ('A' for Active; 'I' for Inactive)
REMARK    1  A    between atoms: C_2  and  C_13
REMARK    2  A    between atoms: C_7  and  C_8
REMARK                            x       y       z     vdW  Elec       q    Type
REMARK                         _______ _______ _______ _____ _____    ______ ____
ROOT
ATOM      1  O   UNL     1       1.286   9.116  18.626  0.00  0.00    +0.000 OA
ATOM      2  C   UNL     1       1.812   8.246  19.318  0.00  0.00    +0.000 C 
ATOM      3  N   UNL     1       1.732   8.191  20.693  0.00  0.00    +0.000 N 
ATOM      4  C   UNL     1       1.009   9.042  21.490  0.00  0.00    +0.000 A 
ATOM      5  N   UNL     1       1.156   9.100  22.795  0.00  0.00    +0.000 NA
ATOM      6  N   UNL     1       0.331  10.046  23.375  0.00  0.00    +0.000 NA
ATOM      7  C   UNL     1      -0.452  10.636  22.488  0.00  0.00    +0.000 A 
ATOM      8  S   UNL     1      -0.217  10.061  20.886  0.00  0.00    +0.000 S 
ATOM      9  H   UNL     1       2.332   7.547  21.191  0.00  0.00    +0.000 HD
ENDROOT
BRANCH   2  10
ATOM     10  C   UNL     1       2.622   7.207  18.690  0.00  0.00    +0.000 A 
ATOM     11  C   UNL     1       3.589   7.412  17.719  0.00  0.00    +0.000 A 
ATOM     12  C   UNL     1       4.171   6.199  17.253  0.00  0.00    +0.000 A 
ATOM     13  C   UNL     1       3.622   5.117  17.890  0.00  0.00    +0.000 A 
ATOM     14 BR   UNL     1       4.106   3.347  17.517  0.00  0.00    +0.000 Br
ATOM     15  S   UNL     1       2.454   5.538  19.046  0.00  0.00    +0.000 S 
ENDBRANCH   2  10
BRANCH   7  16
ATOM     16  C   UNL     1      -1.468  11.692  22.753  0.00  0.00    +0.000 C 
ATOM     17  F   UNL     1      -0.936  12.814  23.306  0.00  0.00    +0.000 F 
ATOM     18  F   UNL     1      -2.105  12.091  21.616  0.00  0.00    +0.000 F 
ATOM     19  F   UNL     1      -2.439  11.265  23.607  0.00  0.00    +0.000 F 
ENDBRANCH   7  16
TORSDOF 2
ENDMDL
MODEL 4
REMARK VINA RESULT:      -6.4      6.791      7.469
REMARK  Name = 
REMARK  2 active torsions:
REMARK  status: ('A' for Active; 'I' for Inactive)
REMARK    1  A    between atoms: C_2  and  C_13
REMARK    2  A    between atoms: C_7  and  C_8
REMARK                            x       y       z     vdW  Elec       q    Type
REMARK                         _______ _______ _______ _____ _____    ______ ____
ROOT
ATOM      1  O   UNL     1       1.443   8.972  18.902  0.00  0.00    +0.000 OA
ATOM      2  C   UNL     1       1.369   8.549  20.054  0.00  0.00    +0.000 C 
ATOM      3  N   UNL     1       1.876   7.338  20.473  0.00  0.00    +0.000 N 
ATOM      4  C   UNL     1       2.594   6.458  19.703  0.00  0.00    +0.000 A 
ATOM      5  N   UNL     1       2.845   5.222  20.072  0.00  0.00    +0.000 NA
ATOM      6  N   UNL     1       3.569   4.526  19.121  0.00  0.00    +0.000 NA
ATOM      7  C   UNL     1       3.885   5.282  18.084  0.00  0.00    +0.000 A 
ATOM      8  S   UNL     1       3.308   6.896  18.217  0.00  0.00    +0.000 S 
ATOM      9  H   UNL     1       1.623   6.993  21.389  0.00  0.00    +0.000 HD
ENDROOT
BRANCH   2  10
ATOM     10  C   UNL     1       0.666   9.325  21.071  0.00  0.00    +0.000 A 
ATOM     11  C   UNL     1       0.323   8.877  22.336  0.00  0.00    +0.000 A 
ATOM     12  C   UNL     1      -0.412   9.841  23.084  0.00  0.00    +0.000 A 
ATOM     13  C   UNL     1      -0.600  10.986  22.354  0.00  0.00    +0.000 A 
ATOM     14 BR   UNL     1      -1.557  12.466  22.989  0.00  0.00    +0.000 Br
ATOM     15  S   UNL     1       0.112  10.929  20.817  0.00  0.00    +0.000 S 
ENDBRANCH   2  10
BRANCH   7  16
ATOM     16  C   UNL     1       4.663   4.873  16.881  0.00  0.00    +0.000 C 
ATOM     17  F   UNL     1       4.819   5.880  15.983  0.00  0.00    +0.000 F 
ATOM     18  F   UNL     1       5.917   4.447  17.199  0.00  0.00    +0.000 F 
ATOM     19  F   UNL     1       4.067   3.848  16.211  0.00  0.00    +0.000 F 
ENDBRANCH   7  16
TORSDOF 2
ENDMDL
MODEL 5
REMARK VINA RESULT:      -6.3      7.039      7.677
REMARK  Name = 
REMARK  2 active torsions:
REMARK  status: ('A' for Active; 'I' for Inactive)
REMARK    1  A    between atoms: C_2  and  C_13
REMARK    2  A    between atoms: C_7  and  C_8
REMARK                            x       y       z     vdW  Elec       q    Type
REMARK                         _______ _______ _______ _____ _____    ______ ____
ROOT
ATOM      1  O   UNL     1       1.577   8.767  19.371  0.00  0.00    +0.000 OA
ATOM      2  C   UNL     1       1.226   8.444  20.504  0.00  0.00    +0.000 C 
ATOM      3  N   UNL     1       1.388   7.185  21.041  0.00  0.00    +0.000 N 
ATOM      4  C   UNL     1       2.019   6.128  20.433  0.00  0.00    +0.000 A 
ATOM      5  N   UNL     1       1.936   4.893  20.877  0.00  0.00    +0.000 NA
ATOM      6  N   UNL     1       2.642   4.004  20.087  0.00  0.00    +0.000 NA
ATOM      7  C   UNL     1       3.277   4.609  19.099  0.00  0.00    +0.000 A 
ATOM      8  S   UNL     1       3.044   6.312  19.083  0.00  0.00    +0.000 S 
ATOM      9  H   UNL     1       0.920   6.960  21.908  0.00  0.00    +0.000 HD
ENDROOT
BRANCH   2  10
ATOM     10  C   UNL     1       0.547   9.413  21.359  0.00  0.00    +0.000 A 
ATOM     11  C   UNL     1      -0.152   9.117  22.518  0.00  0.00    +0.000 A 
ATOM     12  C   UNL     1      -0.758  10.265  23.106  0.00  0.00    +0.000 A 
ATOM     13  C   UNL     1      -0.494  11.389  22.368  0.00  0.00    +0.000 A 
ATOM     14 BR   UNL     1      -1.155  13.086  22.806  0.00  0.00    +0.000 Br
ATOM     15  S   UNL     1       0.483  11.092  21.015  0.00  0.00    +0.000 S 
ENDBRANCH   2  10
BRANCH   7  16
ATOM     16  C   UNL     1       4.137   3.972  18.063  0.00  0.00    +0.000 C 
ATOM     17  F   UNL     1       3.592   4.020  16.819  0.00  0.00    +0.000 F 
ATOM     18  F   UNL     1       5.358   4.567  17.970  0.00  0.00    +0.000 F 
ATOM     19  F   UNL     1       4.370   2.657  18.331  0.00  0.00    +0.000 F 
ENDBRANCH   7  16
TORSDOF 2
ENDMDL
MODEL 6
REMARK VINA RESULT:      -6.3      6.489      7.203
REMARK  Name = 
REMARK  2 active torsions:
REMARK  status: ('A' for Active; 'I' for Inactive)
REMARK    1  A    between atoms: C_2  and  C_13
REMARK    2  A    between atoms: C_7  and  C_8
REMARK                            x       y       z     vdW  Elec       q    Type
REMARK                         _______ _______ _______ _____ _____    ______ ____
ROOT
ATOM      1  O   UNL     1       1.575   8.844  18.553  0.00  0.00    +0.000 OA
ATOM      2  C   UNL     1       1.608   8.447  19.715  0.00  0.00    +0.000 C 
ATOM      3  N   UNL     1       2.256   7.302  20.130  0.00  0.00    +0.000 N 
ATOM      4  C   UNL     1       3.013   6.477  19.338  0.00  0.00    +0.000 A 
ATOM      5  N   UNL     1       3.406   5.281  19.718  0.00  0.00    +0.000 NA
ATOM      6  N   UNL     1       4.141   4.635  18.741  0.00  0.00    +0.000 NA
ATOM      7  C   UNL     1       4.321   5.390  17.672  0.00  0.00    +0.000 A 
ATOM      8  S   UNL     1       3.596   6.942  17.804  0.00  0.00    +0.000 S 
ATOM      9  H   UNL     1       2.089   6.959  21.067  0.00  0.00    +0.000 HD
ENDROOT
BRANCH   2  10
ATOM     10  C   UNL     1       0.889   9.177  20.755  0.00  0.00    +0.000 A 
ATOM     11  C   UNL     1       0.460   8.652  21.963  0.00  0.00    +0.000 A 
ATOM     12  C   UNL     1      -0.267   9.592  22.748  0.00  0.00    +0.000 A 
ATOM     13  C   UNL     1      -0.363  10.797  22.103  0.00  0.00    +0.000 A 
ATOM     14 BR   UNL     1      -1.281  12.271  22.805  0.00  0.00    +0.000 Br
ATOM     15  S   UNL     1       0.426  10.822  20.602  0.00  0.00    +0.000 S 
ENDBRANCH   2  10
BRANCH   7  16
ATOM     16  C   UNL     1       5.067   5.027  16.434  0.00  0.00    +0.000 C 
ATOM     17  F   UNL     1       6.361   4.686  16.676  0.00  0.00    +0.000 F 
ATOM     18  F   UNL     1       4.507   3.967  15.787  0.00  0.00    +0.000 F 
ATOM     19  F   UNL     1       5.100   6.051  15.537  0.00  0.00    +0.000 F 
ENDBRANCH   7  16
TORSDOF 2
ENDMDL
MODEL 7
REMARK VINA RESULT:      -6.3      6.070      6.845
REMARK  Name = 
REMARK  2 active torsions:
REMARK  status: ('A' for Active; 'I' for Inactive)
REMARK    1  A    between atoms: C_2  and  C_13
REMARK    2  A    between atoms: C_7  and  C_8
REMARK                            x       y       z     vdW  Elec       q    Type
REMARK                         _______ _______ _______ _____ _____    ______ ____
ROOT
ATOM      1  O   UNL     1       2.231   8.240  18.036  0.00  0.00    +0.000 OA
ATOM      2  C   UNL     1       2.182   7.867  19.206  0.00  0.00    +0.000 C 
ATOM      3  N   UNL     1       2.813   6.741  19.691  0.00  0.00    +0.000 N 
ATOM      4  C   UNL     1       3.639   5.911  18.975  0.00  0.00    +0.000 A 
ATOM      5  N   UNL     1       4.019   4.730  19.408  0.00  0.00    +0.000 NA
ATOM      6  N   UNL     1       4.833   4.075  18.503  0.00  0.00    +0.000 NA
ATOM      7  C   UNL     1       5.083   4.811  17.434  0.00  0.00    +0.000 A 
ATOM      8  S   UNL     1       4.328   6.355  17.480  0.00  0.00    +0.000 S 
ATOM      9  H   UNL     1       2.582   6.414  20.620  0.00  0.00    +0.000 HD
ENDROOT
BRANCH   2  10
ATOM     10  C   UNL     1       1.378   8.607  20.174  0.00  0.00    +0.000 A 
ATOM     11  C   UNL     1       0.989   8.147  21.421  0.00  0.00    +0.000 A 
ATOM     12  C   UNL     1       0.158   9.071  22.117  0.00  0.00    +0.000 A 
ATOM     13  C   UNL     1      -0.052  10.199  21.368  0.00  0.00    +0.000 A 
ATOM     14 BR   UNL     1      -1.127  11.625  21.933  0.00  0.00    +0.000 Br
ATOM     15  S   UNL     1       0.751  10.175  19.874  0.00  0.00    +0.000 S 
ENDBRANCH   2  10
BRANCH   7  16
ATOM     16  C   UNL     1       5.924   4.435  16.263  0.00  0.00    +0.000 C 
ATOM     17  F   UNL     1       5.720   5.236  15.185  0.00  0.00    +0.000 F 
ATOM     18  F   UNL     1       7.255   4.502  16.543  0.00  0.00    +0.000 F 
ATOM     19  F   UNL     1       5.682   3.161  15.848  0.00  0.00    +0.000 F 
ENDBRANCH   7  16
TORSDOF 2
ENDMDL
MODEL 8
REMARK VINA RESULT:      -6.2      6.175      6.780
REMARK  Name = 
REMARK  2 active torsions:
REMARK  status: ('A' for Active; 'I' for Inactive)
REMARK    1  A    between atoms: C_2  and  C_13
REMARK    2  A    between atoms: C_7  and  C_8
REMARK                            x       y       z     vdW  Elec       q    Type
REMARK                         _______ _______ _______ _____ _____    ______ ____
ROOT
ATOM      1  O   UNL     1       2.454   8.465  17.835  0.00  0.00    +0.000 OA
ATOM      2  C   UNL     1       2.266   7.928  18.925  0.00  0.00    +0.000 C 
ATOM      3  N   UNL     1       2.718   6.670  19.262  0.00  0.00    +0.000 N 
ATOM      4  C   UNL     1       3.496   5.858  18.475  0.00  0.00    +0.000 A 
ATOM      5  N   UNL     1       3.697   4.586  18.736  0.00  0.00    +0.000 NA
ATOM      6  N   UNL     1       4.500   3.976  17.790  0.00  0.00    +0.000 NA
ATOM      7  C   UNL     1       4.922   4.827  16.870  0.00  0.00    +0.000 A 
ATOM      8  S   UNL     1       4.353   6.431  17.116  0.00  0.00    +0.000 S 
ATOM      9  H   UNL     1       2.375   6.239  20.110  0.00  0.00    +0.000 HD
ENDROOT
BRANCH   2  10
ATOM     10  C   UNL     1       1.478   8.611  19.947  0.00  0.00    +0.000 A 
ATOM     11  C   UNL     1       1.141   8.094  21.187  0.00  0.00    +0.000 A 
ATOM     12  C   UNL     1       0.313   8.970  21.945  0.00  0.00    +0.000 A 
ATOM     13  C   UNL     1       0.053  10.121  21.248  0.00  0.00    +0.000 A 
ATOM     14 BR   UNL     1      -1.034  11.498  21.904  0.00  0.00    +0.000 Br
ATOM     15  S   UNL     1       0.806  10.173  19.730  0.00  0.00    +0.000 S 
ENDBRANCH   2  10
BRANCH   7  16
ATOM     16  C   UNL     1       5.806   4.527  15.710  0.00  0.00    +0.000 C 
ATOM     17  F   UNL     1       6.001   3.196  15.522  0.00  0.00    +0.000 F 
ATOM     18  F   UNL     1       5.301   5.009  14.540  0.00  0.00    +0.000 F 
ATOM     19  F   UNL     1       7.042   5.081  15.851  0.00  0.00    +0.000 F 
ENDBRANCH   7  16
TORSDOF 2
ENDMDL
MODEL 9
REMARK VINA RESULT:      -6.2      6.422      6.952
REMARK  Name = 
REMARK  2 active torsions:
REMARK  status: ('A' for Active; 'I' for Inactive)
REMARK    1  A    between atoms: C_2  and  C_13
REMARK    2  A    between atoms: C_7  and  C_8
REMARK                            x       y       z     vdW  Elec       q    Type
REMARK                         _______ _______ _______ _____ _____    ______ ____
ROOT
ATOM      1  O   UNL     1       3.368   3.938  16.617  0.00  0.00    +0.000 OA
ATOM      2  C   UNL     1       3.872   4.890  17.209  0.00  0.00    +0.000 C 
ATOM      3  N   UNL     1       5.035   5.521  16.821  0.00  0.00    +0.000 N 
ATOM      4  C   UNL     1       5.765   5.238  15.694  0.00  0.00    +0.000 A 
ATOM      5  N   UNL     1       6.982   5.694  15.495  0.00  0.00    +0.000 NA
ATOM      6  N   UNL     1       7.516   5.257  14.297  0.00  0.00    +0.000 NA
ATOM      7  C   UNL     1       6.660   4.525  13.606  0.00  0.00    +0.000 A 
ATOM      8  S   UNL     1       5.144   4.329  14.391  0.00  0.00    +0.000 S 
ATOM      9  H   UNL     1       5.469   6.179  17.455  0.00  0.00    +0.000 HD
ENDROOT
BRANCH   2  10
ATOM     10  C   UNL     1       3.259   5.393  18.434  0.00  0.00    +0.000 A 
ATOM     11  C   UNL     1       3.001   4.648  19.573  0.00  0.00    +0.000 A 
ATOM     12  C   UNL     1       2.340   5.399  20.588  0.00  0.00    +0.000 A 
ATOM     13  C   UNL     1       2.121   6.688  20.177  0.00  0.00    +0.000 A 
ATOM     14 BR   UNL     1       1.241   7.967  21.224  0.00  0.00    +0.000 Br
ATOM     15  S   UNL     1       2.719   7.010  18.623  0.00  0.00    +0.000 S 
ENDBRANCH   2  10
BRANCH   7  16
ATOM     16  C   UNL     1       6.888   3.898  12.274  0.00  0.00    +0.000 C 
ATOM     17  F   UNL     1       7.667   2.787  12.337  0.00  0.00    +0.000 F 
ATOM     18  F   UNL     1       5.724   3.517  11.678  0.00  0.00    +0.000 F 
ATOM     19  F   UNL     1       7.502   4.750  11.406  0.00  0.00    +0.000 F 
ENDBRANCH   7  16
TORSDOF 2
ENDMDL
