MODEL 1
REMARK VINA RESULT:      -7.1      0.000      0.000
REMARK  Name = 
REMARK  1 active torsions:
REMARK  status: ('A' for Active; 'I' for Inactive)
REMARK    1  A    between atoms: C_10  and  C_11
REMARK                            x       y       z     vdW  Elec       q    Type
REMARK                         _______ _______ _______ _____ _____    ______ ____
ROOT
ATOM      1  O   UNL     1       8.306   5.534  14.451  0.00  0.00    +0.000 OA
ATOM      2  C   UNL     1       7.238   4.973  14.706  0.00  0.00    +0.000 C 
ATOM      3  C   UNL     1       6.548   4.261  13.615  0.00  0.00    +0.000 A 
ATOM      4  C   UNL     1       7.114   4.215  12.332  0.00  0.00    +0.000 A 
ATOM      5  C   UNL     1       6.386   3.674  11.276  0.00  0.00    +0.000 A 
ATOM      6  C   UNL     1       5.100   3.186  11.502  0.00  0.00    +0.000 A 
ATOM      7  C   UNL     1       4.555   3.218  12.788  0.00  0.00    +0.000 A 
ATOM      8  C   UNL     1       5.287   3.722  13.869  0.00  0.00    +0.000 A 
ATOM      9  N   UNL     1       4.690   3.846  15.119  0.00  0.00    +0.000 N 
ATOM     10  C   UNL     1       5.569   4.028  16.275  0.00  0.00    +0.000 C 
ATOM     11  N   UNL     1       6.611   4.989  15.947  0.00  0.00    +0.000 N 
ATOM     12  C   UNL     1       7.283   5.641  17.008  0.00  0.00    +0.000 A 
ATOM     13  C   UNL     1       7.469   7.019  16.885  0.00  0.00    +0.000 A 
ATOM     14  C   UNL     1       7.907   7.744  17.985  0.00  0.00    +0.000 A 
ATOM     15  C   UNL     1       8.216   7.068  19.156  0.00  0.00    +0.000 A 
ATOM     16  C   UNL     1       8.041   5.693  19.180  0.00  0.00    +0.000 A 
ATOM     17  N   UNL     1       7.542   4.970  18.150  0.00  0.00    +0.000 NA
ATOM     18  H   UNL     1       3.955   3.169  15.289  0.00  0.00    +0.000 HD
ENDROOT
BRANCH  10  19
ATOM     19  C   UNL     1       4.617   4.451  17.399  0.00  0.00    +0.000 A 
ATOM     20  C   UNL     1       4.324   3.579  18.453  0.00  0.00    +0.000 A 
ATOM     21  C   UNL     1       3.426   3.992  19.429  0.00  0.00    +0.000 A 
ATOM     22  N   UNL     1       2.810   5.192  19.433  0.00  0.00    +0.000 NA
ATOM     23  C   UNL     1       3.087   6.013  18.403  0.00  0.00    +0.000 A 
ATOM     24  C   UNL     1       3.945   5.683  17.368  0.00  0.00    +0.000 A 
ENDBRANCH  10  19
TORSDOF 1
ENDMDL
MODEL 2
REMARK VINA RESULT:      -6.6      2.917      6.594
REMARK  Name = 
REMARK  1 active torsions:
REMARK  status: ('A' for Active; 'I' for Inactive)
REMARK    1  A    between atoms: C_10  and  C_11
REMARK                            x       y       z     vdW  Elec       q    Type
REMARK                         _______ _______ _______ _____ _____    ______ ____
ROOT
ATOM      1  O   UNL     1       1.480   5.649  20.259  0.00  0.00    +0.000 OA
ATOM      2  C   UNL     1       2.277   6.162  19.471  0.00  0.00    +0.000 C 
ATOM      3  C   UNL     1       2.114   7.592  19.149  0.00  0.00    +0.000 A 
ATOM      4  C   UNL     1       1.087   8.338  19.746  0.00  0.00    +0.000 A 
ATOM      5  C   UNL     1       0.846   9.642  19.323  0.00  0.00    +0.000 A 
ATOM      6  C   UNL     1       1.626  10.193  18.307  0.00  0.00    +0.000 A 
ATOM      7  C   UNL     1       2.660   9.448  17.735  0.00  0.00    +0.000 A 
ATOM      8  C   UNL     1       2.942   8.150  18.175  0.00  0.00    +0.000 A 
ATOM      9  N   UNL     1       3.902   7.384  17.521  0.00  0.00    +0.000 N 
ATOM     10  C   UNL     1       4.413   6.201  18.216  0.00  0.00    +0.000 C 
ATOM     11  N   UNL     1       3.308   5.483  18.832  0.00  0.00    +0.000 N 
ATOM     12  C   UNL     1       3.493   4.119  19.161  0.00  0.00    +0.000 A 
ATOM     13  C   UNL     1       2.462   3.241  18.819  0.00  0.00    +0.000 A 
ATOM     14  C   UNL     1       2.682   1.874  18.903  0.00  0.00    +0.000 A 
ATOM     15  C   UNL     1       3.896   1.416  19.393  0.00  0.00    +0.000 A 
ATOM     16  C   UNL     1       4.851   2.357  19.748  0.00  0.00    +0.000 A 
ATOM     17  N   UNL     1       4.695   3.694  19.604  0.00  0.00    +0.000 NA
ATOM     18  H   UNL     1       4.636   7.933  17.090  0.00  0.00    +0.000 HD
ENDROOT
BRANCH  10  19
ATOM     19  C   UNL     1       5.169   5.433  17.127  0.00  0.00    +0.000 A 
ATOM     20  C   UNL     1       6.565   5.342  17.155  0.00  0.00    +0.000 A 
ATOM     21  C   UNL     1       7.210   4.667  16.126  0.00  0.00    +0.000 A 
ATOM     22  N   UNL     1       6.575   4.084  15.088  0.00  0.00    +0.000 NA
ATOM     23  C   UNL     1       5.233   4.195  15.065  0.00  0.00    +0.000 A 
ATOM     24  C   UNL     1       4.503   4.871  16.027  0.00  0.00    +0.000 A 
ENDBRANCH  10  19
TORSDOF 1
ENDMDL
MODEL 3
REMARK VINA RESULT:      -6.6      2.126      5.897
REMARK  Name = 
REMARK  1 active torsions:
REMARK  status: ('A' for Active; 'I' for Inactive)
REMARK    1  A    between atoms: C_10  and  C_11
REMARK                            x       y       z     vdW  Elec       q    Type
REMARK                         _______ _______ _______ _____ _____    ______ ____
ROOT
ATOM      1  O   UNL     1       2.889   2.850  16.538  0.00  0.00    +0.000 OA
ATOM      2  C   UNL     1       3.386   3.504  17.457  0.00  0.00    +0.000 C 
ATOM      3  C   UNL     1       2.668   3.551  18.744  0.00  0.00    +0.000 A 
ATOM      4  C   UNL     1       1.466   2.848  18.909  0.00  0.00    +0.000 A 
ATOM      5  C   UNL     1       0.720   3.020  20.072  0.00  0.00    +0.000 A 
ATOM      6  C   UNL     1       1.174   3.891  21.061  0.00  0.00    +0.000 A 
ATOM      7  C   UNL     1       2.384   4.569  20.895  0.00  0.00    +0.000 A 
ATOM      8  C   UNL     1       3.166   4.379  19.750  0.00  0.00    +0.000 A 
ATOM      9  N   UNL     1       4.312   5.143  19.553  0.00  0.00    +0.000 N 
ATOM     10  C   UNL     1       5.274   4.675  18.554  0.00  0.00    +0.000 C 
ATOM     11  N   UNL     1       4.564   4.236  17.362  0.00  0.00    +0.000 N 
ATOM     12  C   UNL     1       5.276   4.170  16.142  0.00  0.00    +0.000 A 
ATOM     13  C   UNL     1       4.647   4.699  15.013  0.00  0.00    +0.000 A 
ATOM     14  C   UNL     1       5.380   4.873  13.848  0.00  0.00    +0.000 A 
ATOM     15  C   UNL     1       6.701   4.449  13.815  0.00  0.00    +0.000 A 
ATOM     16  C   UNL     1       7.237   3.897  14.968  0.00  0.00    +0.000 A 
ATOM     17  N   UNL     1       6.571   3.786  16.141  0.00  0.00    +0.000 NA
ATOM     18  H   UNL     1       4.755   5.443  20.413  0.00  0.00    +0.000 HD
ENDROOT
BRANCH  10  19
ATOM     19  C   UNL     1       6.210   5.872  18.356  0.00  0.00    +0.000 A 
ATOM     20  C   UNL     1       5.847   6.933  17.519  0.00  0.00    +0.000 A 
ATOM     21  C   UNL     1       6.745   7.978  17.341  0.00  0.00    +0.000 A 
ATOM     22  N   UNL     1       7.959   8.043  17.927  0.00  0.00    +0.000 NA
ATOM     23  C   UNL     1       8.302   7.006  18.715  0.00  0.00    +0.000 A 
ATOM     24  C   UNL     1       7.489   5.907  18.932  0.00  0.00    +0.000 A 
ENDBRANCH  10  19
TORSDOF 1
ENDMDL
MODEL 4
REMARK VINA RESULT:      -6.6      9.403     11.847
REMARK  Name = 
REMARK  1 active torsions:
REMARK  status: ('A' for Active; 'I' for Inactive)
REMARK    1  A    between atoms: C_10  and  C_11
REMARK                            x       y       z     vdW  Elec       q    Type
REMARK                         _______ _______ _______ _____ _____    ______ ____
ROOT
ATOM      1  O   UNL     1       1.152  13.940  22.113  0.00  0.00    +0.000 OA
ATOM      2  C   UNL     1       0.632  13.923  20.995  0.00  0.00    +0.000 C 
ATOM      3  C   UNL     1       0.651  15.163  20.199  0.00  0.00    +0.000 A 
ATOM      4  C   UNL     1       1.265  16.318  20.706  0.00  0.00    +0.000 A 
ATOM      5  C   UNL     1       1.145  17.522  20.017  0.00  0.00    +0.000 A 
ATOM      6  C   UNL     1       0.414  17.569  18.831  0.00  0.00    +0.000 A 
ATOM      7  C   UNL     1      -0.175  16.407  18.325  0.00  0.00    +0.000 A 
ATOM      8  C   UNL     1      -0.032  15.181  18.983  0.00  0.00    +0.000 A 
ATOM      9  N   UNL     1      -0.714  14.059  18.524  0.00  0.00    +0.000 N 
ATOM     10  C   UNL     1      -0.267  12.751  19.006  0.00  0.00    +0.000 C 
ATOM     11  N   UNL     1      -0.005  12.821  20.435  0.00  0.00    +0.000 N 
ATOM     12  C   UNL     1       0.002  11.616  21.178  0.00  0.00    +0.000 A 
ATOM     13  C   UNL     1      -0.684  11.620  22.394  0.00  0.00    +0.000 A 
ATOM     14  C   UNL     1      -0.909  10.417  23.048  0.00  0.00    +0.000 A 
ATOM     15  C   UNL     1      -0.383   9.251  22.511  0.00  0.00    +0.000 A 
ATOM     16  C   UNL     1       0.321   9.342  21.320  0.00  0.00    +0.000 A 
ATOM     17  N   UNL     1       0.489  10.488  20.620  0.00  0.00    +0.000 NA
ATOM     18  H   UNL     1      -0.891  14.069  17.527  0.00  0.00    +0.000 HD
ENDROOT
BRANCH  10  19
ATOM     19  C   UNL     1      -1.395  11.800  18.592  0.00  0.00    +0.000 A 
ATOM     20  C   UNL     1      -1.128  10.670  17.811  0.00  0.00    +0.000 A 
ATOM     21  C   UNL     1      -2.188   9.859  17.428  0.00  0.00    +0.000 A 
ATOM     22  N   UNL     1      -3.475  10.086  17.762  0.00  0.00    +0.000 NA
ATOM     23  C   UNL     1      -3.720  11.187  18.498  0.00  0.00    +0.000 A 
ATOM     24  C   UNL     1      -2.736  12.072  18.904  0.00  0.00    +0.000 A 
ENDBRANCH  10  19
TORSDOF 1
ENDMDL
MODEL 5
REMARK VINA RESULT:      -6.3      9.235     11.355
REMARK  Name = 
REMARK  1 active torsions:
REMARK  status: ('A' for Active; 'I' for Inactive)
REMARK    1  A    between atoms: C_10  and  C_11
REMARK                            x       y       z     vdW  Elec       q    Type
REMARK                         _______ _______ _______ _____ _____    ______ ____
ROOT
ATOM      1  O   UNL     1       1.868  14.683  22.267  0.00  0.00    +0.000 OA
ATOM      2  C   UNL     1       1.851  14.273  21.104  0.00  0.00    +0.000 C 
ATOM      3  C   UNL     1       2.684  14.971  20.108  0.00  0.00    +0.000 A 
ATOM      4  C   UNL     1       3.484  16.057  20.492  0.00  0.00    +0.000 A 
ATOM      5  C   UNL     1       4.147  16.803  19.522  0.00  0.00    +0.000 A 
ATOM      6  C   UNL     1       4.007  16.466  18.176  0.00  0.00    +0.000 A 
ATOM      7  C   UNL     1       3.225  15.369  17.807  0.00  0.00    +0.000 A 
ATOM      8  C   UNL     1       2.583  14.584  18.772  0.00  0.00    +0.000 A 
ATOM      9  N   UNL     1       1.721  13.564  18.381  0.00  0.00    +0.000 N 
ATOM     10  C   UNL     1       1.364  12.559  19.383  0.00  0.00    +0.000 C 
ATOM     11  N   UNL     1       1.073  13.215  20.649  0.00  0.00    +0.000 N 
ATOM     12  C   UNL     1       0.296  12.518  21.604  0.00  0.00    +0.000 A 
ATOM     13  C   UNL     1      -0.726  13.233  22.230  0.00  0.00    +0.000 A 
ATOM     14  C   UNL     1      -1.660  12.550  22.996  0.00  0.00    +0.000 A 
ATOM     15  C   UNL     1      -1.511  11.183  23.176  0.00  0.00    +0.000 A 
ATOM     16  C   UNL     1      -0.444  10.555  22.552  0.00  0.00    +0.000 A 
ATOM     17  N   UNL     1       0.437  11.182  21.737  0.00  0.00    +0.000 NA
ATOM     18  H   UNL     1       1.953  13.156  17.483  0.00  0.00    +0.000 HD
ENDROOT
BRANCH  10  19
ATOM     19  C   UNL     1       0.188  11.808  18.748  0.00  0.00    +0.000 A 
ATOM     20  C   UNL     1       0.281  10.440  18.470  0.00  0.00    +0.000 A 
ATOM     21  C   UNL     1      -0.796   9.810  17.859  0.00  0.00    +0.000 A 
ATOM     22  N   UNL     1      -1.941  10.432  17.512  0.00  0.00    +0.000 NA
ATOM     23  C   UNL     1      -2.009  11.752  17.770  0.00  0.00    +0.000 A 
ATOM     24  C   UNL     1      -0.980  12.475  18.348  0.00  0.00    +0.000 A 
ENDBRANCH  10  19
TORSDOF 1
ENDMDL
MODEL 6
REMARK VINA RESULT:      -6.3      2.889      5.061
REMARK  Name = 
REMARK  1 active torsions:
REMARK  status: ('A' for Active; 'I' for Inactive)
REMARK    1  A    between atoms: C_10  and  C_11
REMARK                            x       y       z     vdW  Elec       q    Type
REMARK                         _______ _______ _______ _____ _____    ______ ____
ROOT
ATOM      1  O   UNL     1       4.439   2.366  17.740  0.00  0.00    +0.000 OA
ATOM      2  C   UNL     1       4.239   3.562  17.515  0.00  0.00    +0.000 C 
ATOM      3  C   UNL     1       5.023   4.210  16.448  0.00  0.00    +0.000 A 
ATOM      4  C   UNL     1       5.953   3.469  15.705  0.00  0.00    +0.000 A 
ATOM      5  C   UNL     1       6.795   4.119  14.808  0.00  0.00    +0.000 A 
ATOM      6  C   UNL     1       6.708   5.502  14.658  0.00  0.00    +0.000 A 
ATOM      7  C   UNL     1       5.763   6.228  15.388  0.00  0.00    +0.000 A 
ATOM      8  C   UNL     1       4.882   5.585  16.265  0.00  0.00    +0.000 A 
ATOM      9  N   UNL     1       4.023   6.334  17.063  0.00  0.00    +0.000 N 
ATOM     10  C   UNL     1       2.895   5.636  17.683  0.00  0.00    +0.000 C 
ATOM     11  N   UNL     1       3.346   4.361  18.219  0.00  0.00    +0.000 N 
ATOM     12  C   UNL     1       2.564   3.740  19.222  0.00  0.00    +0.000 A 
ATOM     13  C   UNL     1       3.247   3.222  20.324  0.00  0.00    +0.000 A 
ATOM     14  C   UNL     1       2.525   2.815  21.437  0.00  0.00    +0.000 A 
ATOM     15  C   UNL     1       1.140   2.865  21.396  0.00  0.00    +0.000 A 
ATOM     16  C   UNL     1       0.539   3.355  20.246  0.00  0.00    +0.000 A 
ATOM     17  N   UNL     1       1.218   3.833  19.176  0.00  0.00    +0.000 NA
ATOM     18  H   UNL     1       3.758   7.222  16.655  0.00  0.00    +0.000 HD
ENDROOT
BRANCH  10  19
ATOM     19  C   UNL     1       2.369   6.635  18.719  0.00  0.00    +0.000 A 
ATOM     20  C   UNL     1       1.938   7.908  18.331  0.00  0.00    +0.000 A 
ATOM     21  C   UNL     1       1.505   8.793  19.310  0.00  0.00    +0.000 A 
ATOM     22  N   UNL     1       1.469   8.507  20.628  0.00  0.00    +0.000 NA
ATOM     23  C   UNL     1       1.904   7.284  20.989  0.00  0.00    +0.000 A 
ATOM     24  C   UNL     1       2.381   6.344  20.092  0.00  0.00    +0.000 A 
ENDBRANCH  10  19
TORSDOF 1
ENDMDL
MODEL 7
REMARK VINA RESULT:      -6.2      2.590      6.128
REMARK  Name = 
REMARK  1 active torsions:
REMARK  status: ('A' for Active; 'I' for Inactive)
REMARK    1  A    between atoms: C_10  and  C_11
REMARK                            x       y       z     vdW  Elec       q    Type
REMARK                         _______ _______ _______ _____ _____    ______ ____
ROOT
ATOM      1  O   UNL     1       3.850   8.107  17.406  0.00  0.00    +0.000 OA
ATOM      2  C   UNL     1       3.317   7.217  18.072  0.00  0.00    +0.000 C 
ATOM      3  C   UNL     1       2.285   7.604  19.051  0.00  0.00    +0.000 A 
ATOM      4  C   UNL     1       1.917   8.950  19.195  0.00  0.00    +0.000 A 
ATOM      5  C   UNL     1       1.056   9.324  20.223  0.00  0.00    +0.000 A 
ATOM      6  C   UNL     1       0.571   8.357  21.103  0.00  0.00    +0.000 A 
ATOM      7  C   UNL     1       0.927   7.017  20.937  0.00  0.00    +0.000 A 
ATOM      8  C   UNL     1       1.760   6.617  19.885  0.00  0.00    +0.000 A 
ATOM      9  N   UNL     1       2.192   5.298  19.799  0.00  0.00    +0.000 N 
ATOM     10  C   UNL     1       2.746   4.849  18.521  0.00  0.00    +0.000 C 
ATOM     11  N   UNL     1       3.641   5.868  17.993  0.00  0.00    +0.000 N 
ATOM     12  C   UNL     1       4.605   5.483  17.032  0.00  0.00    +0.000 A 
ATOM     13  C   UNL     1       5.903   5.967  17.211  0.00  0.00    +0.000 A 
ATOM     14  C   UNL     1       6.933   5.442  16.444  0.00  0.00    +0.000 A 
ATOM     15  C   UNL     1       6.634   4.502  15.469  0.00  0.00    +0.000 A 
ATOM     16  C   UNL     1       5.312   4.105  15.330  0.00  0.00    +0.000 A 
ATOM     17  N   UNL     1       4.299   4.541  16.115  0.00  0.00    +0.000 NA
ATOM     18  H   UNL     1       1.544   4.630  20.202  0.00  0.00    +0.000 HD
ENDROOT
BRANCH  10  19
ATOM     19  C   UNL     1       3.406   3.507  18.857  0.00  0.00    +0.000 A 
ATOM     20  C   UNL     1       3.135   2.366  18.094  0.00  0.00    +0.000 A 
ATOM     21  C   UNL     1       3.727   1.164  18.460  0.00  0.00    +0.000 A 
ATOM     22  N   UNL     1       4.558   1.017  19.513  0.00  0.00    +0.000 NA
ATOM     23  C   UNL     1       4.795   2.120  20.249  0.00  0.00    +0.000 A 
ATOM     24  C   UNL     1       4.231   3.355  19.983  0.00  0.00    +0.000 A 
ENDBRANCH  10  19
TORSDOF 1
ENDMDL
MODEL 8
REMARK VINA RESULT:      -6.0     10.741     13.854
REMARK  Name = 
REMARK  1 active torsions:
REMARK  status: ('A' for Active; 'I' for Inactive)
REMARK    1  A    between atoms: C_10  and  C_11
REMARK                            x       y       z     vdW  Elec       q    Type
REMARK                         _______ _______ _______ _____ _____    ______ ____
ROOT
ATOM      1  O   UNL     1      -5.193  11.597  18.213  0.00  0.00    +0.000 OA
ATOM      2  C   UNL     1      -4.229  11.880  18.928  0.00  0.00    +0.000 C 
ATOM      3  C   UNL     1      -2.905  11.349  18.554  0.00  0.00    +0.000 A 
ATOM      4  C   UNL     1      -2.760  10.561  17.403  0.00  0.00    +0.000 A 
ATOM      5  C   UNL     1      -1.542   9.940  17.141  0.00  0.00    +0.000 A 
ATOM      6  C   UNL     1      -0.478  10.105  18.028  0.00  0.00    +0.000 A 
ATOM      7  C   UNL     1      -0.629  10.910  19.161  0.00  0.00    +0.000 A 
ATOM      8  C   UNL     1      -1.834  11.573  19.419  0.00  0.00    +0.000 A 
ATOM      9  N   UNL     1      -2.001  12.281  20.604  0.00  0.00    +0.000 N 
ATOM     10  C   UNL     1      -3.108  13.236  20.672  0.00  0.00    +0.000 C 
ATOM     11  N   UNL     1      -4.301  12.642  20.089  0.00  0.00    +0.000 N 
ATOM     12  C   UNL     1      -5.561  13.183  20.437  0.00  0.00    +0.000 A 
ATOM     13  C   UNL     1      -6.572  12.276  20.757  0.00  0.00    +0.000 A 
ATOM     14  C   UNL     1      -7.748  12.744  21.326  0.00  0.00    +0.000 A 
ATOM     15  C   UNL     1      -7.915  14.111  21.495  0.00  0.00    +0.000 A 
ATOM     16  C   UNL     1      -6.876  14.947  21.113  0.00  0.00    +0.000 A 
ATOM     17  N   UNL     1      -5.689  14.513  20.628  0.00  0.00    +0.000 NA
ATOM     18  H   UNL     1      -1.138  12.654  20.981  0.00  0.00    +0.000 HD
ENDROOT
BRANCH  10  19
ATOM     19  C   UNL     1      -3.208  13.578  22.163  0.00  0.00    +0.000 A 
ATOM     20  C   UNL     1      -3.666  12.631  23.085  0.00  0.00    +0.000 A 
ATOM     21  C   UNL     1      -3.775  12.999  24.420  0.00  0.00    +0.000 A 
ATOM     22  N   UNL     1      -3.465  14.222  24.897  0.00  0.00    +0.000 NA
ATOM     23  C   UNL     1      -3.044  15.129  23.995  0.00  0.00    +0.000 A 
ATOM     24  C   UNL     1      -2.929  14.868  22.641  0.00  0.00    +0.000 A 
ENDBRANCH  10  19
TORSDOF 1
ENDMDL
MODEL 9
REMARK VINA RESULT:      -5.9     10.349     13.519
REMARK  Name = 
REMARK  1 active torsions:
REMARK  status: ('A' for Active; 'I' for Inactive)
REMARK    1  A    between atoms: C_10  and  C_11
REMARK                            x       y       z     vdW  Elec       q    Type
REMARK                         _______ _______ _______ _____ _____    ______ ____
ROOT
ATOM      1  O   UNL     1      -4.311  11.407  17.977  0.00  0.00    +0.000 OA
ATOM      2  C   UNL     1      -3.496  11.718  18.849  0.00  0.00    +0.000 C 
ATOM      3  C   UNL     1      -2.118  11.208  18.727  0.00  0.00    +0.000 A 
ATOM      4  C   UNL     1      -1.755  10.410  17.633  0.00  0.00    +0.000 A 
ATOM      5  C   UNL     1      -0.499   9.810  17.603  0.00  0.00    +0.000 A 
ATOM      6  C   UNL     1       0.385  10.005  18.664  0.00  0.00    +0.000 A 
ATOM      7  C   UNL     1       0.019  10.820  19.739  0.00  0.00    +0.000 A 
ATOM      8  C   UNL     1      -1.224  11.463  19.766  0.00  0.00    +0.000 A 
ATOM      9  N   UNL     1      -1.613  12.181  20.892  0.00  0.00    +0.000 N 
ATOM     10  C   UNL     1      -2.731  13.115  20.746  0.00  0.00    +0.000 C 
ATOM     11  N   UNL     1      -3.789  12.491  19.967  0.00  0.00    +0.000 N 
ATOM     12  C   UNL     1      -5.100  13.012  20.075  0.00  0.00    +0.000 A 
ATOM     13  C   UNL     1      -6.137  12.088  20.222  0.00  0.00    +0.000 A 
ATOM     14  C   UNL     1      -7.403  12.541  20.564  0.00  0.00    +0.000 A 
ATOM     15  C   UNL     1      -7.621  13.906  20.680  0.00  0.00    +0.000 A 
ATOM     16  C   UNL     1      -6.545  14.757  20.478  0.00  0.00    +0.000 A 
ATOM     17  N   UNL     1      -5.283  14.341  20.221  0.00  0.00    +0.000 NA
ATOM     18  H   UNL     1      -0.838  12.574  21.413  0.00  0.00    +0.000 HD
ENDROOT
BRANCH  10  19
ATOM     19  C   UNL     1      -3.102  13.472  22.190  0.00  0.00    +0.000 A 
ATOM     20  C   UNL     1      -2.936  14.777  22.669  0.00  0.00    +0.000 A 
ATOM     21  C   UNL     1      -3.251  15.045  23.995  0.00  0.00    +0.000 A 
ATOM     22  N   UNL     1      -3.714  14.123  24.865  0.00  0.00    +0.000 NA
ATOM     23  C   UNL     1      -3.851  12.869  24.395  0.00  0.00    +0.000 A 
ATOM     24  C   UNL     1      -3.537  12.496  23.100  0.00  0.00    +0.000 A 
ENDBRANCH  10  19
TORSDOF 1
ENDMDL
