MODEL 1
REMARK VINA RESULT:      -6.9      0.000      0.000
REMARK  Name = 
REMARK  1 active torsions:
REMARK  status: ('A' for Active; 'I' for Inactive)
REMARK    1  A    between atoms: N_7  and  C_8
REMARK                            x       y       z     vdW  Elec       q    Type
REMARK                         _______ _______ _______ _____ _____    ______ ____
ROOT
ATOM      1  N   UNL     1       6.422   3.743  14.230  0.00  0.00    +0.000 NA
ATOM      2  C   UNL     1       7.067   4.732  14.739  0.00  0.00    +0.000 C 
ATOM      3  N   UNL     1       7.918   5.434  13.943  0.00  0.00    +0.000 N 
ATOM      4  N   UNL     1       6.992   5.170  16.032  0.00  0.00    +0.000 N 
ATOM      5  C   UNL     1       6.201   4.728  17.060  0.00  0.00    +0.000 C 
ATOM      6  N   UNL     1       6.785   4.260  18.113  0.00  0.00    +0.000 NA
ATOM      7  N   UNL     1       4.867   4.994  16.963  0.00  0.00    +0.000 N 
ATOM      8  H   UNL     1       6.747   3.644  13.262  0.00  0.00    +0.000 HD
ATOM      9  H   UNL     1       8.865   5.445  14.306  0.00  0.00    +0.000 HD
ATOM     10  H   UNL     1       7.673   6.424  13.926  0.00  0.00    +0.000 HD
ATOM     11  H   UNL     1       7.924   5.254  16.415  0.00  0.00    +0.000 HD
ATOM     12  H   UNL     1       6.050   4.049  18.801  0.00  0.00    +0.000 HD
ATOM     13  H   UNL     1       4.647   5.959  16.748  0.00  0.00    +0.000 HD
ENDROOT
BRANCH   7  14
ATOM     14  C   UNL     1       3.780   4.256  17.462  0.00  0.00    +0.000 A 
ATOM     15  C   UNL     1       2.656   4.931  17.969  0.00  0.00    +0.000 A 
ATOM     16  C   UNL     1       1.532   4.226  18.417  0.00  0.00    +0.000 A 
ATOM     17  C   UNL     1       1.518   2.831  18.367  0.00  0.00    +0.000 A 
ATOM     18  C   UNL     1       2.625   2.151  17.880  0.00  0.00    +0.000 A 
ATOM     19  C   UNL     1       3.754   2.856  17.442  0.00  0.00    +0.000 A 
ENDBRANCH   7  14
TORSDOF 1
ENDMDL
MODEL 2
REMARK VINA RESULT:      -6.8      0.284      1.360
REMARK  Name = 
REMARK  1 active torsions:
REMARK  status: ('A' for Active; 'I' for Inactive)
REMARK    1  A    between atoms: N_7  and  C_8
REMARK                            x       y       z     vdW  Elec       q    Type
REMARK                         _______ _______ _______ _____ _____    ______ ____
ROOT
ATOM      1  N   UNL     1       6.305   3.693  14.437  0.00  0.00    +0.000 NA
ATOM      2  C   UNL     1       6.935   4.680  14.970  0.00  0.00    +0.000 C 
ATOM      3  N   UNL     1       7.819   5.376  14.206  0.00  0.00    +0.000 N 
ATOM      4  N   UNL     1       6.814   5.119  16.258  0.00  0.00    +0.000 N 
ATOM      5  C   UNL     1       5.982   4.682  17.256  0.00  0.00    +0.000 C 
ATOM      6  N   UNL     1       6.522   4.213  18.331  0.00  0.00    +0.000 NA
ATOM      7  N   UNL     1       4.654   4.955  17.107  0.00  0.00    +0.000 N 
ATOM      8  H   UNL     1       6.666   3.592  13.482  0.00  0.00    +0.000 HD
ATOM      9  H   UNL     1       8.752   5.383  14.605  0.00  0.00    +0.000 HD
ATOM     10  H   UNL     1       7.581   6.367  14.179  0.00  0.00    +0.000 HD
ATOM     11  H   UNL     1       7.730   5.199  16.676  0.00  0.00    +0.000 HD
ATOM     12  H   UNL     1       5.761   4.006  18.990  0.00  0.00    +0.000 HD
ATOM     13  H   UNL     1       4.447   5.921  16.883  0.00  0.00    +0.000 HD
ENDROOT
BRANCH   7  14
ATOM     14  C   UNL     1       3.545   4.223  17.566  0.00  0.00    +0.000 A 
ATOM     15  C   UNL     1       3.524   2.826  17.416  0.00  0.00    +0.000 A 
ATOM     16  C   UNL     1       2.463   2.062  17.916  0.00  0.00    +0.000 A 
ATOM     17  C   UNL     1       1.402   2.687  18.573  0.00  0.00    +0.000 A 
ATOM     18  C   UNL     1       1.403   4.067  18.717  0.00  0.00    +0.000 A 
ATOM     19  C   UNL     1       2.459   4.833  18.207  0.00  0.00    +0.000 A 
ENDBRANCH   7  14
TORSDOF 1
ENDMDL
MODEL 3
REMARK VINA RESULT:      -6.8      1.110      1.430
REMARK  Name = 
REMARK  1 active torsions:
REMARK  status: ('A' for Active; 'I' for Inactive)
REMARK    1  A    between atoms: N_7  and  C_8
REMARK                            x       y       z     vdW  Elec       q    Type
REMARK                         _______ _______ _______ _____ _____    ______ ____
ROOT
ATOM      1  N   UNL     1       6.463   3.759  14.128  0.00  0.00    +0.000 NA
ATOM      2  C   UNL     1       7.166   4.753  14.543  0.00  0.00    +0.000 C 
ATOM      3  N   UNL     1       7.780   5.544  13.623  0.00  0.00    +0.000 N 
ATOM      4  N   UNL     1       7.374   5.113  15.845  0.00  0.00    +0.000 N 
ATOM      5  C   UNL     1       6.861   4.570  16.994  0.00  0.00    +0.000 C 
ATOM      6  N   UNL     1       7.691   4.079  17.853  0.00  0.00    +0.000 NA
ATOM      7  N   UNL     1       5.531   4.766  17.221  0.00  0.00    +0.000 N 
ATOM      8  H   UNL     1       6.560   3.733  13.108  0.00  0.00    +0.000 HD
ATOM      9  H   UNL     1       8.784   5.589  13.760  0.00  0.00    +0.000 HD
ATOM     10  H   UNL     1       7.497   6.519  13.728  0.00  0.00    +0.000 HD
ATOM     11  H   UNL     1       8.364   5.228  16.010  0.00  0.00    +0.000 HD
ATOM     12  H   UNL     1       7.145   3.788  18.674  0.00  0.00    +0.000 HD
ATOM     13  H   UNL     1       5.227   5.727  17.127  0.00  0.00    +0.000 HD
ENDROOT
BRANCH   7  14
ATOM     14  C   UNL     1       4.620   3.942  17.904  0.00  0.00    +0.000 A 
ATOM     15  C   UNL     1       3.606   3.284  17.188  0.00  0.00    +0.000 A 
ATOM     16  C   UNL     1       2.721   2.407  17.829  0.00  0.00    +0.000 A 
ATOM     17  C   UNL     1       2.837   2.179  19.201  0.00  0.00    +0.000 A 
ATOM     18  C   UNL     1       3.827   2.831  19.923  0.00  0.00    +0.000 A 
ATOM     19  C   UNL     1       4.705   3.716  19.284  0.00  0.00    +0.000 A 
ENDBRANCH   7  14
TORSDOF 1
ENDMDL
MODEL 4
REMARK VINA RESULT:      -6.7      2.222      2.639
REMARK  Name = 
REMARK  1 active torsions:
REMARK  status: ('A' for Active; 'I' for Inactive)
REMARK    1  A    between atoms: N_7  and  C_8
REMARK                            x       y       z     vdW  Elec       q    Type
REMARK                         _______ _______ _______ _____ _____    ______ ____
ROOT
ATOM      1  N   UNL     1       5.358   6.751  16.296  0.00  0.00    +0.000 NA
ATOM      2  C   UNL     1       6.324   6.786  17.145  0.00  0.00    +0.000 C 
ATOM      3  N   UNL     1       7.329   7.681  16.950  0.00  0.00    +0.000 N 
ATOM      4  N   UNL     1       6.458   6.000  18.255  0.00  0.00    +0.000 N 
ATOM      5  C   UNL     1       5.607   5.053  18.763  0.00  0.00    +0.000 C 
ATOM      6  N   UNL     1       6.039   3.839  18.854  0.00  0.00    +0.000 NA
ATOM      7  N   UNL     1       4.442   5.507  19.308  0.00  0.00    +0.000 N 
ATOM      8  H   UNL     1       5.589   7.423  15.557  0.00  0.00    +0.000 HD
ATOM      9  H   UNL     1       8.237   7.234  16.887  0.00  0.00    +0.000 HD
ATOM     10  H   UNL     1       7.438   8.294  17.759  0.00  0.00    +0.000 HD
ATOM     11  H   UNL     1       7.377   5.580  18.263  0.00  0.00    +0.000 HD
ATOM     12  H   UNL     1       5.306   3.288  19.319  0.00  0.00    +0.000 HD
ATOM     13  H   UNL     1       4.557   6.262  19.973  0.00  0.00    +0.000 HD
ENDROOT
BRANCH   7  14
ATOM     14  C   UNL     1       3.190   4.872  19.372  0.00  0.00    +0.000 A 
ATOM     15  C   UNL     1       2.599   4.380  18.196  0.00  0.00    +0.000 A 
ATOM     16  C   UNL     1       1.382   3.688  18.234  0.00  0.00    +0.000 A 
ATOM     17  C   UNL     1       0.735   3.480  19.453  0.00  0.00    +0.000 A 
ATOM     18  C   UNL     1       1.301   3.971  20.621  0.00  0.00    +0.000 A 
ATOM     19  C   UNL     1       2.513   4.673  20.582  0.00  0.00    +0.000 A 
ENDBRANCH   7  14
TORSDOF 1
ENDMDL
MODEL 5
REMARK VINA RESULT:      -6.7      1.723      2.769
REMARK  Name = 
REMARK  1 active torsions:
REMARK  status: ('A' for Active; 'I' for Inactive)
REMARK    1  A    between atoms: N_7  and  C_8
REMARK                            x       y       z     vdW  Elec       q    Type
REMARK                         _______ _______ _______ _____ _____    ______ ____
ROOT
ATOM      1  N   UNL     1       6.957   4.227  18.172  0.00  0.00    +0.000 NA
ATOM      2  C   UNL     1       6.593   4.695  17.031  0.00  0.00    +0.000 C 
ATOM      3  N   UNL     1       7.507   4.745  16.026  0.00  0.00    +0.000 N 
ATOM      4  N   UNL     1       5.351   5.163  16.706  0.00  0.00    +0.000 N 
ATOM      5  C   UNL     1       4.205   5.199  17.458  0.00  0.00    +0.000 C 
ATOM      6  N   UNL     1       3.680   6.353  17.703  0.00  0.00    +0.000 NA
ATOM      7  N   UNL     1       3.611   4.000  17.723  0.00  0.00    +0.000 N 
ATOM      8  H   UNL     1       7.959   4.019  18.101  0.00  0.00    +0.000 HD
ATOM      9  H   UNL     1       7.632   5.684  15.664  0.00  0.00    +0.000 HD
ATOM     10  H   UNL     1       7.182   4.232  15.207  0.00  0.00    +0.000 HD
ATOM     11  H   UNL     1       5.434   6.078  16.283  0.00  0.00    +0.000 HD
ATOM     12  H   UNL     1       2.800   6.186  18.208  0.00  0.00    +0.000 HD
ATOM     13  H   UNL     1       3.473   3.413  16.910  0.00  0.00    +0.000 HD
ENDROOT
BRANCH   7  14
ATOM     14  C   UNL     1       2.849   3.620  18.841  0.00  0.00    +0.000 A 
ATOM     15  C   UNL     1       3.494   3.098  19.976  0.00  0.00    +0.000 A 
ATOM     16  C   UNL     1       2.771   2.767  21.129  0.00  0.00    +0.000 A 
ATOM     17  C   UNL     1       1.388   2.951  21.162  0.00  0.00    +0.000 A 
ATOM     18  C   UNL     1       0.737   3.455  20.045  0.00  0.00    +0.000 A 
ATOM     19  C   UNL     1       1.459   3.776  18.887  0.00  0.00    +0.000 A 
ENDBRANCH   7  14
TORSDOF 1
ENDMDL
MODEL 6
REMARK VINA RESULT:      -6.7      3.224      5.671
REMARK  Name = 
REMARK  1 active torsions:
REMARK  status: ('A' for Active; 'I' for Inactive)
REMARK    1  A    between atoms: N_7  and  C_8
REMARK                            x       y       z     vdW  Elec       q    Type
REMARK                         _______ _______ _______ _____ _____    ______ ____
ROOT
ATOM      1  N   UNL     1       2.338   4.724  21.265  0.00  0.00    +0.000 NA
ATOM      2  C   UNL     1       2.294   3.440  21.205  0.00  0.00    +0.000 C 
ATOM      3  N   UNL     1       1.414   2.782  22.006  0.00  0.00    +0.000 N 
ATOM      4  N   UNL     1       3.057   2.639  20.403  0.00  0.00    +0.000 N 
ATOM      5  C   UNL     1       3.984   2.981  19.453  0.00  0.00    +0.000 C 
ATOM      6  N   UNL     1       5.199   2.580  19.622  0.00  0.00    +0.000 NA
ATOM      7  N   UNL     1       3.504   3.554  18.312  0.00  0.00    +0.000 N 
ATOM      8  H   UNL     1       1.685   5.009  22.003  0.00  0.00    +0.000 HD
ATOM      9  H   UNL     1       1.872   2.109  22.611  0.00  0.00    +0.000 HD
ATOM     10  H   UNL     1       0.785   2.196  21.457  0.00  0.00    +0.000 HD
ATOM     11  H   UNL     1       3.486   1.913  20.960  0.00  0.00    +0.000 HD
ATOM     12  H   UNL     1       5.732   2.859  18.789  0.00  0.00    +0.000 HD
ATOM     13  H   UNL     1       2.737   3.054  17.882  0.00  0.00    +0.000 HD
ENDROOT
BRANCH   7  14
ATOM     14  C   UNL     1       4.125   4.489  17.465  0.00  0.00    +0.000 A 
ATOM     15  C   UNL     1       4.813   4.043  16.323  0.00  0.00    +0.000 A 
ATOM     16  C   UNL     1       5.389   4.951  15.427  0.00  0.00    +0.000 A 
ATOM     17  C   UNL     1       5.289   6.323  15.662  0.00  0.00    +0.000 A 
ATOM     18  C   UNL     1       4.624   6.778  16.793  0.00  0.00    +0.000 A 
ATOM     19  C   UNL     1       4.056   5.868  17.695  0.00  0.00    +0.000 A 
ENDBRANCH   7  14
TORSDOF 1
ENDMDL
MODEL 7
REMARK VINA RESULT:      -6.7      3.311      5.582
REMARK  Name = 
REMARK  1 active torsions:
REMARK  status: ('A' for Active; 'I' for Inactive)
REMARK    1  A    between atoms: N_7  and  C_8
REMARK                            x       y       z     vdW  Elec       q    Type
REMARK                         _______ _______ _______ _____ _____    ______ ____
ROOT
ATOM      1  N   UNL     1       2.268   4.522  21.477  0.00  0.00    +0.000 NA
ATOM      2  C   UNL     1       2.274   3.240  21.367  0.00  0.00    +0.000 C 
ATOM      3  N   UNL     1       1.447   2.515  22.167  0.00  0.00    +0.000 N 
ATOM      4  N   UNL     1       3.043   2.503  20.512  0.00  0.00    +0.000 N 
ATOM      5  C   UNL     1       3.925   2.919  19.549  0.00  0.00    +0.000 C 
ATOM      6  N   UNL     1       5.160   2.563  19.666  0.00  0.00    +0.000 NA
ATOM      7  N   UNL     1       3.388   3.516  18.446  0.00  0.00    +0.000 N 
ATOM      8  H   UNL     1       1.628   4.751  22.244  0.00  0.00    +0.000 HD
ATOM      9  H   UNL     1       1.950   1.839  22.731  0.00  0.00    +0.000 HD
ATOM     10  H   UNL     1       0.825   1.925  21.615  0.00  0.00    +0.000 HD
ATOM     11  H   UNL     1       3.518   1.774  21.027  0.00  0.00    +0.000 HD
ATOM     12  H   UNL     1       5.655   2.896  18.829  0.00  0.00    +0.000 HD
ATOM     13  H   UNL     1       2.628   3.001  18.019  0.00  0.00    +0.000 HD
ENDROOT
BRANCH   7  14
ATOM     14  C   UNL     1       3.944   4.507  17.619  0.00  0.00    +0.000 A 
ATOM     15  C   UNL     1       3.741   5.863  17.927  0.00  0.00    +0.000 A 
ATOM     16  C   UNL     1       4.331   6.875  17.159  0.00  0.00    +0.000 A 
ATOM     17  C   UNL     1       5.133   6.543  16.067  0.00  0.00    +0.000 A 
ATOM     18  C   UNL     1       5.333   5.207  15.743  0.00  0.00    +0.000 A 
ATOM     19  C   UNL     1       4.733   4.196  16.505  0.00  0.00    +0.000 A 
ENDBRANCH   7  14
TORSDOF 1
ENDMDL
MODEL 8
REMARK VINA RESULT:      -6.7      1.741      2.594
REMARK  Name = 
REMARK  1 active torsions:
REMARK  status: ('A' for Active; 'I' for Inactive)
REMARK    1  A    between atoms: N_7  and  C_8
REMARK                            x       y       z     vdW  Elec       q    Type
REMARK                         _______ _______ _______ _____ _____    ______ ____
ROOT
ATOM      1  N   UNL     1       7.017   4.276  18.191  0.00  0.00    +0.000 NA
ATOM      2  C   UNL     1       6.636   4.696  17.037  0.00  0.00    +0.000 C 
ATOM      3  N   UNL     1       7.537   4.707  16.018  0.00  0.00    +0.000 N 
ATOM      4  N   UNL     1       5.389   5.150  16.709  0.00  0.00    +0.000 N 
ATOM      5  C   UNL     1       4.254   5.215  17.475  0.00  0.00    +0.000 C 
ATOM      6  N   UNL     1       3.730   6.377  17.680  0.00  0.00    +0.000 NA
ATOM      7  N   UNL     1       3.665   4.027  17.796  0.00  0.00    +0.000 N 
ATOM      8  H   UNL     1       8.018   4.067  18.115  0.00  0.00    +0.000 HD
ATOM      9  H   UNL     1       7.655   5.631  15.617  0.00  0.00    +0.000 HD
ATOM     10  H   UNL     1       7.202   4.160  15.225  0.00  0.00    +0.000 HD
ATOM     11  H   UNL     1       5.465   6.046  16.249  0.00  0.00    +0.000 HD
ATOM     12  H   UNL     1       2.857   6.230  18.203  0.00  0.00    +0.000 HD
ATOM     13  H   UNL     1       3.517   3.406  17.010  0.00  0.00    +0.000 HD
ENDROOT
BRANCH   7  14
ATOM     14  C   UNL     1       2.920   3.692  18.940  0.00  0.00    +0.000 A 
ATOM     15  C   UNL     1       1.529   3.897  18.948  0.00  0.00    +0.000 A 
ATOM     16  C   UNL     1       0.750   3.517  20.047  0.00  0.00    +0.000 A 
ATOM     17  C   UNL     1       1.352   2.927  21.159  0.00  0.00    +0.000 A 
ATOM     18  C   UNL     1       2.726   2.730  21.170  0.00  0.00    +0.000 A 
ATOM     19  C   UNL     1       3.507   3.120  20.075  0.00  0.00    +0.000 A 
ENDBRANCH   7  14
TORSDOF 1
ENDMDL
MODEL 9
REMARK VINA RESULT:      -6.7      1.522      1.745
REMARK  Name = 
REMARK  1 active torsions:
REMARK  status: ('A' for Active; 'I' for Inactive)
REMARK    1  A    between atoms: N_7  and  C_8
REMARK                            x       y       z     vdW  Elec       q    Type
REMARK                         _______ _______ _______ _____ _____    ______ ____
ROOT
ATOM      1  N   UNL     1       6.026   3.617  15.936  0.00  0.00    +0.000 NA
ATOM      2  C   UNL     1       6.637   4.713  16.221  0.00  0.00    +0.000 C 
ATOM      3  N   UNL     1       7.521   5.218  15.320  0.00  0.00    +0.000 N 
ATOM      4  N   UNL     1       6.494   5.447  17.364  0.00  0.00    +0.000 N 
ATOM      5  C   UNL     1       5.656   5.250  18.432  0.00  0.00    +0.000 C 
ATOM      6  N   UNL     1       6.190   5.062  19.592  0.00  0.00    +0.000 NA
ATOM      7  N   UNL     1       4.326   5.459  18.210  0.00  0.00    +0.000 N 
ATOM      8  H   UNL     1       6.400   3.295  15.037  0.00  0.00    +0.000 HD
ATOM      9  H   UNL     1       8.448   5.336  15.713  0.00  0.00    +0.000 HD
ATOM     10  H   UNL     1       7.270   6.170  15.053  0.00  0.00    +0.000 HD
ATOM     11  H   UNL     1       7.404   5.639  17.759  0.00  0.00    +0.000 HD
ATOM     12  H   UNL     1       5.423   5.008  20.275  0.00  0.00    +0.000 HD
ATOM     13  H   UNL     1       4.110   6.339  17.758  0.00  0.00    +0.000 HD
ENDROOT
BRANCH   7  14
ATOM     14  C   UNL     1       3.222   4.842  18.821  0.00  0.00    +0.000 A 
ATOM     15  C   UNL     1       2.703   5.370  20.016  0.00  0.00    +0.000 A 
ATOM     16  C   UNL     1       1.567   4.816  20.618  0.00  0.00    +0.000 A 
ATOM     17  C   UNL     1       0.932   3.719  20.032  0.00  0.00    +0.000 A 
ATOM     18  C   UNL     1       1.440   3.179  18.859  0.00  0.00    +0.000 A 
ATOM     19  C   UNL     1       2.583   3.727  18.263  0.00  0.00    +0.000 A 
ENDBRANCH   7  14
TORSDOF 1
ENDMDL
