MODEL 1
REMARK VINA RESULT:      -7.6      0.000      0.000
REMARK  Name = 
REMARK  6 active torsions:
REMARK  status: ('A' for Active; 'I' for Inactive)
REMARK    1  A    between atoms: C_2  and  C_10
REMARK    2  A    between atoms: N_3  and  C_4
REMARK    3  A    between atoms: C_4  and  C_5
REMARK    4  A    between atoms: C_15  and  N_16
REMARK    5  A    between atoms: N_16  and  C_17
REMARK    6  A    between atoms: C_17  and  C_18
REMARK                            x       y       z     vdW  Elec       q    Type
REMARK                         _______ _______ _______ _____ _____    ______ ____
ROOT
ATOM      1  C   UNL     1       5.550   4.653  16.970  0.00  0.00    +0.000 A 
ATOM      2  C   UNL     1       6.060   3.767  16.003  0.00  0.00    +0.000 A 
ATOM      3  C   UNL     1       6.226   4.176  14.686  0.00  0.00    +0.000 A 
ATOM      4  C   UNL     1       5.863   5.465  14.367  0.00  0.00    +0.000 A 
ATOM      5  N   UNL     1       5.381   6.348  15.268  0.00  0.00    +0.000 NA
ATOM      6  C   UNL     1       5.251   5.963  16.565  0.00  0.00    +0.000 A 
ENDROOT
BRANCH   1   8
ATOM      7  O   UNL     1       5.949   4.717  19.293  0.00  0.00    +0.000 OA
ATOM      8  C   UNL     1       5.423   4.114  18.356  0.00  0.00    +0.000 C 
ATOM      9  N   UNL     1       4.726   2.947  18.546  0.00  0.00    +0.000 N 
ATOM     10  H   UNL     1       4.140   2.611  17.779  0.00  0.00    +0.000 HD
BRANCH   9  11
ATOM     11  C   UNL     1       4.466   2.417  19.875  0.00  0.00    +0.000 C 
BRANCH  11  12
ATOM     12  C   UNL     1       2.974   2.233  20.155  0.00  0.00    +0.000 C 
ATOM     13  C   UNL     1       2.057   3.051  19.254  0.00  0.00    +0.000 C 
ATOM     14  C   UNL     1       0.869   3.296  20.152  0.00  0.00    +0.000 C 
ATOM     15  C   UNL     1       1.524   3.461  21.505  0.00  0.00    +0.000 C 
ATOM     16  O   UNL     1       2.674   2.608  21.514  0.00  0.00    +0.000 OA
ENDBRANCH  11  12
ENDBRANCH   9  11
ENDBRANCH   1   8
BRANCH   6  17
ATOM     17  N   UNL     1       4.770   6.935  17.477  0.00  0.00    +0.000 N 
ATOM     18  H   UNL     1       4.711   6.482  18.388  0.00  0.00    +0.000 HD
BRANCH  17  19
ATOM     19  C   UNL     1       3.457   7.447  17.077  0.00  0.00    +0.000 C 
BRANCH  19  20
ATOM     20  C   UNL     1       2.563   7.672  18.278  0.00  0.00    +0.000 A 
ATOM     21  C   UNL     1       2.562   6.751  19.340  0.00  0.00    +0.000 A 
ATOM     22  C   UNL     1       1.911   7.050  20.538  0.00  0.00    +0.000 A 
ATOM     23  C   UNL     1       1.255   8.266  20.673  0.00  0.00    +0.000 A 
ATOM     24  F   UNL     1       0.673   8.577  21.839  0.00  0.00    +0.000 F 
ATOM     25  C   UNL     1       1.212   9.177  19.625  0.00  0.00    +0.000 A 
ATOM     26  C   UNL     1       1.865   8.881  18.425  0.00  0.00    +0.000 A 
ENDBRANCH  19  20
ENDBRANCH  17  19
ENDBRANCH   6  17
TORSDOF 6
ENDMDL
MODEL 2
REMARK VINA RESULT:      -7.6      0.752      1.263
REMARK  Name = 
REMARK  6 active torsions:
REMARK  status: ('A' for Active; 'I' for Inactive)
REMARK    1  A    between atoms: C_2  and  C_10
REMARK    2  A    between atoms: N_3  and  C_4
REMARK    3  A    between atoms: C_4  and  C_5
REMARK    4  A    between atoms: C_15  and  N_16
REMARK    5  A    between atoms: N_16  and  C_17
REMARK    6  A    between atoms: C_17  and  C_18
REMARK                            x       y       z     vdW  Elec       q    Type
REMARK                         _______ _______ _______ _____ _____    ______ ____
ROOT
ATOM      1  C   UNL     1       5.215   4.712  17.169  0.00  0.00    +0.000 A 
ATOM      2  C   UNL     1       5.750   3.728  16.318  0.00  0.00    +0.000 A 
ATOM      3  C   UNL     1       6.066   4.028  14.999  0.00  0.00    +0.000 A 
ATOM      4  C   UNL     1       5.824   5.311  14.561  0.00  0.00    +0.000 A 
ATOM      5  N   UNL     1       5.323   6.286  15.349  0.00  0.00    +0.000 NA
ATOM      6  C   UNL     1       5.047   6.005  16.651  0.00  0.00    +0.000 A 
ENDROOT
BRANCH   1   8
ATOM      7  O   UNL     1       4.917   5.124  19.471  0.00  0.00    +0.000 OA
ATOM      8  C   UNL     1       4.923   4.285  18.569  0.00  0.00    +0.000 C 
ATOM      9  N   UNL     1       4.678   2.957  18.813  0.00  0.00    +0.000 N 
ATOM     10  H   UNL     1       4.488   2.352  18.012  0.00  0.00    +0.000 HD
BRANCH   9  11
ATOM     11  C   UNL     1       4.280   2.480  20.128  0.00  0.00    +0.000 C 
BRANCH  11  12
ATOM     12  C   UNL     1       2.762   2.360  20.276  0.00  0.00    +0.000 C 
ATOM     13  C   UNL     1       2.021   2.073  18.976  0.00  0.00    +0.000 C 
ATOM     14  C   UNL     1       0.689   2.737  19.220  0.00  0.00    +0.000 C 
ATOM     15  C   UNL     1       1.084   3.957  20.020  0.00  0.00    +0.000 C 
ATOM     16  O   UNL     1       2.217   3.582  20.812  0.00  0.00    +0.000 OA
ENDBRANCH  11  12
ENDBRANCH   9  11
ENDBRANCH   1   8
BRANCH   6  17
ATOM     17  N   UNL     1       4.552   7.070  17.444  0.00  0.00    +0.000 N 
ATOM     18  H   UNL     1       4.664   6.789  18.418  0.00  0.00    +0.000 HD
BRANCH  17  19
ATOM     19  C   UNL     1       3.143   7.348  17.155  0.00  0.00    +0.000 C 
BRANCH  19  20
ATOM     20  C   UNL     1       2.479   8.080  18.301  0.00  0.00    +0.000 A 
ATOM     21  C   UNL     1       1.874   9.331  18.085  0.00  0.00    +0.000 A 
ATOM     22  C   UNL     1       1.079   9.914  19.073  0.00  0.00    +0.000 A 
ATOM     23  C   UNL     1       0.892   9.252  20.279  0.00  0.00    +0.000 A 
ATOM     24  F   UNL     1       0.088   9.785  21.208  0.00  0.00    +0.000 F 
ATOM     25  C   UNL     1       1.508   8.031  20.528  0.00  0.00    +0.000 A 
ATOM     26  C   UNL     1       2.303   7.445  19.541  0.00  0.00    +0.000 A 
ENDBRANCH  19  20
ENDBRANCH  17  19
ENDBRANCH   6  17
TORSDOF 6
ENDMDL
MODEL 3
REMARK VINA RESULT:      -7.6      1.750      2.110
REMARK  Name = 
REMARK  6 active torsions:
REMARK  status: ('A' for Active; 'I' for Inactive)
REMARK    1  A    between atoms: C_2  and  C_10
REMARK    2  A    between atoms: N_3  and  C_4
REMARK    3  A    between atoms: C_4  and  C_5
REMARK    4  A    between atoms: C_15  and  N_16
REMARK    5  A    between atoms: N_16  and  C_17
REMARK    6  A    between atoms: C_17  and  C_18
REMARK                            x       y       z     vdW  Elec       q    Type
REMARK                         _______ _______ _______ _____ _____    ______ ____
ROOT
ATOM      1  C   UNL     1       5.500   4.852  18.180  0.00  0.00    +0.000 A 
ATOM      2  C   UNL     1       6.900   4.927  18.052  0.00  0.00    +0.000 A 
ATOM      3  C   UNL     1       7.507   6.082  17.575  0.00  0.00    +0.000 A 
ATOM      4  C   UNL     1       6.690   7.133  17.225  0.00  0.00    +0.000 A 
ATOM      5  N   UNL     1       5.345   7.104  17.343  0.00  0.00    +0.000 NA
ATOM      6  C   UNL     1       4.750   5.989  17.844  0.00  0.00    +0.000 A 
ENDROOT
BRANCH   1   8
ATOM      7  O   UNL     1       5.282   3.190  19.838  0.00  0.00    +0.000 OA
ATOM      8  C   UNL     1       4.954   3.569  18.713  0.00  0.00    +0.000 C 
ATOM      9  N   UNL     1       4.104   2.838  17.921  0.00  0.00    +0.000 N 
ATOM     10  H   UNL     1       3.705   3.296  17.099  0.00  0.00    +0.000 HD
BRANCH   9  11
ATOM     11  C   UNL     1       3.446   1.636  18.409  0.00  0.00    +0.000 C 
BRANCH  11  12
ATOM     12  C   UNL     1       2.116   1.932  19.104  0.00  0.00    +0.000 C 
ATOM     13  C   UNL     1       1.388   3.162  18.576  0.00  0.00    +0.000 C 
ATOM     14  C   UNL     1       0.647   3.639  19.800  0.00  0.00    +0.000 C 
ATOM     15  C   UNL     1       1.628   3.327  20.908  0.00  0.00    +0.000 C 
ATOM     16  O   UNL     1       2.329   2.141  20.515  0.00  0.00    +0.000 OA
ENDBRANCH  11  12
ENDBRANCH   9  11
ENDBRANCH   1   8
BRANCH   6  17
ATOM     17  N   UNL     1       3.340   6.020  17.977  0.00  0.00    +0.000 N 
ATOM     18  H   UNL     1       2.993   6.686  17.287  0.00  0.00    +0.000 HD
BRANCH  17  19
ATOM     19  C   UNL     1       2.934   6.424  19.325  0.00  0.00    +0.000 C 
BRANCH  19  20
ATOM     20  C   UNL     1       2.191   7.743  19.305  0.00  0.00    +0.000 A 
ATOM     21  C   UNL     1       1.986   8.420  18.089  0.00  0.00    +0.000 A 
ATOM     22  C   UNL     1       1.126   9.518  18.026  0.00  0.00    +0.000 A 
ATOM     23  C   UNL     1       0.477   9.945  19.177  0.00  0.00    +0.000 A 
ATOM     24  F   UNL     1      -0.387  10.966  19.107  0.00  0.00    +0.000 F 
ATOM     25  C   UNL     1       0.692   9.313  20.396  0.00  0.00    +0.000 A 
ATOM     26  C   UNL     1       1.550   8.213  20.462  0.00  0.00    +0.000 A 
ENDBRANCH  19  20
ENDBRANCH  17  19
ENDBRANCH   6  17
TORSDOF 6
ENDMDL
MODEL 4
REMARK VINA RESULT:      -7.5      2.351      4.746
REMARK  Name = 
REMARK  6 active torsions:
REMARK  status: ('A' for Active; 'I' for Inactive)
REMARK    1  A    between atoms: C_2  and  C_10
REMARK    2  A    between atoms: N_3  and  C_4
REMARK    3  A    between atoms: C_4  and  C_5
REMARK    4  A    between atoms: C_15  and  N_16
REMARK    5  A    between atoms: N_16  and  C_17
REMARK    6  A    between atoms: C_17  and  C_18
REMARK                            x       y       z     vdW  Elec       q    Type
REMARK                         _______ _______ _______ _____ _____    ______ ____
ROOT
ATOM      1  C   UNL     1       3.130   4.113  17.963  0.00  0.00    +0.000 A 
ATOM      2  C   UNL     1       2.570   2.865  17.629  0.00  0.00    +0.000 A 
ATOM      3  C   UNL     1       1.535   2.330  18.384  0.00  0.00    +0.000 A 
ATOM      4  C   UNL     1       1.093   3.056  19.467  0.00  0.00    +0.000 A 
ATOM      5  N   UNL     1       1.596   4.260  19.812  0.00  0.00    +0.000 NA
ATOM      6  C   UNL     1       2.585   4.804  19.055  0.00  0.00    +0.000 A 
ENDROOT
BRANCH   1   8
ATOM      7  O   UNL     1       4.218   5.764  16.679  0.00  0.00    +0.000 OA
ATOM      8  C   UNL     1       4.231   4.599  17.078  0.00  0.00    +0.000 C 
ATOM      9  N   UNL     1       5.226   3.722  16.726  0.00  0.00    +0.000 N 
ATOM     10  H   UNL     1       5.300   2.848  17.249  0.00  0.00    +0.000 HD
BRANCH   9  11
ATOM     11  C   UNL     1       6.386   4.149  15.959  0.00  0.00    +0.000 C 
BRANCH  11  12
ATOM     12  C   UNL     1       7.428   4.868  16.817  0.00  0.00    +0.000 C 
ATOM     13  C   UNL     1       7.164   4.804  18.317  0.00  0.00    +0.000 C 
ATOM     14  C   UNL     1       7.773   6.097  18.799  0.00  0.00    +0.000 C 
ATOM     15  C   UNL     1       7.457   7.041  17.661  0.00  0.00    +0.000 C 
ATOM     16  O   UNL     1       7.490   6.263  16.459  0.00  0.00    +0.000 OA
ENDBRANCH  11  12
ENDBRANCH   9  11
ENDBRANCH   1   8
BRANCH   6  17
ATOM     17  N   UNL     1       3.058   6.083  19.441  0.00  0.00    +0.000 N 
ATOM     18  H   UNL     1       3.964   5.941  19.885  0.00  0.00    +0.000 HD
BRANCH  17  19
ATOM     19  C   UNL     1       2.135   6.743  20.367  0.00  0.00    +0.000 C 
BRANCH  19  20
ATOM     20  C   UNL     1       1.741   8.116  19.867  0.00  0.00    +0.000 A 
ATOM     21  C   UNL     1       1.981   8.478  18.530  0.00  0.00    +0.000 A 
ATOM     22  C   UNL     1       1.436   9.649  18.003  0.00  0.00    +0.000 A 
ATOM     23  C   UNL     1       0.655  10.464  18.812  0.00  0.00    +0.000 A 
ATOM     24  F   UNL     1       0.088  11.562  18.294  0.00  0.00    +0.000 F 
ATOM     25  C   UNL     1       0.433  10.145  20.146  0.00  0.00    +0.000 A 
ATOM     26  C   UNL     1       0.976   8.973  20.676  0.00  0.00    +0.000 A 
ENDBRANCH  19  20
ENDBRANCH  17  19
ENDBRANCH   6  17
TORSDOF 6
ENDMDL
MODEL 5
REMARK VINA RESULT:      -7.5      2.714      6.082
REMARK  Name = 
REMARK  6 active torsions:
REMARK  status: ('A' for Active; 'I' for Inactive)
REMARK    1  A    between atoms: C_2  and  C_10
REMARK    2  A    between atoms: N_3  and  C_4
REMARK    3  A    between atoms: C_4  and  C_5
REMARK    4  A    between atoms: C_15  and  N_16
REMARK    5  A    between atoms: N_16  and  C_17
REMARK    6  A    between atoms: C_17  and  C_18
REMARK                            x       y       z     vdW  Elec       q    Type
REMARK                         _______ _______ _______ _____ _____    ______ ____
ROOT
ATOM      1  C   UNL     1       2.555   7.544  18.378  0.00  0.00    +0.000 A 
ATOM      2  C   UNL     1       2.085   8.701  17.730  0.00  0.00    +0.000 A 
ATOM      3  C   UNL     1       1.308   9.628  18.412  0.00  0.00    +0.000 A 
ATOM      4  C   UNL     1       1.009   9.364  19.730  0.00  0.00    +0.000 A 
ATOM      5  N   UNL     1       1.451   8.271  20.390  0.00  0.00    +0.000 NA
ATOM      6  C   UNL     1       2.242   7.380  19.735  0.00  0.00    +0.000 A 
ENDROOT
BRANCH   1   8
ATOM      7  O   UNL     1       3.084   5.430  17.477  0.00  0.00    +0.000 OA
ATOM      8  C   UNL     1       3.391   6.620  17.554  0.00  0.00    +0.000 C 
ATOM      9  N   UNL     1       4.492   7.129  16.911  0.00  0.00    +0.000 N 
ATOM     10  H   UNL     1       4.575   8.144  16.837  0.00  0.00    +0.000 HD
BRANCH   9  11
ATOM     11  C   UNL     1       5.292   6.319  16.006  0.00  0.00    +0.000 C 
BRANCH  11  12
ATOM     12  C   UNL     1       6.669   5.980  16.578  0.00  0.00    +0.000 C 
ATOM     13  C   UNL     1       6.780   4.579  17.167  0.00  0.00    +0.000 C 
ATOM     14  C   UNL     1       7.815   4.773  18.248  0.00  0.00    +0.000 C 
ATOM     15  C   UNL     1       7.491   6.161  18.752  0.00  0.00    +0.000 C 
ATOM     16  O   UNL     1       7.013   6.907  17.628  0.00  0.00    +0.000 OA
ENDBRANCH  11  12
ENDBRANCH   9  11
ENDBRANCH   1   8
BRANCH   6  17
ATOM     17  N   UNL     1       2.704   6.266  20.480  0.00  0.00    +0.000 N 
ATOM     18  H   UNL     1       3.535   5.917  20.004  0.00  0.00    +0.000 HD
BRANCH  17  19
ATOM     19  C   UNL     1       1.687   5.216  20.565  0.00  0.00    +0.000 C 
BRANCH  19  20
ATOM     20  C   UNL     1       2.217   3.893  20.056  0.00  0.00    +0.000 A 
ATOM     21  C   UNL     1       1.407   3.068  19.255  0.00  0.00    +0.000 A 
ATOM     22  C   UNL     1       1.948   1.957  18.607  0.00  0.00    +0.000 A 
ATOM     23  C   UNL     1       3.297   1.664  18.763  0.00  0.00    +0.000 A 
ATOM     24  F   UNL     1       3.829   0.629  18.100  0.00  0.00    +0.000 F 
ATOM     25  C   UNL     1       4.109   2.445  19.577  0.00  0.00    +0.000 A 
ATOM     26  C   UNL     1       3.570   3.558  20.226  0.00  0.00    +0.000 A 
ENDBRANCH  19  20
ENDBRANCH  17  19
ENDBRANCH   6  17
TORSDOF 6
ENDMDL
MODEL 6
REMARK VINA RESULT:      -7.5      1.608      1.715
REMARK  Name = 
REMARK  6 active torsions:
REMARK  status: ('A' for Active; 'I' for Inactive)
REMARK    1  A    between atoms: C_2  and  C_10
REMARK    2  A    between atoms: N_3  and  C_4
REMARK    3  A    between atoms: C_4  and  C_5
REMARK    4  A    between atoms: C_15  and  N_16
REMARK    5  A    between atoms: N_16  and  C_17
REMARK    6  A    between atoms: C_17  and  C_18
REMARK                            x       y       z     vdW  Elec       q    Type
REMARK                         _______ _______ _______ _____ _____    ______ ____
ROOT
ATOM      1  C   UNL     1       5.520   4.833  18.192  0.00  0.00    +0.000 A 
ATOM      2  C   UNL     1       6.925   4.769  18.221  0.00  0.00    +0.000 A 
ATOM      3  C   UNL     1       7.692   5.862  17.835  0.00  0.00    +0.000 A 
ATOM      4  C   UNL     1       7.027   6.991  17.416  0.00  0.00    +0.000 A 
ATOM      5  N   UNL     1       5.681   7.096  17.384  0.00  0.00    +0.000 NA
ATOM      6  C   UNL     1       4.927   6.042  17.795  0.00  0.00    +0.000 A 
ENDROOT
BRANCH   1   8
ATOM      7  O   UNL     1       5.097   3.077  19.707  0.00  0.00    +0.000 OA
ATOM      8  C   UNL     1       4.794   3.607  18.637  0.00  0.00    +0.000 C 
ATOM      9  N   UNL     1       3.809   3.096  17.829  0.00  0.00    +0.000 N 
ATOM     10  H   UNL     1       3.459   3.686  17.072  0.00  0.00    +0.000 HD
BRANCH   9  11
ATOM     11  C   UNL     1       2.985   1.972  18.242  0.00  0.00    +0.000 C 
BRANCH  11  12
ATOM     12  C   UNL     1       1.791   2.398  19.097  0.00  0.00    +0.000 C 
ATOM     13  C   UNL     1       1.397   3.863  18.945  0.00  0.00    +0.000 C 
ATOM     14  C   UNL     1       0.827   4.178  20.306  0.00  0.00    +0.000 C 
ATOM     15  C   UNL     1       1.714   3.361  21.219  0.00  0.00    +0.000 C 
ATOM     16  O   UNL     1       2.076   2.181  20.493  0.00  0.00    +0.000 OA
ENDBRANCH  11  12
ENDBRANCH   9  11
ENDBRANCH   1   8
BRANCH   6  17
ATOM     17  N   UNL     1       3.520   6.211  17.772  0.00  0.00    +0.000 N 
ATOM     18  H   UNL     1       3.162   5.601  17.039  0.00  0.00    +0.000 HD
BRANCH  17  19
ATOM     19  C   UNL     1       3.150   7.602  17.502  0.00  0.00    +0.000 C 
BRANCH  19  20
ATOM     20  C   UNL     1       2.158   8.116  18.524  0.00  0.00    +0.000 A 
ATOM     21  C   UNL     1       2.118   7.557  19.814  0.00  0.00    +0.000 A 
ATOM     22  C   UNL     1       1.365   8.156  20.824  0.00  0.00    +0.000 A 
ATOM     23  C   UNL     1       0.646   9.312  20.547  0.00  0.00    +0.000 A 
ATOM     24  F   UNL     1      -0.036   9.918  21.528  0.00  0.00    +0.000 F 
ATOM     25  C   UNL     1       0.643   9.863  19.271  0.00  0.00    +0.000 A 
ATOM     26  C   UNL     1       1.397   9.266  18.258  0.00  0.00    +0.000 A 
ENDBRANCH  19  20
ENDBRANCH  17  19
ENDBRANCH   6  17
TORSDOF 6
ENDMDL
MODEL 7
REMARK VINA RESULT:      -7.5      1.717      1.998
REMARK  Name = 
REMARK  6 active torsions:
REMARK  status: ('A' for Active; 'I' for Inactive)
REMARK    1  A    between atoms: C_2  and  C_10
REMARK    2  A    between atoms: N_3  and  C_4
REMARK    3  A    between atoms: C_4  and  C_5
REMARK    4  A    between atoms: C_15  and  N_16
REMARK    5  A    between atoms: N_16  and  C_17
REMARK    6  A    between atoms: C_17  and  C_18
REMARK                            x       y       z     vdW  Elec       q    Type
REMARK                         _______ _______ _______ _____ _____    ______ ____
ROOT
ATOM      1  C   UNL     1       5.471   4.771  18.154  0.00  0.00    +0.000 A 
ATOM      2  C   UNL     1       6.867   4.806  17.981  0.00  0.00    +0.000 A 
ATOM      3  C   UNL     1       7.489   5.937  17.470  0.00  0.00    +0.000 A 
ATOM      4  C   UNL     1       6.691   7.007  17.132  0.00  0.00    +0.000 A 
ATOM      5  N   UNL     1       5.350   7.017  17.294  0.00  0.00    +0.000 NA
ATOM      6  C   UNL     1       4.742   5.925  17.827  0.00  0.00    +0.000 A 
ENDROOT
BRANCH   1   8
ATOM      7  O   UNL     1       5.272   3.127  19.832  0.00  0.00    +0.000 OA
ATOM      8  C   UNL     1       4.907   3.510  18.720  0.00  0.00    +0.000 C 
ATOM      9  N   UNL     1       3.998   2.803  17.972  0.00  0.00    +0.000 N 
ATOM     10  H   UNL     1       3.578   3.269  17.166  0.00  0.00    +0.000 HD
BRANCH   9  11
ATOM     11  C   UNL     1       3.324   1.627  18.497  0.00  0.00    +0.000 C 
BRANCH  11  12
ATOM     12  C   UNL     1       2.047   1.973  19.265  0.00  0.00    +0.000 C 
ATOM     13  C   UNL     1       1.333   3.225  18.772  0.00  0.00    +0.000 C 
ATOM     14  C   UNL     1       0.680   3.734  20.034  0.00  0.00    +0.000 C 
ATOM     15  C   UNL     1       1.712   3.391  21.085  0.00  0.00    +0.000 C 
ATOM     16  O   UNL     1       2.348   2.180  20.660  0.00  0.00    +0.000 OA
ENDBRANCH  11  12
ENDBRANCH   9  11
ENDBRANCH   1   8
BRANCH   6  17
ATOM     17  N   UNL     1       3.338   5.996  18.004  0.00  0.00    +0.000 N 
ATOM     18  H   UNL     1       2.981   6.625  17.285  0.00  0.00    +0.000 HD
BRANCH  17  19
ATOM     19  C   UNL     1       2.987   6.495  19.336  0.00  0.00    +0.000 C 
BRANCH  19  20
ATOM     20  C   UNL     1       2.102   7.720  19.251  0.00  0.00    +0.000 A 
ATOM     21  C   UNL     1       1.470   8.217  20.404  0.00  0.00    +0.000 A 
ATOM     22  C   UNL     1       0.831   9.458  20.384  0.00  0.00    +0.000 A 
ATOM     23  C   UNL     1       0.815  10.199  19.210  0.00  0.00    +0.000 A 
ATOM     24  F   UNL     1       0.246  11.412  19.202  0.00  0.00    +0.000 F 
ATOM     25  C   UNL     1       1.401   9.712  18.048  0.00  0.00    +0.000 A 
ATOM     26  C   UNL     1       2.044   8.472  18.066  0.00  0.00    +0.000 A 
ENDBRANCH  19  20
ENDBRANCH  17  19
ENDBRANCH   6  17
TORSDOF 6
ENDMDL
MODEL 8
REMARK VINA RESULT:      -7.5      2.159      4.900
REMARK  Name = 
REMARK  6 active torsions:
REMARK  status: ('A' for Active; 'I' for Inactive)
REMARK    1  A    between atoms: C_2  and  C_10
REMARK    2  A    between atoms: N_3  and  C_4
REMARK    3  A    between atoms: C_4  and  C_5
REMARK    4  A    between atoms: C_15  and  N_16
REMARK    5  A    between atoms: N_16  and  C_17
REMARK    6  A    between atoms: C_17  and  C_18
REMARK                            x       y       z     vdW  Elec       q    Type
REMARK                         _______ _______ _______ _____ _____    ______ ____
ROOT
ATOM      1  C   UNL     1       3.158   3.752  18.911  0.00  0.00    +0.000 A 
ATOM      2  C   UNL     1       2.483   2.530  19.089  0.00  0.00    +0.000 A 
ATOM      3  C   UNL     1       1.587   2.362  20.137  0.00  0.00    +0.000 A 
ATOM      4  C   UNL     1       1.399   3.425  20.991  0.00  0.00    +0.000 A 
ATOM      5  N   UNL     1       2.018   4.616  20.848  0.00  0.00    +0.000 NA
ATOM      6  C   UNL     1       2.868   4.796  19.802  0.00  0.00    +0.000 A 
ENDROOT
BRANCH   1   8
ATOM      7  O   UNL     1       3.638   3.764  16.603  0.00  0.00    +0.000 OA
ATOM      8  C   UNL     1       4.089   3.828  17.747  0.00  0.00    +0.000 C 
ATOM      9  N   UNL     1       5.434   3.957  17.989  0.00  0.00    +0.000 N 
ATOM     10  H   UNL     1       5.726   4.216  18.934  0.00  0.00    +0.000 HD
BRANCH   9  11
ATOM     11  C   UNL     1       6.392   4.146  16.912  0.00  0.00    +0.000 C 
BRANCH  11  12
ATOM     12  C   UNL     1       7.504   5.131  17.277  0.00  0.00    +0.000 C 
ATOM     13  C   UNL     1       7.539   5.526  18.749  0.00  0.00    +0.000 C 
ATOM     14  C   UNL     1       8.099   6.926  18.686  0.00  0.00    +0.000 C 
ATOM     15  C   UNL     1       7.480   7.459  17.414  0.00  0.00    +0.000 C 
ATOM     16  O   UNL     1       7.359   6.348  16.518  0.00  0.00    +0.000 OA
ENDBRANCH  11  12
ENDBRANCH   9  11
ENDBRANCH   1   8
BRANCH   6  17
ATOM     17  N   UNL     1       3.469   6.073  19.678  0.00  0.00    +0.000 N 
ATOM     18  H   UNL     1       3.242   6.590  20.526  0.00  0.00    +0.000 HD
BRANCH  17  19
ATOM     19  C   UNL     1       2.976   6.789  18.499  0.00  0.00    +0.000 C 
BRANCH  19  20
ATOM     20  C   UNL     1       2.150   7.995  18.891  0.00  0.00    +0.000 A 
ATOM     21  C   UNL     1       1.634   8.850  17.901  0.00  0.00    +0.000 A 
ATOM     22  C   UNL     1       0.701   9.834  18.231  0.00  0.00    +0.000 A 
ATOM     23  C   UNL     1       0.287   9.970  19.549  0.00  0.00    +0.000 A 
ATOM     24  F   UNL     1      -0.646  10.880  19.859  0.00  0.00    +0.000 F 
ATOM     25  C   UNL     1       0.810   9.159  20.550  0.00  0.00    +0.000 A 
ATOM     26  C   UNL     1       1.742   8.172  20.223  0.00  0.00    +0.000 A 
ENDBRANCH  19  20
ENDBRANCH  17  19
ENDBRANCH   6  17
TORSDOF 6
ENDMDL
MODEL 9
REMARK VINA RESULT:      -7.5      3.168      6.160
REMARK  Name = 
REMARK  6 active torsions:
REMARK  status: ('A' for Active; 'I' for Inactive)
REMARK    1  A    between atoms: C_2  and  C_10
REMARK    2  A    between atoms: N_3  and  C_4
REMARK    3  A    between atoms: C_4  and  C_5
REMARK    4  A    between atoms: C_15  and  N_16
REMARK    5  A    between atoms: N_16  and  C_17
REMARK    6  A    between atoms: C_17  and  C_18
REMARK                            x       y       z     vdW  Elec       q    Type
REMARK                         _______ _______ _______ _____ _____    ______ ____
ROOT
ATOM      1  C   UNL     1       2.373   5.277  19.798  0.00  0.00    +0.000 A 
ATOM      2  C   UNL     1       2.089   4.798  21.090  0.00  0.00    +0.000 A 
ATOM      3  C   UNL     1       2.134   3.437  21.366  0.00  0.00    +0.000 A 
ATOM      4  C   UNL     1       2.453   2.586  20.332  0.00  0.00    +0.000 A 
ATOM      5  N   UNL     1       2.743   3.008  19.082  0.00  0.00    +0.000 NA
ATOM      6  C   UNL     1       2.735   4.342  18.817  0.00  0.00    +0.000 A 
ENDROOT
BRANCH   1   8
ATOM      7  O   UNL     1       2.852   7.273  18.638  0.00  0.00    +0.000 OA
ATOM      8  C   UNL     1       2.306   6.757  19.614  0.00  0.00    +0.000 C 
ATOM      9  N   UNL     1       1.641   7.506  20.553  0.00  0.00    +0.000 N 
ATOM     10  H   UNL     1       1.037   7.015  21.214  0.00  0.00    +0.000 HD
BRANCH   9  11
ATOM     11  C   UNL     1       1.440   8.937  20.389  0.00  0.00    +0.000 C 
BRANCH  11  12
ATOM     12  C   UNL     1       0.130   9.423  21.012  0.00  0.00    +0.000 C 
ATOM     13  C   UNL     1       0.083  10.919  21.296  0.00  0.00    +0.000 C 
ATOM     14  C   UNL     1      -0.835  10.984  22.491  0.00  0.00    +0.000 C 
ATOM     15  C   UNL     1      -0.464   9.727  23.245  0.00  0.00    +0.000 C 
ATOM     16  O   UNL     1      -0.106   8.748  22.264  0.00  0.00    +0.000 OA
ENDBRANCH  11  12
ENDBRANCH   9  11
ENDBRANCH   1   8
BRANCH   6  17
ATOM     17  N   UNL     1       3.076   4.735  17.499  0.00  0.00    +0.000 N 
ATOM     18  H   UNL     1       2.390   4.309  16.877  0.00  0.00    +0.000 HD
BRANCH  17  19
ATOM     19  C   UNL     1       4.428   4.301  17.139  0.00  0.00    +0.000 C 
BRANCH  19  20
ATOM     20  C   UNL     1       5.472   5.267  17.657  0.00  0.00    +0.000 A 
ATOM     21  C   UNL     1       6.262   4.923  18.769  0.00  0.00    +0.000 A 
ATOM     22  C   UNL     1       7.364   5.703  19.123  0.00  0.00    +0.000 A 
ATOM     23  C   UNL     1       7.675   6.829  18.373  0.00  0.00    +0.000 A 
ATOM     24  F   UNL     1       8.762   7.549  18.681  0.00  0.00    +0.000 F 
ATOM     25  C   UNL     1       6.888   7.208  17.292  0.00  0.00    +0.000 A 
ATOM     26  C   UNL     1       5.785   6.429  16.934  0.00  0.00    +0.000 A 
ENDBRANCH  19  20
ENDBRANCH  17  19
ENDBRANCH   6  17
TORSDOF 6
ENDMDL
