MODEL 1
REMARK VINA RESULT:      -7.5      0.000      0.000
REMARK  Name = 
REMARK  4 active torsions:
REMARK  status: ('A' for Active; 'I' for Inactive)
REMARK    1  A    between atoms: C_1  and  O_2
REMARK    2  A    between atoms: O_2  and  C_3
REMARK    3  A    between atoms: C_10  and  C_11
REMARK    4  A    between atoms: C_11  and  N_12
REMARK                            x       y       z     vdW  Elec       q    Type
REMARK                         _______ _______ _______ _____ _____    ______ ____
ROOT
ATOM      1  C   UNL     1       3.234   6.529  17.858  0.00  0.00    +0.000 C 
ENDROOT
BRANCH   1   2
ATOM      2  N   UNL     1       4.447   5.760  18.222  0.00  0.00    +0.000 NA
ATOM      3  C   UNL     1       4.452   4.386  17.659  0.00  0.00    +0.000 C 
ATOM      4  C   UNL     1       4.672   4.281  16.129  0.00  0.00    +0.000 C 
ATOM      5  N   UNL     1       5.914   4.967  15.764  0.00  0.00    +0.000 N 
ATOM      6  C   UNL     1       6.386   4.736  14.478  0.00  0.00    +0.000 A 
ATOM      7  N   UNL     1       5.814   3.780  13.723  0.00  0.00    +0.000 NA
ATOM      8  C   UNL     1       6.335   3.533  12.505  0.00  0.00    +0.000 A 
ATOM      9  C   UNL     1       7.424   4.191  12.000  0.00  0.00    +0.000 A 
ATOM     10  C   UNL     1       7.951   5.142  12.831  0.00  0.00    +0.000 A 
ATOM     11  N   UNL     1       7.451   5.439  14.046  0.00  0.00    +0.000 NA
ATOM     12  C   UNL     1       6.015   6.351  16.231  0.00  0.00    +0.000 C 
ATOM     13  C   UNL     1       5.679   6.449  17.748  0.00  0.00    +0.000 C 
ENDBRANCH   1   2
BRANCH   1  21
ATOM     14  C   UNL     1       0.878  10.350  19.759  0.00  0.00    +0.000 A 
ATOM     15  C   UNL     1      -0.018  10.903  20.685  0.00  0.00    +0.000 A 
ATOM     16  C   UNL     1      -0.406  10.174  21.803  0.00  0.00    +0.000 A 
ATOM     17  C   UNL     1       0.097   8.890  21.986  0.00  0.00    +0.000 A 
ATOM     18  C   UNL     1       0.938   8.301  21.019  0.00  0.00    +0.000 A 
ATOM     19  C   UNL     1       1.413   6.992  21.174  0.00  0.00    +0.000 A 
ATOM     20  C   UNL     1       2.167   6.394  20.166  0.00  0.00    +0.000 A 
ATOM     21  C   UNL     1       2.439   7.125  19.017  0.00  0.00    +0.000 A 
ATOM     22  N   UNL     1       2.051   8.422  18.887  0.00  0.00    +0.000 NA
ATOM     23  C   UNL     1       1.312   9.014  19.860  0.00  0.00    +0.000 A 
BRANCH  14  25
ATOM     24  C   UNL     1       1.628  12.442  18.935  0.00  0.00    +0.000 C 
ATOM     25  O   UNL     1       1.291  11.081  18.666  0.00  0.00    +0.000 OA
ENDBRANCH  14  25
ENDBRANCH   1  21
TORSDOF 3
ENDMDL
MODEL 2
REMARK VINA RESULT:      -7.2      4.027      8.929
REMARK  Name = 
REMARK  4 active torsions:
REMARK  status: ('A' for Active; 'I' for Inactive)
REMARK    1  A    between atoms: C_1  and  O_2
REMARK    2  A    between atoms: O_2  and  C_3
REMARK    3  A    between atoms: C_10  and  C_11
REMARK    4  A    between atoms: C_11  and  N_12
REMARK                            x       y       z     vdW  Elec       q    Type
REMARK                         _______ _______ _______ _____ _____    ______ ____
ROOT
ATOM      1  C   UNL     1       1.915   8.243  20.121  0.00  0.00    +0.000 C 
ENDROOT
BRANCH   1   2
ATOM      2  N   UNL     1       0.644   8.888  19.717  0.00  0.00    +0.000 NA
ATOM      3  C   UNL     1       0.009   9.655  20.818  0.00  0.00    +0.000 C 
ATOM      4  C   UNL     1       0.715  10.974  21.221  0.00  0.00    +0.000 C 
ATOM      5  N   UNL     1       0.859  11.833  20.043  0.00  0.00    +0.000 N 
ATOM      6  C   UNL     1       1.228  13.149  20.286  0.00  0.00    +0.000 A 
ATOM      7  N   UNL     1       1.244  13.612  21.550  0.00  0.00    +0.000 NA
ATOM      8  C   UNL     1       1.542  14.910  21.751  0.00  0.00    +0.000 A 
ATOM      9  C   UNL     1       1.814  15.790  20.738  0.00  0.00    +0.000 A 
ATOM     10  C   UNL     1       1.770  15.244  19.483  0.00  0.00    +0.000 A 
ATOM     11  N   UNL     1       1.499  13.948  19.236  0.00  0.00    +0.000 NA
ATOM     12  C   UNL     1       1.510  11.200  18.894  0.00  0.00    +0.000 C 
ATOM     13  C   UNL     1       0.858   9.822  18.577  0.00  0.00    +0.000 C 
ENDBRANCH   1   2
BRANCH   1  21
ATOM     14  C   UNL     1       1.660   3.409  19.545  0.00  0.00    +0.000 A 
ATOM     15  C   UNL     1       1.825   2.255  18.766  0.00  0.00    +0.000 A 
ATOM     16  C   UNL     1       2.582   2.301  17.601  0.00  0.00    +0.000 A 
ATOM     17  C   UNL     1       3.163   3.505  17.215  0.00  0.00    +0.000 A 
ATOM     18  C   UNL     1       2.937   4.684  17.953  0.00  0.00    +0.000 A 
ATOM     19  C   UNL     1       3.481   5.909  17.546  0.00  0.00    +0.000 A 
ATOM     20  C   UNL     1       3.172   7.080  18.236  0.00  0.00    +0.000 A 
ATOM     21  C   UNL     1       2.323   7.001  19.332  0.00  0.00    +0.000 A 
ATOM     22  N   UNL     1       1.850   5.809  19.785  0.00  0.00    +0.000 NA
ATOM     23  C   UNL     1       2.140   4.662  19.118  0.00  0.00    +0.000 A 
BRANCH  14  25
ATOM     24  C   UNL     1       1.565   2.660  21.792  0.00  0.00    +0.000 C 
ATOM     25  O   UNL     1       0.937   3.361  20.718  0.00  0.00    +0.000 OA
ENDBRANCH  14  25
ENDBRANCH   1  21
TORSDOF 3
ENDMDL
MODEL 3
REMARK VINA RESULT:      -7.1      3.983      9.365
REMARK  Name = 
REMARK  4 active torsions:
REMARK  status: ('A' for Active; 'I' for Inactive)
REMARK    1  A    between atoms: C_1  and  O_2
REMARK    2  A    between atoms: O_2  and  C_3
REMARK    3  A    between atoms: C_10  and  C_11
REMARK    4  A    between atoms: C_11  and  N_12
REMARK                            x       y       z     vdW  Elec       q    Type
REMARK                         _______ _______ _______ _____ _____    ______ ____
ROOT
ATOM      1  C   UNL     1       1.186   8.772  19.958  0.00  0.00    +0.000 C 
ENDROOT
BRANCH   1   2
ATOM      2  N   UNL     1       1.324  10.131  19.385  0.00  0.00    +0.000 NA
ATOM      3  C   UNL     1       0.549  10.311  18.132  0.00  0.00    +0.000 C 
ATOM      4  C   UNL     1      -0.990  10.380  18.290  0.00  0.00    +0.000 C 
ATOM      5  N   UNL     1      -1.339  11.439  19.241  0.00  0.00    +0.000 N 
ATOM      6  C   UNL     1      -2.679  11.802  19.289  0.00  0.00    +0.000 A 
ATOM      7  N   UNL     1      -3.530  11.325  18.361  0.00  0.00    +0.000 NA
ATOM      8  C   UNL     1      -4.808  11.746  18.392  0.00  0.00    +0.000 A 
ATOM      9  C   UNL     1      -5.288  12.644  19.308  0.00  0.00    +0.000 A 
ATOM     10  C   UNL     1      -4.360  13.087  20.212  0.00  0.00    +0.000 A 
ATOM     11  N   UNL     1      -3.076  12.677  20.233  0.00  0.00    +0.000 NA
ATOM     12  C   UNL     1      -0.666  11.349  20.538  0.00  0.00    +0.000 C 
ATOM     13  C   UNL     1       0.870  11.167  20.353  0.00  0.00    +0.000 C 
ENDBRANCH   1   2
BRANCH   1  21
ATOM     14  C   UNL     1       2.921   4.218  20.127  0.00  0.00    +0.000 A 
ATOM     15  C   UNL     1       3.533   3.114  19.516  0.00  0.00    +0.000 A 
ATOM     16  C   UNL     1       4.188   3.263  18.300  0.00  0.00    +0.000 A 
ATOM     17  C   UNL     1       4.222   4.515  17.694  0.00  0.00    +0.000 A 
ATOM     18  C   UNL     1       3.543   5.611  18.266  0.00  0.00    +0.000 A 
ATOM     19  C   UNL     1       3.534   6.864  17.639  0.00  0.00    +0.000 A 
ATOM     20  C   UNL     1       2.783   7.911  18.171  0.00  0.00    +0.000 A 
ATOM     21  C   UNL     1       2.055   7.683  19.332  0.00  0.00    +0.000 A 
ATOM     22  N   UNL     1       2.117   6.497  19.992  0.00  0.00    +0.000 NA
ATOM     23  C   UNL     1       2.841   5.467  19.482  0.00  0.00    +0.000 A 
BRANCH  14  25
ATOM     24  C   UNL     1       1.530   2.889  21.512  0.00  0.00    +0.000 C 
ATOM     25  O   UNL     1       2.297   4.082  21.348  0.00  0.00    +0.000 OA
ENDBRANCH  14  25
ENDBRANCH   1  21
TORSDOF 3
ENDMDL
MODEL 4
REMARK VINA RESULT:      -7.1      4.049     10.274
REMARK  Name = 
REMARK  4 active torsions:
REMARK  status: ('A' for Active; 'I' for Inactive)
REMARK    1  A    between atoms: C_1  and  O_2
REMARK    2  A    between atoms: O_2  and  C_3
REMARK    3  A    between atoms: C_10  and  C_11
REMARK    4  A    between atoms: C_11  and  N_12
REMARK                            x       y       z     vdW  Elec       q    Type
REMARK                         _______ _______ _______ _____ _____    ______ ____
ROOT
ATOM      1  C   UNL     1       0.572   9.132  20.200  0.00  0.00    +0.000 C 
ENDROOT
BRANCH   1   2
ATOM      2  N   UNL     1       1.106  10.052  21.229  0.00  0.00    +0.000 NA
ATOM      3  C   UNL     1       0.895  11.483  20.892  0.00  0.00    +0.000 C 
ATOM      4  C   UNL     1      -0.564  11.994  20.988  0.00  0.00    +0.000 C 
ATOM      5  N   UNL     1      -1.092  11.723  22.327  0.00  0.00    +0.000 N 
ATOM      6  C   UNL     1      -2.285  12.354  22.655  0.00  0.00    +0.000 A 
ATOM      7  N   UNL     1      -2.781  13.302  21.838  0.00  0.00    +0.000 NA
ATOM      8  C   UNL     1      -3.904  13.943  22.214  0.00  0.00    +0.000 A 
ATOM      9  C   UNL     1      -4.561  13.695  23.389  0.00  0.00    +0.000 A 
ATOM     10  C   UNL     1      -3.990  12.723  24.167  0.00  0.00    +0.000 A 
ATOM     11  N   UNL     1      -2.881  12.040  23.822  0.00  0.00    +0.000 NA
ATOM     12  C   UNL     1      -0.977  10.330  22.764  0.00  0.00    +0.000 C 
ATOM     13  C   UNL     1       0.472   9.800  22.552  0.00  0.00    +0.000 C 
ENDBRANCH   1   2
BRANCH   1  21
ATOM     14  C   UNL     1       2.994   4.901  20.108  0.00  0.00    +0.000 A 
ATOM     15  C   UNL     1       3.760   3.940  19.434  0.00  0.00    +0.000 A 
ATOM     16  C   UNL     1       4.367   4.253  18.224  0.00  0.00    +0.000 A 
ATOM     17  C   UNL     1       4.197   5.526  17.687  0.00  0.00    +0.000 A 
ATOM     18  C   UNL     1       3.365   6.470  18.322  0.00  0.00    +0.000 A 
ATOM     19  C   UNL     1       3.152   7.738  17.765  0.00  0.00    +0.000 A 
ATOM     20  C   UNL     1       2.256   8.626  18.358  0.00  0.00    +0.000 A 
ATOM     21  C   UNL     1       1.589   8.227  19.509  0.00  0.00    +0.000 A 
ATOM     22  N   UNL     1       1.844   7.031  20.104  0.00  0.00    +0.000 NA
ATOM     23  C   UNL     1       2.712   6.155  19.533  0.00  0.00    +0.000 A 
BRANCH  14  25
ATOM     24  C   UNL     1       2.147   3.222  21.550  0.00  0.00    +0.000 C 
ATOM     25  O   UNL     1       2.417   4.605  21.324  0.00  0.00    +0.000 OA
ENDBRANCH  14  25
ENDBRANCH   1  21
TORSDOF 3
ENDMDL
MODEL 5
REMARK VINA RESULT:      -7.0      3.960      9.706
REMARK  Name = 
REMARK  4 active torsions:
REMARK  status: ('A' for Active; 'I' for Inactive)
REMARK    1  A    between atoms: C_1  and  O_2
REMARK    2  A    between atoms: O_2  and  C_3
REMARK    3  A    between atoms: C_10  and  C_11
REMARK    4  A    between atoms: C_11  and  N_12
REMARK                            x       y       z     vdW  Elec       q    Type
REMARK                         _______ _______ _______ _____ _____    ______ ____
ROOT
ATOM      1  C   UNL     1       1.491   8.898  20.065  0.00  0.00    +0.000 C 
ENDROOT
BRANCH   1   2
ATOM      2  N   UNL     1       0.679   9.819  19.237  0.00  0.00    +0.000 NA
ATOM      3  C   UNL     1      -0.674  10.061  19.798  0.00  0.00    +0.000 C 
ATOM      4  C   UNL     1      -0.731  10.933  21.077  0.00  0.00    +0.000 C 
ATOM      5  N   UNL     1      -0.067  12.214  20.828  0.00  0.00    +0.000 N 
ATOM      6  C   UNL     1      -0.265  13.203  21.783  0.00  0.00    +0.000 A 
ATOM      7  N   UNL     1      -1.179  13.016  22.753  0.00  0.00    +0.000 NA
ATOM      8  C   UNL     1      -1.397  14.018  23.625  0.00  0.00    +0.000 A 
ATOM      9  C   UNL     1      -0.751  15.224  23.571  0.00  0.00    +0.000 A 
ATOM     10  C   UNL     1       0.157  15.338  22.553  0.00  0.00    +0.000 A 
ATOM     11  N   UNL     1       0.424  14.355  21.670  0.00  0.00    +0.000 NA
ATOM     12  C   UNL     1       1.297  12.110  20.306  0.00  0.00    +0.000 C 
ATOM     13  C   UNL     1       1.352  11.139  19.089  0.00  0.00    +0.000 C 
ENDBRANCH   1   2
BRANCH   1  21
ATOM     14  C   UNL     1       2.761   4.192  19.976  0.00  0.00    +0.000 A 
ATOM     15  C   UNL     1       3.181   3.047  19.285  0.00  0.00    +0.000 A 
ATOM     16  C   UNL     1       3.701   3.157  18.001  0.00  0.00    +0.000 A 
ATOM     17  C   UNL     1       3.791   4.413  17.409  0.00  0.00    +0.000 A 
ATOM     18  C   UNL     1       3.300   5.558  18.070  0.00  0.00    +0.000 A 
ATOM     19  C   UNL     1       3.345   6.819  17.463  0.00  0.00    +0.000 A 
ATOM     20  C   UNL     1       2.772   7.924  18.091  0.00  0.00    +0.000 A 
ATOM     21  C   UNL     1       2.166   7.743  19.328  0.00  0.00    +0.000 A 
ATOM     22  N   UNL     1       2.183   6.541  19.964  0.00  0.00    +0.000 NA
ATOM     23  C   UNL     1       2.734   5.457  19.359  0.00  0.00    +0.000 A 
BRANCH  14  25
ATOM     24  C   UNL     1       1.698   2.828  21.598  0.00  0.00    +0.000 C 
ATOM     25  O   UNL     1       2.273   4.090  21.261  0.00  0.00    +0.000 OA
ENDBRANCH  14  25
ENDBRANCH   1  21
TORSDOF 3
ENDMDL
MODEL 6
REMARK VINA RESULT:      -7.0      3.998      9.928
REMARK  Name = 
REMARK  4 active torsions:
REMARK  status: ('A' for Active; 'I' for Inactive)
REMARK    1  A    between atoms: C_1  and  O_2
REMARK    2  A    between atoms: O_2  and  C_3
REMARK    3  A    between atoms: C_10  and  C_11
REMARK    4  A    between atoms: C_11  and  N_12
REMARK                            x       y       z     vdW  Elec       q    Type
REMARK                         _______ _______ _______ _____ _____    ______ ____
ROOT
ATOM      1  C   UNL     1       0.921   9.259  20.003  0.00  0.00    +0.000 C 
ENDROOT
BRANCH   1   2
ATOM      2  N   UNL     1       1.059  10.660  19.544  0.00  0.00    +0.000 NA
ATOM      3  C   UNL     1      -0.032  11.079  18.629  0.00  0.00    +0.000 C 
ATOM      4  C   UNL     1      -1.424  11.280  19.280  0.00  0.00    +0.000 C 
ATOM      5  N   UNL     1      -1.315  12.236  20.385  0.00  0.00    +0.000 N 
ATOM      6  C   UNL     1      -2.512  12.721  20.895  0.00  0.00    +0.000 A 
ATOM      7  N   UNL     1      -3.664  12.457  20.252  0.00  0.00    +0.000 NA
ATOM      8  C   UNL     1      -4.801  12.996  20.732  0.00  0.00    +0.000 A 
ATOM      9  C   UNL     1      -4.847  13.810  21.831  0.00  0.00    +0.000 A 
ATOM     10  C   UNL     1      -3.634  14.036  22.425  0.00  0.00    +0.000 A 
ATOM     11  N   UNL     1      -2.475  13.501  21.993  0.00  0.00    +0.000 NA
ATOM     12  C   UNL     1      -0.292  11.911  21.382  0.00  0.00    +0.000 C 
ATOM     13  C   UNL     1       1.071  11.602  20.697  0.00  0.00    +0.000 C 
ENDBRANCH   1   2
BRANCH   1  21
ATOM     14  C   UNL     1       2.955   4.828  20.043  0.00  0.00    +0.000 A 
ATOM     15  C   UNL     1       3.605   3.770  19.392  0.00  0.00    +0.000 A 
ATOM     16  C   UNL     1       4.186   3.968  18.145  0.00  0.00    +0.000 A 
ATOM     17  C   UNL     1       4.107   5.223  17.549  0.00  0.00    +0.000 A 
ATOM     18  C   UNL     1       3.389   6.268  18.165  0.00  0.00    +0.000 A 
ATOM     19  C   UNL     1       3.266   7.521  17.551  0.00  0.00    +0.000 A 
ATOM     20  C   UNL     1       2.477   8.514  18.129  0.00  0.00    +0.000 A 
ATOM     21  C   UNL     1       1.826   8.233  19.323  0.00  0.00    +0.000 A 
ATOM     22  N   UNL     1       1.999   7.050  19.970  0.00  0.00    +0.000 NA
ATOM     23  C   UNL     1       2.761   6.073  19.413  0.00  0.00    +0.000 A 
BRANCH  14  25
ATOM     24  C   UNL     1       1.969   3.316  21.579  0.00  0.00    +0.000 C 
ATOM     25  O   UNL     1       2.405   4.645  21.293  0.00  0.00    +0.000 OA
ENDBRANCH  14  25
ENDBRANCH   1  21
TORSDOF 3
ENDMDL
MODEL 7
REMARK VINA RESULT:      -7.0      3.856      9.216
REMARK  Name = 
REMARK  4 active torsions:
REMARK  status: ('A' for Active; 'I' for Inactive)
REMARK    1  A    between atoms: C_1  and  O_2
REMARK    2  A    between atoms: O_2  and  C_3
REMARK    3  A    between atoms: C_10  and  C_11
REMARK    4  A    between atoms: C_11  and  N_12
REMARK                            x       y       z     vdW  Elec       q    Type
REMARK                         _______ _______ _______ _____ _____    ______ ____
ROOT
ATOM      1  C   UNL     1       1.903   8.582  19.013  0.00  0.00    +0.000 C 
ENDROOT
BRANCH   1   2
ATOM      2  N   UNL     1       1.491   9.508  17.933  0.00  0.00    +0.000 NA
ATOM      3  C   UNL     1       0.017   9.594  17.777  0.00  0.00    +0.000 C 
ATOM      4  C   UNL     1      -0.742  10.342  18.902  0.00  0.00    +0.000 C 
ATOM      5  N   UNL     1      -0.184  11.688  19.058  0.00  0.00    +0.000 N 
ATOM      6  C   UNL     1      -0.923  12.570  19.836  0.00  0.00    +0.000 A 
ATOM      7  N   UNL     1      -2.163  12.229  20.232  0.00  0.00    +0.000 NA
ATOM      8  C   UNL     1      -2.881  13.130  20.929  0.00  0.00    +0.000 A 
ATOM      9  C   UNL     1      -2.424  14.382  21.244  0.00  0.00    +0.000 A 
ATOM     10  C   UNL     1      -1.159  14.655  20.799  0.00  0.00    +0.000 A 
ATOM     11  N   UNL     1      -0.395  13.777  20.119  0.00  0.00    +0.000 NA
ATOM     12  C   UNL     1       1.265  11.735  19.259  0.00  0.00    +0.000 C 
ATOM     13  C   UNL     1       2.002  10.883  18.184  0.00  0.00    +0.000 C 
ENDBRANCH   1   2
BRANCH   1  21
ATOM     14  C   UNL     1       2.173   3.728  19.377  0.00  0.00    +0.000 A 
ATOM     15  C   UNL     1       2.582   2.481  18.884  0.00  0.00    +0.000 A 
ATOM     16  C   UNL     1       3.540   2.406  17.880  0.00  0.00    +0.000 A 
ATOM     17  C   UNL     1       4.081   3.581  17.368  0.00  0.00    +0.000 A 
ATOM     18  C   UNL     1       3.618   4.839  17.807  0.00  0.00    +0.000 A 
ATOM     19  C   UNL     1       4.125   6.027  17.264  0.00  0.00    +0.000 A 
ATOM     20  C   UNL     1       3.592   7.258  17.643  0.00  0.00    +0.000 A 
ATOM     21  C   UNL     1       2.558   7.276  18.570  0.00  0.00    +0.000 A 
ATOM     22  N   UNL     1       2.110   6.137  19.163  0.00  0.00    +0.000 NA
ATOM     23  C   UNL     1       2.618   4.932  18.798  0.00  0.00    +0.000 A 
BRANCH  14  25
ATOM     24  C   UNL     1       1.384   2.823  21.421  0.00  0.00    +0.000 C 
ATOM     25  O   UNL     1       1.246   3.806  20.394  0.00  0.00    +0.000 OA
ENDBRANCH  14  25
ENDBRANCH   1  21
TORSDOF 3
ENDMDL
MODEL 8
REMARK VINA RESULT:      -6.9      2.772      8.374
REMARK  Name = 
REMARK  4 active torsions:
REMARK  status: ('A' for Active; 'I' for Inactive)
REMARK    1  A    between atoms: C_1  and  O_2
REMARK    2  A    between atoms: O_2  and  C_3
REMARK    3  A    between atoms: C_10  and  C_11
REMARK    4  A    between atoms: C_11  and  N_12
REMARK                            x       y       z     vdW  Elec       q    Type
REMARK                         _______ _______ _______ _____ _____    ______ ____
ROOT
ATOM      1  C   UNL     1       2.235   7.876  19.516  0.00  0.00    +0.000 C 
ENDROOT
BRANCH   1   2
ATOM      2  N   UNL     1       1.056   8.576  18.956  0.00  0.00    +0.000 NA
ATOM      3  C   UNL     1       0.396   9.473  19.938  0.00  0.00    +0.000 C 
ATOM      4  C   UNL     1       1.169  10.765  20.302  0.00  0.00    +0.000 C 
ATOM      5  N   UNL     1       1.475  11.514  19.081  0.00  0.00    +0.000 N 
ATOM      6  C   UNL     1       1.926  12.816  19.257  0.00  0.00    +0.000 A 
ATOM      7  N   UNL     1       1.876  13.376  20.480  0.00  0.00    +0.000 NA
ATOM      8  C   UNL     1       2.258  14.661  20.609  0.00  0.00    +0.000 A 
ATOM      9  C   UNL     1       2.680  15.435  19.560  0.00  0.00    +0.000 A 
ATOM     10  C   UNL     1       2.695  14.795  18.350  0.00  0.00    +0.000 A 
ATOM     11  N   UNL     1       2.344  13.505  18.177  0.00  0.00    +0.000 NA
ATOM     12  C   UNL     1       2.165  10.746  18.043  0.00  0.00    +0.000 C 
ATOM     13  C   UNL     1       1.434   9.397  17.774  0.00  0.00    +0.000 C 
ENDBRANCH   1   2
BRANCH   1  21
ATOM     14  C   UNL     1       5.879   6.277  16.698  0.00  0.00    +0.000 A 
ATOM     15  C   UNL     1       6.575   5.239  16.064  0.00  0.00    +0.000 A 
ATOM     16  C   UNL     1       5.988   3.987  15.925  0.00  0.00    +0.000 A 
ATOM     17  C   UNL     1       4.708   3.776  16.429  0.00  0.00    +0.000 A 
ATOM     18  C   UNL     1       4.035   4.794  17.134  0.00  0.00    +0.000 A 
ATOM     19  C   UNL     1       2.765   4.575  17.684  0.00  0.00    +0.000 A 
ATOM     20  C   UNL     1       2.153   5.562  18.456  0.00  0.00    +0.000 A 
ATOM     21  C   UNL     1       2.827   6.759  18.659  0.00  0.00    +0.000 A 
ATOM     22  N   UNL     1       4.024   7.014  18.067  0.00  0.00    +0.000 NA
ATOM     23  C   UNL     1       4.633   6.059  17.317  0.00  0.00    +0.000 A 
BRANCH  14  25
ATOM     24  C   UNL     1       7.632   7.593  17.600  0.00  0.00    +0.000 C 
ATOM     25  O   UNL     1       6.444   7.529  16.810  0.00  0.00    +0.000 OA
ENDBRANCH  14  25
ENDBRANCH   1  21
TORSDOF 3
ENDMDL
MODEL 9
REMARK VINA RESULT:      -6.9      4.216     10.685
REMARK  Name = 
REMARK  4 active torsions:
REMARK  status: ('A' for Active; 'I' for Inactive)
REMARK    1  A    between atoms: C_1  and  O_2
REMARK    2  A    between atoms: O_2  and  C_3
REMARK    3  A    between atoms: C_10  and  C_11
REMARK    4  A    between atoms: C_11  and  N_12
REMARK                            x       y       z     vdW  Elec       q    Type
REMARK                         _______ _______ _______ _____ _____    ______ ____
ROOT
ATOM      1  C   UNL     1      -0.260  10.013  19.916  0.00  0.00    +0.000 C 
ENDROOT
BRANCH   1   2
ATOM      2  N   UNL     1       0.087  11.251  20.651  0.00  0.00    +0.000 NA
ATOM      3  C   UNL     1      -0.748  12.413  20.254  0.00  0.00    +0.000 C 
ATOM      4  C   UNL     1      -2.224  12.378  20.723  0.00  0.00    +0.000 C 
ATOM      5  N   UNL     1      -2.274  12.212  22.177  0.00  0.00    +0.000 N 
ATOM      6  C   UNL     1      -3.507  12.429  22.777  0.00  0.00    +0.000 A 
ATOM      7  N   UNL     1      -4.515  12.952  22.054  0.00  0.00    +0.000 NA
ATOM      8  C   UNL     1      -5.680  13.212  22.678  0.00  0.00    +0.000 A 
ATOM      9  C   UNL     1      -5.891  12.988  24.012  0.00  0.00    +0.000 A 
ATOM     10  C   UNL     1      -4.817  12.463  24.678  0.00  0.00    +0.000 A 
ATOM     11  N   UNL     1      -3.641  12.165  24.092  0.00  0.00    +0.000 NA
ATOM     12  C   UNL     1      -1.516  11.071  22.694  0.00  0.00    +0.000 C 
ATOM     13  C   UNL     1      -0.068  11.062  22.120  0.00  0.00    +0.000 C 
ENDBRANCH   1   2
BRANCH   1  21
ATOM     14  C   UNL     1       2.602   6.071  19.717  0.00  0.00    +0.000 A 
ATOM     15  C   UNL     1       3.517   5.251  19.042  0.00  0.00    +0.000 A 
ATOM     16  C   UNL     1       4.179   5.724  17.914  0.00  0.00    +0.000 A 
ATOM     17  C   UNL     1       3.915   7.013  17.462  0.00  0.00    +0.000 A 
ATOM     18  C   UNL     1       2.941   7.813  18.092  0.00  0.00    +0.000 A 
ATOM     19  C   UNL     1       2.637   9.094  17.615  0.00  0.00    +0.000 A 
ATOM     20  C   UNL     1       1.607   9.835  18.194  0.00  0.00    +0.000 A 
ATOM     21  C   UNL     1       0.900   9.276  19.250  0.00  0.00    +0.000 A 
ATOM     22  N   UNL     1       1.234   8.066  19.773  0.00  0.00    +0.000 NA
ATOM     23  C   UNL     1       2.233   7.333  19.215  0.00  0.00    +0.000 A 
BRANCH  14  25
ATOM     24  C   UNL     1       2.217   4.252  21.188  0.00  0.00    +0.000 C 
ATOM     25  O   UNL     1       1.967   5.618  20.854  0.00  0.00    +0.000 OA
ENDBRANCH  14  25
ENDBRANCH   1  21
TORSDOF 3
ENDMDL
