MODEL 1
REMARK VINA RESULT:      -8.7      0.000      0.000
REMARK  Name = 
REMARK  6 active torsions:
REMARK  status: ('A' for Active; 'I' for Inactive)
REMARK    1  A    between atoms: C_1  and  C_2
REMARK    2  A    between atoms: C_2  and  C_3
REMARK    3  A    between atoms: C_2  and  C_4
REMARK    4  A    between atoms: C_2  and  C_5
REMARK    5  A    between atoms: C_8  and  S_9
REMARK    6  A    between atoms: S_9  and  N_12
REMARK                            x       y       z     vdW  Elec       q    Type
REMARK                         _______ _______ _______ _____ _____    ______ ____
ROOT
ATOM      1  N   UNL     1       1.696   9.010  19.712  0.00  0.00    +0.000 N 
ATOM      2  C   UNL     1       1.786   8.086  18.713  0.00  0.00    +0.000 A 
ATOM      3  C   UNL     1       2.538   7.192  19.439  0.00  0.00    +0.000 A 
ATOM      4  C   UNL     1       3.272   6.080  19.043  0.00  0.00    +0.000 A 
ATOM      5  O   UNL     1       4.139   5.568  19.738  0.00  0.00    +0.000 OA
ATOM      6  O   UNL     1       2.369   5.506  18.245  0.00  0.00    +0.000 OA
ATOM      7  C   UNL     1       1.652   4.654  19.154  0.00  0.00    +0.000 A 
ATOM      8  C   UNL     1       1.584   3.506  18.168  0.00  0.00    +0.000 A 
ATOM      9  C   UNL     1       1.502   2.209  18.513  0.00  0.00    +0.000 A 
ATOM     10  C   UNL     1       1.494   2.168  19.865  0.00  0.00    +0.000 A 
ATOM     11  C   UNL     1       1.448   3.523  20.782  0.00  0.00    +0.000 A 
ATOM     12  C   UNL     1       1.510   4.991  20.633  0.00  0.00    +0.000 A 
ATOM     13  C   UNL     1       1.589   6.750  20.392  0.00  0.00    +0.000 A 
ATOM     14  N   UNL     1       1.194   8.047  20.899  0.00  0.00    +0.000 NA
ENDROOT
BRANCH   1  15
ATOM     15  S   UNL     1       1.269  10.758  18.830  0.00  0.00    +0.000 S 
ATOM     16  O   UNL     1       1.880  10.650  17.508  0.00  0.00    +0.000 OA
ATOM     17  O   UNL     1       1.656  11.822  19.741  0.00  0.00    +0.000 OA
BRANCH  15  21
ATOM     18  C   UNL     1      -3.216  11.252  18.246  0.00  0.00    +0.000 A 
ATOM     19  C   UNL     1      -2.557  10.264  17.486  0.00  0.00    +0.000 A 
ATOM     20  C   UNL     1      -1.183  10.009  17.679  0.00  0.00    +0.000 A 
ATOM     21  C   UNL     1      -0.463  10.833  18.563  0.00  0.00    +0.000 A 
ATOM     22  C   UNL     1      -1.096  11.799  19.295  0.00  0.00    +0.000 A 
ATOM     23  C   UNL     1      -2.429  11.993  19.146  0.00  0.00    +0.000 A 
BRANCH  18  25
ATOM     24  C   UNL     1      -5.017  12.456  19.416  0.00  0.00    +0.000 C 
ATOM     25  C   UNL     1      -4.729  11.463  18.272  0.00  0.00    +0.000 C 
ATOM     26  C   UNL     1      -5.515  10.168  18.527  0.00  0.00    +0.000 C 
ATOM     27  C   UNL     1      -5.244  12.074  16.946  0.00  0.00    +0.000 C 
ENDBRANCH  18  25
ENDBRANCH  15  21
ENDBRANCH   1  15
TORSDOF 3
ENDMDL
MODEL 2
REMARK VINA RESULT:      -8.4      2.136      2.944
REMARK  Name = 
REMARK  6 active torsions:
REMARK  status: ('A' for Active; 'I' for Inactive)
REMARK    1  A    between atoms: C_1  and  C_2
REMARK    2  A    between atoms: C_2  and  C_3
REMARK    3  A    between atoms: C_2  and  C_4
REMARK    4  A    between atoms: C_2  and  C_5
REMARK    5  A    between atoms: C_8  and  S_9
REMARK    6  A    between atoms: S_9  and  N_12
REMARK                            x       y       z     vdW  Elec       q    Type
REMARK                         _______ _______ _______ _____ _____    ______ ____
ROOT
ATOM      1  N   UNL     1       1.344   8.979  20.035  0.00  0.00    +0.000 N 
ATOM      2  C   UNL     1       1.433   8.148  18.957  0.00  0.00    +0.000 A 
ATOM      3  C   UNL     1       2.360   7.307  19.524  0.00  0.00    +0.000 A 
ATOM      4  C   UNL     1       3.172   6.328  18.964  0.00  0.00    +0.000 A 
ATOM      5  O   UNL     1       4.165   5.882  19.522  0.00  0.00    +0.000 OA
ATOM      6  O   UNL     1       2.261   5.703  18.215  0.00  0.00    +0.000 OA
ATOM      7  C   UNL     1       1.755   4.704  19.116  0.00  0.00    +0.000 A 
ATOM      8  C   UNL     1       1.716   3.631  18.048  0.00  0.00    +0.000 A 
ATOM      9  C   UNL     1       1.826   2.312  18.289  0.00  0.00    +0.000 A 
ATOM     10  C   UNL     1       1.973   2.173  19.625  0.00  0.00    +0.000 A 
ATOM     11  C   UNL     1       1.867   3.443  20.654  0.00  0.00    +0.000 A 
ATOM     12  C   UNL     1       1.738   4.913  20.625  0.00  0.00    +0.000 A 
ATOM     13  C   UNL     1       1.581   6.681  20.528  0.00  0.00    +0.000 A 
ATOM     14  N   UNL     1       1.094   7.878  21.180  0.00  0.00    +0.000 NA
ENDROOT
BRANCH   1  15
ATOM     15  S   UNL     1       0.618  10.718  19.351  0.00  0.00    +0.000 S 
ATOM     16  O   UNL     1      -0.233  10.333  18.228  0.00  0.00    +0.000 OA
ATOM     17  O   UNL     1       1.739  11.621  19.156  0.00  0.00    +0.000 OA
BRANCH  15  21
ATOM     18  C   UNL     1      -2.389  12.450  22.293  0.00  0.00    +0.000 A 
ATOM     19  C   UNL     1      -1.270  11.772  22.817  0.00  0.00    +0.000 A 
ATOM     20  C   UNL     1      -0.263  11.282  21.959  0.00  0.00    +0.000 A 
ATOM     21  C   UNL     1      -0.452  11.386  20.570  0.00  0.00    +0.000 A 
ATOM     22  C   UNL     1      -1.541  12.034  20.056  0.00  0.00    +0.000 A 
ATOM     23  C   UNL     1      -2.471  12.555  20.892  0.00  0.00    +0.000 A 
BRANCH  18  25
ATOM     24  C   UNL     1      -4.591  13.547  22.189  0.00  0.00    +0.000 C 
ATOM     25  C   UNL     1      -3.421  13.202  23.132  0.00  0.00    +0.000 C 
ATOM     26  C   UNL     1      -2.873  14.501  23.741  0.00  0.00    +0.000 C 
ATOM     27  C   UNL     1      -3.962  12.328  24.291  0.00  0.00    +0.000 C 
ENDBRANCH  18  25
ENDBRANCH  15  21
ENDBRANCH   1  15
TORSDOF 3
ENDMDL
MODEL 3
REMARK VINA RESULT:      -8.3      2.139      2.879
REMARK  Name = 
REMARK  6 active torsions:
REMARK  status: ('A' for Active; 'I' for Inactive)
REMARK    1  A    between atoms: C_1  and  C_2
REMARK    2  A    between atoms: C_2  and  C_3
REMARK    3  A    between atoms: C_2  and  C_4
REMARK    4  A    between atoms: C_2  and  C_5
REMARK    5  A    between atoms: C_8  and  S_9
REMARK    6  A    between atoms: S_9  and  N_12
REMARK                            x       y       z     vdW  Elec       q    Type
REMARK                         _______ _______ _______ _____ _____    ______ ____
ROOT
ATOM      1  N   UNL     1       1.849   8.504  19.357  0.00  0.00    +0.000 N 
ATOM      2  C   UNL     1       2.072   7.689  18.286  0.00  0.00    +0.000 A 
ATOM      3  C   UNL     1       3.041   6.935  18.905  0.00  0.00    +0.000 A 
ATOM      4  C   UNL     1       3.969   6.037  18.391  0.00  0.00    +0.000 A 
ATOM      5  O   UNL     1       4.967   5.683  19.002  0.00  0.00    +0.000 OA
ATOM      6  O   UNL     1       3.162   5.333  17.594  0.00  0.00    +0.000 OA
ATOM      7  C   UNL     1       2.702   4.289  18.469  0.00  0.00    +0.000 A 
ATOM      8  C   UNL     1       2.820   3.220  17.401  0.00  0.00    +0.000 A 
ATOM      9  C   UNL     1       3.038   1.917  17.649  0.00  0.00    +0.000 A 
ATOM     10  C   UNL     1       3.125   1.787  18.992  0.00  0.00    +0.000 A 
ATOM     11  C   UNL     1       2.847   3.038  20.012  0.00  0.00    +0.000 A 
ATOM     12  C   UNL     1       2.585   4.490  19.973  0.00  0.00    +0.000 A 
ATOM     13  C   UNL     1       2.270   6.236  19.866  0.00  0.00    +0.000 A 
ATOM     14  N   UNL     1       1.640   7.381  20.488  0.00  0.00    +0.000 NA
ENDROOT
BRANCH   1  15
ATOM     15  S   UNL     1       1.004  10.171  18.632  0.00  0.00    +0.000 S 
ATOM     16  O   UNL     1      -0.005   9.682  17.695  0.00  0.00    +0.000 OA
ATOM     17  O   UNL     1       2.069  11.050  18.182  0.00  0.00    +0.000 OA
BRANCH  15  21
ATOM     18  C   UNL     1      -1.529  12.212  21.813  0.00  0.00    +0.000 A 
ATOM     19  C   UNL     1      -0.410  11.468  22.238  0.00  0.00    +0.000 A 
ATOM     20  C   UNL     1       0.459  10.879  21.296  0.00  0.00    +0.000 A 
ATOM     21  C   UNL     1       0.125  10.954  19.933  0.00  0.00    +0.000 A 
ATOM     22  C   UNL     1      -0.966  11.666  19.516  0.00  0.00    +0.000 A 
ATOM     23  C   UNL     1      -1.759  12.280  20.427  0.00  0.00    +0.000 A 
BRANCH  18  25
ATOM     24  C   UNL     1      -1.452  13.922  23.582  0.00  0.00    +0.000 C 
ATOM     25  C   UNL     1      -2.407  13.063  22.729  0.00  0.00    +0.000 C 
ATOM     26  C   UNL     1      -3.294  12.227  23.664  0.00  0.00    +0.000 C 
ATOM     27  C   UNL     1      -3.331  14.007  21.920  0.00  0.00    +0.000 C 
ENDBRANCH  18  25
ENDBRANCH  15  21
ENDBRANCH   1  15
TORSDOF 3
ENDMDL
MODEL 4
REMARK VINA RESULT:      -8.1      3.621      9.046
REMARK  Name = 
REMARK  6 active torsions:
REMARK  status: ('A' for Active; 'I' for Inactive)
REMARK    1  A    between atoms: C_1  and  C_2
REMARK    2  A    between atoms: C_2  and  C_3
REMARK    3  A    between atoms: C_2  and  C_4
REMARK    4  A    between atoms: C_2  and  C_5
REMARK    5  A    between atoms: C_8  and  S_9
REMARK    6  A    between atoms: S_9  and  N_12
REMARK                            x       y       z     vdW  Elec       q    Type
REMARK                         _______ _______ _______ _____ _____    ______ ____
ROOT
ATOM      1  N   UNL     1      -0.180  11.887  20.990  0.00  0.00    +0.000 N 
ATOM      2  C   UNL     1      -1.446  12.347  20.782  0.00  0.00    +0.000 A 
ATOM      3  C   UNL     1      -1.830  12.252  22.099  0.00  0.00    +0.000 A 
ATOM      4  C   UNL     1      -3.086  12.297  22.691  0.00  0.00    +0.000 A 
ATOM      5  O   UNL     1      -3.308  11.887  23.822  0.00  0.00    +0.000 OA
ATOM      6  O   UNL     1      -3.578  13.365  22.060  0.00  0.00    +0.000 OA
ATOM      7  C   UNL     1      -3.181  14.443  22.924  0.00  0.00    +0.000 A 
ATOM      8  C   UNL     1      -4.507  15.162  22.787  0.00  0.00    +0.000 A 
ATOM      9  C   UNL     1      -5.030  15.980  23.717  0.00  0.00    +0.000 A 
ATOM     10  C   UNL     1      -4.151  16.011  24.744  0.00  0.00    +0.000 A 
ATOM     11  C   UNL     1      -2.696  15.265  24.672  0.00  0.00    +0.000 A 
ATOM     12  C   UNL     1      -1.930  14.365  23.788  0.00  0.00    +0.000 A 
ATOM     13  C   UNL     1      -1.054  13.282  22.683  0.00  0.00    +0.000 A 
ATOM     14  N   UNL     1       0.243  12.854  22.203  0.00  0.00    +0.000 NA
ENDROOT
BRANCH   1  15
ATOM     15  S   UNL     1       0.479  11.223  19.216  0.00  0.00    +0.000 S 
ATOM     16  O   UNL     1       1.653  12.047  18.940  0.00  0.00    +0.000 OA
ATOM     17  O   UNL     1      -0.649  11.208  18.301  0.00  0.00    +0.000 OA
BRANCH  15  21
ATOM     18  C   UNL     1       2.208   7.025  19.514  0.00  0.00    +0.000 A 
ATOM     19  C   UNL     1       1.597   7.569  20.662  0.00  0.00    +0.000 A 
ATOM     20  C   UNL     1       0.973   8.833  20.610  0.00  0.00    +0.000 A 
ATOM     21  C   UNL     1       1.070   9.584  19.425  0.00  0.00    +0.000 A 
ATOM     22  C   UNL     1       1.670   9.065  18.312  0.00  0.00    +0.000 A 
ATOM     23  C   UNL     1       2.212   7.824  18.356  0.00  0.00    +0.000 A 
BRANCH  18  25
ATOM     24  C   UNL     1       2.241   4.847  20.662  0.00  0.00    +0.000 C 
ATOM     25  C   UNL     1       2.720   5.590  19.399  0.00  0.00    +0.000 C 
ATOM     26  C   UNL     1       4.252   5.500  19.320  0.00  0.00    +0.000 C 
ATOM     27  C   UNL     1       2.140   4.874  18.154  0.00  0.00    +0.000 C 
ENDBRANCH  18  25
ENDBRANCH  15  21
ENDBRANCH   1  15
TORSDOF 3
ENDMDL
MODEL 5
REMARK VINA RESULT:      -8.1      2.161      3.120
REMARK  Name = 
REMARK  6 active torsions:
REMARK  status: ('A' for Active; 'I' for Inactive)
REMARK    1  A    between atoms: C_1  and  C_2
REMARK    2  A    between atoms: C_2  and  C_3
REMARK    3  A    between atoms: C_2  and  C_4
REMARK    4  A    between atoms: C_2  and  C_5
REMARK    5  A    between atoms: C_8  and  S_9
REMARK    6  A    between atoms: S_9  and  N_12
REMARK                            x       y       z     vdW  Elec       q    Type
REMARK                         _______ _______ _______ _____ _____    ______ ____
ROOT
ATOM      1  N   UNL     1       1.629   8.973  19.653  0.00  0.00    +0.000 N 
ATOM      2  C   UNL     1       1.646   8.029  18.668  0.00  0.00    +0.000 A 
ATOM      3  C   UNL     1       2.521   7.190  19.317  0.00  0.00    +0.000 A 
ATOM      4  C   UNL     1       3.256   6.103  18.858  0.00  0.00    +0.000 A 
ATOM      5  O   UNL     1       4.223   5.650  19.454  0.00  0.00    +0.000 OA
ATOM      6  O   UNL     1       2.295   5.468  18.184  0.00  0.00    +0.000 OA
ATOM      7  C   UNL     1       1.733   4.607  19.189  0.00  0.00    +0.000 A 
ATOM      8  C   UNL     1       1.605   3.433  18.240  0.00  0.00    +0.000 A 
ATOM      9  C   UNL     1       1.628   2.142  18.618  0.00  0.00    +0.000 A 
ATOM     10  C   UNL     1       1.782   2.135  19.961  0.00  0.00    +0.000 A 
ATOM     11  C   UNL     1       1.777   3.509  20.851  0.00  0.00    +0.000 A 
ATOM     12  C   UNL     1       1.750   4.974  20.667  0.00  0.00    +0.000 A 
ATOM     13  C   UNL     1       1.714   6.729  20.385  0.00  0.00    +0.000 A 
ATOM     14  N   UNL     1       1.319   8.018  20.910  0.00  0.00    +0.000 NA
ENDROOT
BRANCH   1  15
ATOM     15  S   UNL     1       1.016  10.677  18.793  0.00  0.00    +0.000 S 
ATOM     16  O   UNL     1      -0.048  10.256  17.885  0.00  0.00    +0.000 OA
ATOM     17  O   UNL     1       2.190  11.368  18.290  0.00  0.00    +0.000 OA
BRANCH  15  21
ATOM     18  C   UNL     1      -1.186  13.013  22.017  0.00  0.00    +0.000 A 
ATOM     19  C   UNL     1       0.160  13.348  21.764  0.00  0.00    +0.000 A 
ATOM     20  C   UNL     1       0.872  12.714  20.723  0.00  0.00    +0.000 A 
ATOM     21  C   UNL     1       0.248  11.669  20.020  0.00  0.00    +0.000 A 
ATOM     22  C   UNL     1      -1.054  11.334  20.269  0.00  0.00    +0.000 A 
ATOM     23  C   UNL     1      -1.747  11.992  21.230  0.00  0.00    +0.000 A 
BRANCH  18  25
ATOM     24  C   UNL     1      -2.901  14.778  22.102  0.00  0.00    +0.000 C 
ATOM     25  C   UNL     1      -2.108  13.778  22.966  0.00  0.00    +0.000 C 
ATOM     26  C   UNL     1      -1.347  14.553  24.053  0.00  0.00    +0.000 C 
ATOM     27  C   UNL     1      -3.110  12.833  23.674  0.00  0.00    +0.000 C 
ENDBRANCH  18  25
ENDBRANCH  15  21
ENDBRANCH   1  15
TORSDOF 3
ENDMDL
MODEL 6
REMARK VINA RESULT:      -8.1      1.813      3.061
REMARK  Name = 
REMARK  6 active torsions:
REMARK  status: ('A' for Active; 'I' for Inactive)
REMARK    1  A    between atoms: C_1  and  C_2
REMARK    2  A    between atoms: C_2  and  C_3
REMARK    3  A    between atoms: C_2  and  C_4
REMARK    4  A    between atoms: C_2  and  C_5
REMARK    5  A    between atoms: C_8  and  S_9
REMARK    6  A    between atoms: S_9  and  N_12
REMARK                            x       y       z     vdW  Elec       q    Type
REMARK                         _______ _______ _______ _____ _____    ______ ____
ROOT
ATOM      1  N   UNL     1       1.416   9.035  18.633  0.00  0.00    +0.000 N 
ATOM      2  C   UNL     1       2.165   8.185  19.393  0.00  0.00    +0.000 A 
ATOM      3  C   UNL     1       2.218   7.189  18.447  0.00  0.00    +0.000 A 
ATOM      4  C   UNL     1       2.593   5.854  18.544  0.00  0.00    +0.000 A 
ATOM      5  O   UNL     1       2.295   5.012  17.708  0.00  0.00    +0.000 OA
ATOM      6  O   UNL     1       3.723   6.003  19.239  0.00  0.00    +0.000 OA
ATOM      7  C   UNL     1       4.705   6.157  18.199  0.00  0.00    +0.000 A 
ATOM      8  C   UNL     1       5.721   5.282  18.905  0.00  0.00    +0.000 A 
ATOM      9  C   UNL     1       6.678   4.573  18.281  0.00  0.00    +0.000 A 
ATOM     10  C   UNL     1       6.533   4.806  16.958  0.00  0.00    +0.000 A 
ATOM     11  C   UNL     1       5.451   5.886  16.372  0.00  0.00    +0.000 A 
ATOM     12  C   UNL     1       4.356   6.757  16.844  0.00  0.00    +0.000 A 
ATOM     13  C   UNL     1       3.049   7.787  17.469  0.00  0.00    +0.000 A 
ATOM     14  N   UNL     1       2.298   9.011  17.288  0.00  0.00    +0.000 NA
ENDROOT
BRANCH   1  15
ATOM     15  S   UNL     1       0.541  10.312  19.907  0.00  0.00    +0.000 S 
ATOM     16  O   UNL     1       1.300  11.550  19.750  0.00  0.00    +0.000 OA
ATOM     17  O   UNL     1       0.452   9.657  21.201  0.00  0.00    +0.000 OA
BRANCH  15  21
ATOM     18  C   UNL     1      -3.632  11.482  18.525  0.00  0.00    +0.000 A 
ATOM     19  C   UNL     1      -2.968  10.457  17.822  0.00  0.00    +0.000 A 
ATOM     20  C   UNL     1      -1.707   9.995  18.251  0.00  0.00    +0.000 A 
ATOM     21  C   UNL     1      -1.078  10.652  19.323  0.00  0.00    +0.000 A 
ATOM     22  C   UNL     1      -1.713  11.654  20.002  0.00  0.00    +0.000 A 
ATOM     23  C   UNL     1      -2.952  12.047  19.619  0.00  0.00    +0.000 A 
BRANCH  18  25
ATOM     24  C   UNL     1      -5.965  10.708  18.670  0.00  0.00    +0.000 C 
ATOM     25  C   UNL     1      -5.079  11.908  18.281  0.00  0.00    +0.000 C 
ATOM     26  C   UNL     1      -5.360  12.281  16.818  0.00  0.00    +0.000 C 
ATOM     27  C   UNL     1      -5.475  13.120  19.161  0.00  0.00    +0.000 C 
ENDBRANCH  18  25
ENDBRANCH  15  21
ENDBRANCH   1  15
TORSDOF 3
ENDMDL
MODEL 7
REMARK VINA RESULT:      -8.0      3.743      9.379
REMARK  Name = 
REMARK  6 active torsions:
REMARK  status: ('A' for Active; 'I' for Inactive)
REMARK    1  A    between atoms: C_1  and  C_2
REMARK    2  A    between atoms: C_2  and  C_3
REMARK    3  A    between atoms: C_2  and  C_4
REMARK    4  A    between atoms: C_2  and  C_5
REMARK    5  A    between atoms: C_8  and  S_9
REMARK    6  A    between atoms: S_9  and  N_12
REMARK                            x       y       z     vdW  Elec       q    Type
REMARK                         _______ _______ _______ _____ _____    ______ ____
ROOT
ATOM      1  N   UNL     1       1.073  12.117  20.112  0.00  0.00    +0.000 N 
ATOM      2  C   UNL     1       0.037  12.989  19.949  0.00  0.00    +0.000 A 
ATOM      3  C   UNL     1       0.763  14.107  20.285  0.00  0.00    +0.000 A 
ATOM      4  C   UNL     1       0.360  15.396  20.612  0.00  0.00    +0.000 A 
ATOM      5  O   UNL     1       1.082  16.196  21.191  0.00  0.00    +0.000 OA
ATOM      6  O   UNL     1      -0.519  15.597  19.628  0.00  0.00    +0.000 OA
ATOM      7  C   UNL     1       0.301  16.164  18.593  0.00  0.00    +0.000 A 
ATOM      8  C   UNL     1      -0.742  17.192  18.204  0.00  0.00    +0.000 A 
ATOM      9  C   UNL     1      -0.466  18.385  17.649  0.00  0.00    +0.000 A 
ATOM     10  C   UNL     1       0.878  18.453  17.526  0.00  0.00    +0.000 A 
ATOM     11  C   UNL     1       1.856  17.190  17.886  0.00  0.00    +0.000 A 
ATOM     12  C   UNL     1       1.783  15.835  18.467  0.00  0.00    +0.000 A 
ATOM     13  C   UNL     1       1.634  14.210  19.173  0.00  0.00    +0.000 A 
ATOM     14  N   UNL     1       2.178  12.870  19.218  0.00  0.00    +0.000 NA
ENDROOT
BRANCH   1  15
ATOM     15  S   UNL     1       0.251  10.309  20.389  0.00  0.00    +0.000 S 
ATOM     16  O   UNL     1      -0.992  10.360  19.624  0.00  0.00    +0.000 OA
ATOM     17  O   UNL     1       0.233  10.044  21.817  0.00  0.00    +0.000 OA
BRANCH  15  21
ATOM     18  C   UNL     1       2.765   6.998  18.540  0.00  0.00    +0.000 A 
ATOM     19  C   UNL     1       2.471   8.124  17.745  0.00  0.00    +0.000 A 
ATOM     20  C   UNL     1       1.764   9.218  18.286  0.00  0.00    +0.000 A 
ATOM     21  C   UNL     1       1.264   9.116  19.597  0.00  0.00    +0.000 A 
ATOM     22  C   UNL     1       1.539   8.021  20.368  0.00  0.00    +0.000 A 
ATOM     23  C   UNL     1       2.272   7.002  19.858  0.00  0.00    +0.000 A 
BRANCH  18  25
ATOM     24  C   UNL     1       4.608   6.419  17.013  0.00  0.00    +0.000 C 
ATOM     25  C   UNL     1       3.699   5.862  18.127  0.00  0.00    +0.000 C 
ATOM     26  C   UNL     1       2.952   4.631  17.590  0.00  0.00    +0.000 C 
ATOM     27  C   UNL     1       4.590   5.397  19.305  0.00  0.00    +0.000 C 
ENDBRANCH  18  25
ENDBRANCH  15  21
ENDBRANCH   1  15
TORSDOF 3
ENDMDL
MODEL 8
REMARK VINA RESULT:      -8.0      2.032      2.757
REMARK  Name = 
REMARK  6 active torsions:
REMARK  status: ('A' for Active; 'I' for Inactive)
REMARK    1  A    between atoms: C_1  and  C_2
REMARK    2  A    between atoms: C_2  and  C_3
REMARK    3  A    between atoms: C_2  and  C_4
REMARK    4  A    between atoms: C_2  and  C_5
REMARK    5  A    between atoms: C_8  and  S_9
REMARK    6  A    between atoms: S_9  and  N_12
REMARK                            x       y       z     vdW  Elec       q    Type
REMARK                         _______ _______ _______ _____ _____    ______ ____
ROOT
ATOM      1  N   UNL     1       1.514   8.960  19.705  0.00  0.00    +0.000 N 
ATOM      2  C   UNL     1       1.568   8.005  18.732  0.00  0.00    +0.000 A 
ATOM      3  C   UNL     1       2.462   7.201  19.398  0.00  0.00    +0.000 A 
ATOM      4  C   UNL     1       3.234   6.132  18.960  0.00  0.00    +0.000 A 
ATOM      5  O   UNL     1       4.208   5.715  19.570  0.00  0.00    +0.000 OA
ATOM      6  O   UNL     1       2.298   5.460  18.286  0.00  0.00    +0.000 OA
ATOM      7  C   UNL     1       1.753   4.594  19.296  0.00  0.00    +0.000 A 
ATOM      8  C   UNL     1       1.670   3.405  18.361  0.00  0.00    +0.000 A 
ATOM      9  C   UNL     1       1.728   2.121  18.755  0.00  0.00    +0.000 A 
ATOM     10  C   UNL     1       1.870   2.134  20.099  0.00  0.00    +0.000 A 
ATOM     11  C   UNL     1       1.816   3.518  20.972  0.00  0.00    +0.000 A 
ATOM     12  C   UNL     1       1.746   4.979  20.769  0.00  0.00    +0.000 A 
ATOM     13  C   UNL     1       1.660   6.728  20.465  0.00  0.00    +0.000 A 
ATOM     14  N   UNL     1       1.221   8.012  20.970  0.00  0.00    +0.000 NA
ENDROOT
BRANCH   1  15
ATOM     15  S   UNL     1       0.857  10.634  18.819  0.00  0.00    +0.000 S 
ATOM     16  O   UNL     1       0.061  10.154  17.693  0.00  0.00    +0.000 OA
ATOM     17  O   UNL     1       2.003  11.500  18.600  0.00  0.00    +0.000 OA
BRANCH  15  21
ATOM     18  C   UNL     1      -1.799  12.833  21.786  0.00  0.00    +0.000 A 
ATOM     19  C   UNL     1      -2.369  12.437  20.560  0.00  0.00    +0.000 A 
ATOM     20  C   UNL     1      -1.620  11.683  19.632  0.00  0.00    +0.000 A 
ATOM     21  C   UNL     1      -0.264  11.431  19.908  0.00  0.00    +0.000 A 
ATOM     22  C   UNL     1       0.296  11.823  21.092  0.00  0.00    +0.000 A 
ATOM     23  C   UNL     1      -0.451  12.493  22.002  0.00  0.00    +0.000 A 
BRANCH  18  25
ATOM     24  C   UNL     1      -1.536  14.139  23.857  0.00  0.00    +0.000 C 
ATOM     25  C   UNL     1      -2.576  13.460  22.943  0.00  0.00    +0.000 C 
ATOM     26  C   UNL     1      -3.367  12.432  23.767  0.00  0.00    +0.000 C 
ATOM     27  C   UNL     1      -3.573  14.535  22.446  0.00  0.00    +0.000 C 
ENDBRANCH  18  25
ENDBRANCH  15  21
ENDBRANCH   1  15
TORSDOF 3
ENDMDL
MODEL 9
REMARK VINA RESULT:      -8.0      3.677      9.171
REMARK  Name = 
REMARK  6 active torsions:
REMARK  status: ('A' for Active; 'I' for Inactive)
REMARK    1  A    between atoms: C_1  and  C_2
REMARK    2  A    between atoms: C_2  and  C_3
REMARK    3  A    between atoms: C_2  and  C_4
REMARK    4  A    between atoms: C_2  and  C_5
REMARK    5  A    between atoms: C_8  and  S_9
REMARK    6  A    between atoms: S_9  and  N_12
REMARK                            x       y       z     vdW  Elec       q    Type
REMARK                         _______ _______ _______ _____ _____    ______ ____
ROOT
ATOM      1  N   UNL     1      -0.490  11.596  21.046  0.00  0.00    +0.000 N 
ATOM      2  C   UNL     1      -1.364  12.588  20.712  0.00  0.00    +0.000 A 
ATOM      3  C   UNL     1      -2.195  12.390  21.789  0.00  0.00    +0.000 A 
ATOM      4  C   UNL     1      -3.483  12.842  22.048  0.00  0.00    +0.000 A 
ATOM      5  O   UNL     1      -4.214  12.337  22.888  0.00  0.00    +0.000 OA
ATOM      6  O   UNL     1      -3.326  14.125  21.713  0.00  0.00    +0.000 OA
ATOM      7  C   UNL     1      -2.916  14.719  22.957  0.00  0.00    +0.000 A 
ATOM      8  C   UNL     1      -3.779  15.948  22.759  0.00  0.00    +0.000 A 
ATOM      9  C   UNL     1      -4.284  16.694  23.758  0.00  0.00    +0.000 A 
ATOM     10  C   UNL     1      -3.868  16.126  24.913  0.00  0.00    +0.000 A 
ATOM     11  C   UNL     1      -2.828  14.862  24.942  0.00  0.00    +0.000 A 
ATOM     12  C   UNL     1      -2.156  13.930  24.015  0.00  0.00    +0.000 A 
ATOM     13  C   UNL     1      -1.372  12.838  22.852  0.00  0.00    +0.000 A 
ATOM     14  N   UNL     1      -0.219  12.008  22.577  0.00  0.00    +0.000 NA
ENDROOT
BRANCH   1  15
ATOM     15  S   UNL     1       0.482  11.107  19.363  0.00  0.00    +0.000 S 
ATOM     16  O   UNL     1       1.654  11.977  19.360  0.00  0.00    +0.000 OA
ATOM     17  O   UNL     1      -0.475  11.147  18.270  0.00  0.00    +0.000 OA
BRANCH  15  21
ATOM     18  C   UNL     1       2.247   6.918  19.554  0.00  0.00    +0.000 A 
ATOM     19  C   UNL     1       1.663   7.441  20.725  0.00  0.00    +0.000 A 
ATOM     20  C   UNL     1       1.029   8.701  20.708  0.00  0.00    +0.000 A 
ATOM     21  C   UNL     1       1.089   9.469  19.532  0.00  0.00    +0.000 A 
ATOM     22  C   UNL     1       1.664   8.970  18.397  0.00  0.00    +0.000 A 
ATOM     23  C   UNL     1       2.215   7.733  18.408  0.00  0.00    +0.000 A 
BRANCH  18  25
ATOM     24  C   UNL     1       4.305   5.575  19.395  0.00  0.00    +0.000 C 
ATOM     25  C   UNL     1       2.766   5.488  19.405  0.00  0.00    +0.000 C 
ATOM     26  C   UNL     1       2.297   4.808  18.110  0.00  0.00    +0.000 C 
ATOM     27  C   UNL     1       2.330   4.595  20.593  0.00  0.00    +0.000 C 
ENDBRANCH  18  25
ENDBRANCH  15  21
ENDBRANCH   1  15
TORSDOF 3
ENDMDL
