MODEL 1
REMARK VINA RESULT:      -7.3      0.000      0.000
REMARK  Name = 
REMARK  17 active torsions:
REMARK  status: ('A' for Active; 'I' for Inactive)
REMARK    1  A    between atoms: C_1  and  C_2
REMARK    2  A    between atoms: C_2  and  O_3
REMARK    3  A    between atoms: O_3  and  C_4
REMARK    4  A    between atoms: C_4  and  O_6
REMARK    5  A    between atoms: O_6  and  C_7
REMARK    6  A    between atoms: C_7  and  C_8
REMARK    7  A    between atoms: C_7  and  O_9
REMARK    8  A    between atoms: O_9  and  C_10
REMARK    9  A    between atoms: C_10  and  C_12
REMARK   10  A    between atoms: C_13  and  S_14
REMARK   11  A    between atoms: S_14  and  C_15
REMARK   12  A    between atoms: C_19  and  C_20
REMARK   13  A    between atoms: C_20  and  N_21
REMARK   14  A    between atoms: C_22  and  C_23
REMARK   15  A    between atoms: C_25  and  C_26
REMARK   16  A    between atoms: C_26  and  C_27
REMARK   17  A    between atoms: C_26  and  O_28
REMARK                            x       y       z     vdW  Elec       q    Type
REMARK                         _______ _______ _______ _____ _____    ______ ____
ROOT
ATOM      1  C   UNL     1       3.974   6.282  18.162  0.00  0.00    +0.000 C 
ATOM      2  C   UNL     1       2.759   6.696  18.566  0.00  0.00    +0.000 C 
ATOM      3  C   UNL     1       2.255   5.669  19.541  0.00  0.00    +0.000 C 
ATOM      4  C   UNL     1       1.557   6.214  20.685  0.00  0.00    +0.000 C 
ATOM      5  C   UNL     1       3.466   4.899  20.043  0.00  0.00    +0.000 C 
ATOM      6  C   UNL     1       3.465   3.366  19.836  0.00  0.00    +0.000 C 
ATOM      7  C   UNL     1       4.279   3.809  18.619  0.00  0.00    +0.000 C 
ATOM      8  O   UNL     1       4.248   3.373  17.513  0.00  0.00    +0.000 OA
ATOM      9  N   UNL     1       4.329   5.142  18.954  0.00  0.00    +0.000 N 
ENDROOT
BRANCH   1  10
ATOM     10  C   UNL     1       4.776   6.974  17.119  0.00  0.00    +0.000 C 
ATOM     11  O   UNL     1       4.433   6.876  15.956  0.00  0.00    +0.000 OA
BRANCH  10  12
ATOM     12  O   UNL     1       5.906   7.672  17.461  0.00  0.00    +0.000 OA
BRANCH  12  13
ATOM     13  C   UNL     1       7.214   7.178  17.533  0.00  0.00    +0.000 C 
ATOM     14  C   UNL     1       8.166   8.362  17.810  0.00  0.00    +0.000 C 
BRANCH  13  15
ATOM     15  O   UNL     1       7.624   6.477  16.379  0.00  0.00    +0.000 OA
BRANCH  15  16
ATOM     16  C   UNL     1       7.589   5.095  16.294  0.00  0.00    +0.000 C 
ATOM     17  O   UNL     1       7.697   4.433  17.321  0.00  0.00    +0.000 OA
BRANCH  16  18
ATOM     18  O   UNL     1       7.389   4.437  15.115  0.00  0.00    +0.000 OA
BRANCH  18  20
ATOM     19  C   UNL     1       6.115   3.708  13.111  0.00  0.00    +0.000 C 
ATOM     20  C   UNL     1       6.116   4.160  14.588  0.00  0.00    +0.000 C 
ENDBRANCH  18  20
ENDBRANCH  16  18
ENDBRANCH  15  16
ENDBRANCH  13  15
ENDBRANCH  12  13
ENDBRANCH  10  12
ENDBRANCH   1  10
BRANCH   6  21
ATOM     21  C   UNL     1       2.077   2.642  19.663  0.00  0.00    +0.000 C 
ATOM     22  C   UNL     1       1.238   2.762  20.927  0.00  0.00    +0.000 C 
BRANCH  21  23
ATOM     23  O   UNL     1       1.374   3.159  18.554  0.00  0.00    +0.000 OA
ATOM     24  H   UNL     1       0.612   3.710  18.874  0.00  0.00    +0.000 HD
ENDBRANCH  21  23
ENDBRANCH   6  21
BRANCH   2  25
ATOM     25  S   UNL     1       1.850   8.218  18.020  0.00  0.00    +0.000 S 
BRANCH  25  26
ATOM     26  C   UNL     1       1.451   9.528  19.338  0.00  0.00    +0.000 C 
ATOM     27  C   UNL     1       0.199   9.395  20.185  0.00  0.00    +0.000 C 
ATOM     28  C   UNL     1      -0.719  10.506  19.668  0.00  0.00    +0.000 C 
ATOM     29  O   UNL     1       0.062  11.395  18.850  0.00  0.00    +0.000 OA
ATOM     30  C   UNL     1       1.429  11.019  18.995  0.00  0.00    +0.000 C 
BRANCH  30  31
ATOM     31  C   UNL     1       2.365  11.368  17.803  0.00  0.00    +0.000 C 
BRANCH  31  32
ATOM     32  N   UNL     1       2.446  12.815  17.622  0.00  0.00    +0.000 NA
ATOM     33  H   UNL     1       3.367  13.044  17.185  0.00  0.00    +0.000 HD
ATOM     34  H   UNL     1       2.393  13.291  18.553  0.00  0.00    +0.000 HD
ENDBRANCH  31  32
ENDBRANCH  30  31
ENDBRANCH  25  26
ENDBRANCH   2  25
TORSDOF 13
ENDMDL
MODEL 2
REMARK VINA RESULT:      -7.1      1.472      1.632
REMARK  Name = 
REMARK  17 active torsions:
REMARK  status: ('A' for Active; 'I' for Inactive)
REMARK    1  A    between atoms: C_1  and  C_2
REMARK    2  A    between atoms: C_2  and  O_3
REMARK    3  A    between atoms: O_3  and  C_4
REMARK    4  A    between atoms: C_4  and  O_6
REMARK    5  A    between atoms: O_6  and  C_7
REMARK    6  A    between atoms: C_7  and  C_8
REMARK    7  A    between atoms: C_7  and  O_9
REMARK    8  A    between atoms: O_9  and  C_10
REMARK    9  A    between atoms: C_10  and  C_12
REMARK   10  A    between atoms: C_13  and  S_14
REMARK   11  A    between atoms: S_14  and  C_15
REMARK   12  A    between atoms: C_19  and  C_20
REMARK   13  A    between atoms: C_20  and  N_21
REMARK   14  A    between atoms: C_22  and  C_23
REMARK   15  A    between atoms: C_25  and  C_26
REMARK   16  A    between atoms: C_26  and  C_27
REMARK   17  A    between atoms: C_26  and  O_28
REMARK                            x       y       z     vdW  Elec       q    Type
REMARK                         _______ _______ _______ _____ _____    ______ ____
ROOT
ATOM      1  C   UNL     1       3.884   6.425  18.105  0.00  0.00    +0.000 C 
ATOM      2  C   UNL     1       2.823   7.063  18.633  0.00  0.00    +0.000 C 
ATOM      3  C   UNL     1       2.142   6.083  19.547  0.00  0.00    +0.000 C 
ATOM      4  C   UNL     1       1.652   6.651  20.785  0.00  0.00    +0.000 C 
ATOM      5  C   UNL     1       3.162   5.008  19.887  0.00  0.00    +0.000 C 
ATOM      6  C   UNL     1       2.788   3.545  19.545  0.00  0.00    +0.000 C 
ATOM      7  C   UNL     1       3.620   3.914  18.315  0.00  0.00    +0.000 C 
ATOM      8  O   UNL     1       3.430   3.614  17.180  0.00  0.00    +0.000 OA
ATOM      9  N   UNL     1       4.000   5.157  18.763  0.00  0.00    +0.000 N 
ENDROOT
BRANCH   1  10
ATOM     10  C   UNL     1       4.772   7.019  17.070  0.00  0.00    +0.000 C 
ATOM     11  O   UNL     1       4.512   6.829  15.897  0.00  0.00    +0.000 OA
BRANCH  10  12
ATOM     12  O   UNL     1       5.886   7.729  17.436  0.00  0.00    +0.000 OA
BRANCH  12  13
ATOM     13  C   UNL     1       7.137   7.212  17.792  0.00  0.00    +0.000 C 
ATOM     14  C   UNL     1       8.145   8.382  17.856  0.00  0.00    +0.000 C 
BRANCH  13  15
ATOM     15  O   UNL     1       7.607   6.205  16.924  0.00  0.00    +0.000 OA
BRANCH  15  16
ATOM     16  C   UNL     1       7.290   4.868  17.093  0.00  0.00    +0.000 C 
ATOM     17  O   UNL     1       7.403   4.365  18.205  0.00  0.00    +0.000 OA
BRANCH  16  18
ATOM     18  O   UNL     1       6.806   4.095  16.077  0.00  0.00    +0.000 OA
BRANCH  18  20
ATOM     19  C   UNL     1       5.623   3.982  13.895  0.00  0.00    +0.000 C 
ATOM     20  C   UNL     1       6.822   4.489  14.728  0.00  0.00    +0.000 C 
ENDBRANCH  18  20
ENDBRANCH  16  18
ENDBRANCH  15  16
ENDBRANCH  13  15
ENDBRANCH  12  13
ENDBRANCH  10  12
ENDBRANCH   1  10
BRANCH   6  21
ATOM     21  C   UNL     1       1.261   3.181  19.411  0.00  0.00    +0.000 C 
ATOM     22  C   UNL     1       1.077   1.875  18.653  0.00  0.00    +0.000 C 
BRANCH  21  23
ATOM     23  O   UNL     1       0.649   3.104  20.681  0.00  0.00    +0.000 OA
ATOM     24  H   UNL     1      -0.297   3.394  20.609  0.00  0.00    +0.000 HD
ENDBRANCH  21  23
ENDBRANCH   6  21
BRANCH   2  25
ATOM     25  S   UNL     1       2.272   8.801  18.294  0.00  0.00    +0.000 S 
BRANCH  25  26
ATOM     26  C   UNL     1       0.526   9.298  18.856  0.00  0.00    +0.000 C 
ATOM     27  C   UNL     1      -0.435   9.936  17.870  0.00  0.00    +0.000 C 
ATOM     28  C   UNL     1      -0.524  11.394  18.330  0.00  0.00    +0.000 C 
ATOM     29  O   UNL     1       0.054  11.492  19.643  0.00  0.00    +0.000 OA
ATOM     30  C   UNL     1       0.308  10.165  20.098  0.00  0.00    +0.000 C 
BRANCH  30  31
ATOM     31  C   UNL     1       1.450  10.006  21.142  0.00  0.00    +0.000 C 
BRANCH  31  32
ATOM     32  N   UNL     1       0.900   9.903  22.491  0.00  0.00    +0.000 NA
ATOM     33  H   UNL     1       0.653   8.905  22.673  0.00  0.00    +0.000 HD
ATOM     34  H   UNL     1       0.028  10.479  22.561  0.00  0.00    +0.000 HD
ENDBRANCH  31  32
ENDBRANCH  30  31
ENDBRANCH  25  26
ENDBRANCH   2  25
TORSDOF 13
ENDMDL
MODEL 3
REMARK VINA RESULT:      -6.8      2.457      6.729
REMARK  Name = 
REMARK  17 active torsions:
REMARK  status: ('A' for Active; 'I' for Inactive)
REMARK    1  A    between atoms: C_1  and  C_2
REMARK    2  A    between atoms: C_2  and  O_3
REMARK    3  A    between atoms: O_3  and  C_4
REMARK    4  A    between atoms: C_4  and  O_6
REMARK    5  A    between atoms: O_6  and  C_7
REMARK    6  A    between atoms: C_7  and  C_8
REMARK    7  A    between atoms: C_7  and  O_9
REMARK    8  A    between atoms: O_9  and  C_10
REMARK    9  A    between atoms: C_10  and  C_12
REMARK   10  A    between atoms: C_13  and  S_14
REMARK   11  A    between atoms: S_14  and  C_15
REMARK   12  A    between atoms: C_19  and  C_20
REMARK   13  A    between atoms: C_20  and  N_21
REMARK   14  A    between atoms: C_22  and  C_23
REMARK   15  A    between atoms: C_25  and  C_26
REMARK   16  A    between atoms: C_26  and  C_27
REMARK   17  A    between atoms: C_26  and  O_28
REMARK                            x       y       z     vdW  Elec       q    Type
REMARK                         _______ _______ _______ _____ _____    ______ ____
ROOT
ATOM      1  C   UNL     1       2.593   5.548  18.164  0.00  0.00    +0.000 C 
ATOM      2  C   UNL     1       3.161   4.452  17.627  0.00  0.00    +0.000 C 
ATOM      3  C   UNL     1       2.529   3.265  18.298  0.00  0.00    +0.000 C 
ATOM      4  C   UNL     1       2.250   2.151  17.418  0.00  0.00    +0.000 C 
ATOM      5  C   UNL     1       1.215   3.740  18.898  0.00  0.00    +0.000 C 
ATOM      6  C   UNL     1       1.022   3.547  20.421  0.00  0.00    +0.000 C 
ATOM      7  C   UNL     1       1.504   4.998  20.384  0.00  0.00    +0.000 C 
ATOM      8  O   UNL     1       2.241   5.549  21.137  0.00  0.00    +0.000 OA
ATOM      9  N   UNL     1       1.525   5.111  19.014  0.00  0.00    +0.000 N 
ENDROOT
BRANCH   1  10
ATOM     10  C   UNL     1       3.011   6.937  17.838  0.00  0.00    +0.000 C 
ATOM     11  O   UNL     1       4.192   7.222  17.897  0.00  0.00    +0.000 OA
BRANCH  10  12
ATOM     12  O   UNL     1       2.074   7.887  17.521  0.00  0.00    +0.000 OA
BRANCH  12  13
ATOM     13  C   UNL     1       1.507   8.834  18.383  0.00  0.00    +0.000 C 
ATOM     14  C   UNL     1       2.020  10.233  17.973  0.00  0.00    +0.000 C 
BRANCH  13  15
ATOM     15  O   UNL     1       1.770   8.594  19.748  0.00  0.00    +0.000 OA
BRANCH  15  16
ATOM     16  C   UNL     1       0.959   9.080  20.759  0.00  0.00    +0.000 C 
ATOM     17  O   UNL     1       0.250   8.296  21.381  0.00  0.00    +0.000 OA
BRANCH  16  18
ATOM     18  O   UNL     1       0.951  10.394  21.127  0.00  0.00    +0.000 OA
BRANCH  18  20
ATOM     19  C   UNL     1      -1.001  11.027  19.727  0.00  0.00    +0.000 C 
ATOM     20  C   UNL     1      -0.179  11.222  21.021  0.00  0.00    +0.000 C 
ENDBRANCH  18  20
ENDBRANCH  16  18
ENDBRANCH  15  16
ENDBRANCH  13  15
ENDBRANCH  12  13
ENDBRANCH  10  12
ENDBRANCH   1  10
BRANCH   6  21
ATOM     21  C   UNL     1       1.868   2.430  21.140  0.00  0.00    +0.000 C 
ATOM     22  C   UNL     1       3.352   2.762  21.101  0.00  0.00    +0.000 C 
BRANCH  21  23
ATOM     23  O   UNL     1       1.438   2.251  22.473  0.00  0.00    +0.000 OA
ATOM     24  H   UNL     1       0.575   1.762  22.479  0.00  0.00    +0.000 HD
ENDBRANCH  21  23
ENDBRANCH   6  21
BRANCH   2  25
ATOM     25  S   UNL     1       4.485   4.393  16.330  0.00  0.00    +0.000 S 
BRANCH  25  26
ATOM     26  C   UNL     1       6.293   4.431  16.912  0.00  0.00    +0.000 C 
ATOM     27  C   UNL     1       6.641   5.016  18.268  0.00  0.00    +0.000 C 
ATOM     28  C   UNL     1       7.350   6.332  17.935  0.00  0.00    +0.000 C 
ATOM     29  O   UNL     1       7.677   6.328  16.534  0.00  0.00    +0.000 OA
ATOM     30  C   UNL     1       7.398   5.023  16.034  0.00  0.00    +0.000 C 
BRANCH  30  31
ATOM     31  C   UNL     1       7.066   4.928  14.517  0.00  0.00    +0.000 C 
BRANCH  31  32
ATOM     32  N   UNL     1       8.103   5.583  13.724  0.00  0.00    +0.000 NA
ATOM     33  H   UNL     1       8.125   6.595  13.980  0.00  0.00    +0.000 HD
ATOM     34  H   UNL     1       7.870   5.504  12.705  0.00  0.00    +0.000 HD
ENDBRANCH  31  32
ENDBRANCH  30  31
ENDBRANCH  25  26
ENDBRANCH   2  25
TORSDOF 13
ENDMDL
MODEL 4
REMARK VINA RESULT:      -6.6      1.153      1.592
REMARK  Name = 
REMARK  17 active torsions:
REMARK  status: ('A' for Active; 'I' for Inactive)
REMARK    1  A    between atoms: C_1  and  C_2
REMARK    2  A    between atoms: C_2  and  O_3
REMARK    3  A    between atoms: O_3  and  C_4
REMARK    4  A    between atoms: C_4  and  O_6
REMARK    5  A    between atoms: O_6  and  C_7
REMARK    6  A    between atoms: C_7  and  C_8
REMARK    7  A    between atoms: C_7  and  O_9
REMARK    8  A    between atoms: O_9  and  C_10
REMARK    9  A    between atoms: C_10  and  C_12
REMARK   10  A    between atoms: C_13  and  S_14
REMARK   11  A    between atoms: S_14  and  C_15
REMARK   12  A    between atoms: C_19  and  C_20
REMARK   13  A    between atoms: C_20  and  N_21
REMARK   14  A    between atoms: C_22  and  C_23
REMARK   15  A    between atoms: C_25  and  C_26
REMARK   16  A    between atoms: C_26  and  C_27
REMARK   17  A    between atoms: C_26  and  O_28
REMARK                            x       y       z     vdW  Elec       q    Type
REMARK                         _______ _______ _______ _____ _____    ______ ____
ROOT
ATOM      1  C   UNL     1       4.040   5.840  18.367  0.00  0.00    +0.000 C 
ATOM      2  C   UNL     1       2.865   6.374  18.750  0.00  0.00    +0.000 C 
ATOM      3  C   UNL     1       2.290   5.450  19.786  0.00  0.00    +0.000 C 
ATOM      4  C   UNL     1       1.649   6.114  20.900  0.00  0.00    +0.000 C 
ATOM      5  C   UNL     1       3.440   4.615  20.328  0.00  0.00    +0.000 C 
ATOM      6  C   UNL     1       3.314   3.077  20.212  0.00  0.00    +0.000 C 
ATOM      7  C   UNL     1       4.150   3.382  18.967  0.00  0.00    +0.000 C 
ATOM      8  O   UNL     1       4.074   2.885  17.889  0.00  0.00    +0.000 OA
ATOM      9  N   UNL     1       4.310   4.723  19.223  0.00  0.00    +0.000 N 
ENDROOT
BRANCH   1  10
ATOM     10  C   UNL     1       4.885   6.403  17.280  0.00  0.00    +0.000 C 
ATOM     11  O   UNL     1       5.214   7.572  17.340  0.00  0.00    +0.000 OA
BRANCH  10  12
ATOM     12  O   UNL     1       5.247   5.626  16.210  0.00  0.00    +0.000 OA
BRANCH  12  13
ATOM     13  C   UNL     1       6.462   4.956  16.025  0.00  0.00    +0.000 C 
ATOM     14  C   UNL     1       7.211   4.928  17.377  0.00  0.00    +0.000 C 
BRANCH  13  15
ATOM     15  O   UNL     1       7.279   5.519  15.022  0.00  0.00    +0.000 OA
BRANCH  15  16
ATOM     16  C   UNL     1       7.354   4.996  13.743  0.00  0.00    +0.000 C 
ATOM     17  O   UNL     1       8.013   5.589  12.895  0.00  0.00    +0.000 OA
BRANCH  16  18
ATOM     18  O   UNL     1       6.762   3.815  13.396  0.00  0.00    +0.000 OA
BRANCH  18  20
ATOM     19  C   UNL     1       4.927   3.229  11.828  0.00  0.00    +0.000 C 
ATOM     20  C   UNL     1       6.433   3.472  12.074  0.00  0.00    +0.000 C 
ENDBRANCH  18  20
ENDBRANCH  16  18
ENDBRANCH  15  16
ENDBRANCH  13  15
ENDBRANCH  12  13
ENDBRANCH  10  12
ENDBRANCH   1  10
BRANCH   6  21
ATOM     21  C   UNL     1       1.871   2.458  20.088  0.00  0.00    +0.000 C 
ATOM     22  C   UNL     1       1.046   2.747  21.334  0.00  0.00    +0.000 C 
BRANCH  21  23
ATOM     23  O   UNL     1       1.212   2.943  18.938  0.00  0.00    +0.000 OA
ATOM     24  H   UNL     1       1.528   3.863  18.740  0.00  0.00    +0.000 HD
ENDBRANCH  21  23
ENDBRANCH   6  21
BRANCH   2  25
ATOM     25  S   UNL     1       2.077   7.929  18.120  0.00  0.00    +0.000 S 
BRANCH  25  26
ATOM     26  C   UNL     1       1.669   9.287  19.385  0.00  0.00    +0.000 C 
ATOM     27  C   UNL     1       0.525   9.094  20.363  0.00  0.00    +0.000 C 
ATOM     28  C   UNL     1      -0.551  10.067  19.872  0.00  0.00    +0.000 C 
ATOM     29  O   UNL     1       0.050  10.966  18.923  0.00  0.00    +0.000 OA
ATOM     30  C   UNL     1       1.457  10.739  18.951  0.00  0.00    +0.000 C 
BRANCH  30  31
ATOM     31  C   UNL     1       2.232  11.090  17.649  0.00  0.00    +0.000 C 
BRANCH  31  32
ATOM     32  N   UNL     1       2.730  12.462  17.703  0.00  0.00    +0.000 NA
ATOM     33  H   UNL     1       3.240  12.664  16.815  0.00  0.00    +0.000 HD
ATOM     34  H   UNL     1       3.400  12.563  18.501  0.00  0.00    +0.000 HD
ENDBRANCH  31  32
ENDBRANCH  30  31
ENDBRANCH  25  26
ENDBRANCH   2  25
TORSDOF 13
ENDMDL
MODEL 5
REMARK VINA RESULT:      -6.6      1.069      1.425
REMARK  Name = 
REMARK  17 active torsions:
REMARK  status: ('A' for Active; 'I' for Inactive)
REMARK    1  A    between atoms: C_1  and  C_2
REMARK    2  A    between atoms: C_2  and  O_3
REMARK    3  A    between atoms: O_3  and  C_4
REMARK    4  A    between atoms: C_4  and  O_6
REMARK    5  A    between atoms: O_6  and  C_7
REMARK    6  A    between atoms: C_7  and  C_8
REMARK    7  A    between atoms: C_7  and  O_9
REMARK    8  A    between atoms: O_9  and  C_10
REMARK    9  A    between atoms: C_10  and  C_12
REMARK   10  A    between atoms: C_13  and  S_14
REMARK   11  A    between atoms: S_14  and  C_15
REMARK   12  A    between atoms: C_19  and  C_20
REMARK   13  A    between atoms: C_20  and  N_21
REMARK   14  A    between atoms: C_22  and  C_23
REMARK   15  A    between atoms: C_25  and  C_26
REMARK   16  A    between atoms: C_26  and  C_27
REMARK   17  A    between atoms: C_26  and  O_28
REMARK                            x       y       z     vdW  Elec       q    Type
REMARK                         _______ _______ _______ _____ _____    ______ ____
ROOT
ATOM      1  C   UNL     1       3.564   6.373  18.070  0.00  0.00    +0.000 C 
ATOM      2  C   UNL     1       2.557   7.094  18.597  0.00  0.00    +0.000 C 
ATOM      3  C   UNL     1       1.993   6.284  19.730  0.00  0.00    +0.000 C 
ATOM      4  C   UNL     1       1.631   7.052  20.902  0.00  0.00    +0.000 C 
ATOM      5  C   UNL     1       3.059   5.276  20.132  0.00  0.00    +0.000 C 
ATOM      6  C   UNL     1       2.672   3.778  20.081  0.00  0.00    +0.000 C 
ATOM      7  C   UNL     1       3.360   3.934  18.723  0.00  0.00    +0.000 C 
ATOM      8  O   UNL     1       3.054   3.449  17.682  0.00  0.00    +0.000 OA
ATOM      9  N   UNL     1       3.769   5.232  18.914  0.00  0.00    +0.000 N 
ENDROOT
BRANCH   1  10
ATOM     10  C   UNL     1       4.326   6.782  16.861  0.00  0.00    +0.000 C 
ATOM     11  O   UNL     1       4.064   7.848  16.337  0.00  0.00    +0.000 OA
BRANCH  10  12
ATOM     12  O   UNL     1       5.275   5.950  16.324  0.00  0.00    +0.000 OA
BRANCH  12  13
ATOM     13  C   UNL     1       6.410   5.440  16.964  0.00  0.00    +0.000 C 
ATOM     14  C   UNL     1       7.271   6.630  17.447  0.00  0.00    +0.000 C 
BRANCH  13  15
ATOM     15  O   UNL     1       7.179   4.572  16.159  0.00  0.00    +0.000 OA
BRANCH  15  16
ATOM     16  C   UNL     1       7.141   4.610  14.776  0.00  0.00    +0.000 C 
ATOM     17  O   UNL     1       7.811   5.450  14.185  0.00  0.00    +0.000 OA
BRANCH  16  18
ATOM     18  O   UNL     1       6.422   3.715  14.037  0.00  0.00    +0.000 OA
BRANCH  18  20
ATOM     19  C   UNL     1       5.711   2.598  11.935  0.00  0.00    +0.000 C 
ATOM     20  C   UNL     1       6.140   3.887  12.671  0.00  0.00    +0.000 C 
ENDBRANCH  18  20
ENDBRANCH  16  18
ENDBRANCH  15  16
ENDBRANCH  13  15
ENDBRANCH  12  13
ENDBRANCH  10  12
ENDBRANCH   1  10
BRANCH   6  21
ATOM     21  C   UNL     1       1.145   3.403  20.177  0.00  0.00    +0.000 C 
ATOM     22  C   UNL     1       0.739   2.480  19.037  0.00  0.00    +0.000 C 
BRANCH  21  23
ATOM     23  O   UNL     1       0.849   2.809  21.422  0.00  0.00    +0.000 OA
ATOM     24  H   UNL     1       0.774   1.826  21.309  0.00  0.00    +0.000 HD
ENDBRANCH  21  23
ENDBRANCH   6  21
BRANCH   2  25
ATOM     25  S   UNL     1       1.948   8.753  18.036  0.00  0.00    +0.000 S 
BRANCH  25  26
ATOM     26  C   UNL     1       1.206   9.910  19.347  0.00  0.00    +0.000 C 
ATOM     27  C   UNL     1      -0.215   9.692  19.836  0.00  0.00    +0.000 C 
ATOM     28  C   UNL     1      -0.998  10.860  19.230  0.00  0.00    +0.000 C 
ATOM     29  O   UNL     1      -0.058  11.830  18.735  0.00  0.00    +0.000 OA
ATOM     30  C   UNL     1       1.238  11.430  19.175  0.00  0.00    +0.000 C 
BRANCH  30  31
ATOM     31  C   UNL     1       2.433  11.904  18.300  0.00  0.00    +0.000 C 
BRANCH  31  32
ATOM     32  N   UNL     1       2.017  12.976  17.399  0.00  0.00    +0.000 NA
ATOM     33  H   UNL     1       2.771  13.127  16.693  0.00  0.00    +0.000 HD
ATOM     34  H   UNL     1       1.888  13.862  17.942  0.00  0.00    +0.000 HD
ENDBRANCH  31  32
ENDBRANCH  30  31
ENDBRANCH  25  26
ENDBRANCH   2  25
TORSDOF 13
ENDMDL
MODEL 6
REMARK VINA RESULT:      -6.6      1.861      2.466
REMARK  Name = 
REMARK  17 active torsions:
REMARK  status: ('A' for Active; 'I' for Inactive)
REMARK    1  A    between atoms: C_1  and  C_2
REMARK    2  A    between atoms: C_2  and  O_3
REMARK    3  A    between atoms: O_3  and  C_4
REMARK    4  A    between atoms: C_4  and  O_6
REMARK    5  A    between atoms: O_6  and  C_7
REMARK    6  A    between atoms: C_7  and  C_8
REMARK    7  A    between atoms: C_7  and  O_9
REMARK    8  A    between atoms: O_9  and  C_10
REMARK    9  A    between atoms: C_10  and  C_12
REMARK   10  A    between atoms: C_13  and  S_14
REMARK   11  A    between atoms: S_14  and  C_15
REMARK   12  A    between atoms: C_19  and  C_20
REMARK   13  A    between atoms: C_20  and  N_21
REMARK   14  A    between atoms: C_22  and  C_23
REMARK   15  A    between atoms: C_25  and  C_26
REMARK   16  A    between atoms: C_26  and  C_27
REMARK   17  A    between atoms: C_26  and  O_28
REMARK                            x       y       z     vdW  Elec       q    Type
REMARK                         _______ _______ _______ _____ _____    ______ ____
ROOT
ATOM      1  C   UNL     1       4.763   4.984  19.211  0.00  0.00    +0.000 C 
ATOM      2  C   UNL     1       3.633   5.690  19.398  0.00  0.00    +0.000 C 
ATOM      3  C   UNL     1       2.523   4.691  19.570  0.00  0.00    +0.000 C 
ATOM      4  C   UNL     1       1.549   5.038  20.583  0.00  0.00    +0.000 C 
ATOM      5  C   UNL     1       3.169   3.371  19.963  0.00  0.00    +0.000 C 
ATOM      6  C   UNL     1       2.889   2.150  19.054  0.00  0.00    +0.000 C 
ATOM      7  C   UNL     1       4.233   2.614  18.489  0.00  0.00    +0.000 C 
ATOM      8  O   UNL     1       4.585   2.643  17.354  0.00  0.00    +0.000 OA
ATOM      9  N   UNL     1       4.451   3.601  19.422  0.00  0.00    +0.000 N 
ENDROOT
BRANCH   1  10
ATOM     10  C   UNL     1       6.081   5.602  18.906  0.00  0.00    +0.000 C 
ATOM     11  O   UNL     1       7.053   5.256  19.550  0.00  0.00    +0.000 OA
BRANCH  10  12
ATOM     12  O   UNL     1       6.185   6.576  17.946  0.00  0.00    +0.000 OA
BRANCH  12  13
ATOM     13  C   UNL     1       6.216   6.394  16.559  0.00  0.00    +0.000 C 
ATOM     14  C   UNL     1       4.827   6.759  15.989  0.00  0.00    +0.000 C 
BRANCH  13  15
ATOM     15  O   UNL     1       6.583   5.090  16.162  0.00  0.00    +0.000 OA
BRANCH  15  16
ATOM     16  C   UNL     1       6.920   4.776  14.856  0.00  0.00    +0.000 C 
ATOM     17  O   UNL     1       7.864   5.354  14.329  0.00  0.00    +0.000 OA
BRANCH  16  18
ATOM     18  O   UNL     1       6.270   3.810  14.143  0.00  0.00    +0.000 OA
BRANCH  18  20
ATOM     19  C   UNL     1       5.100   3.197  12.039  0.00  0.00    +0.000 C 
ATOM     20  C   UNL     1       6.391   3.661  12.751  0.00  0.00    +0.000 C 
ENDBRANCH  18  20
ENDBRANCH  16  18
ENDBRANCH  15  16
ENDBRANCH  13  15
ENDBRANCH  12  13
ENDBRANCH  10  12
ENDBRANCH   1  10
BRANCH   6  21
ATOM     21  C   UNL     1       1.588   2.167  18.167  0.00  0.00    +0.000 C 
ATOM     22  C   UNL     1       0.341   2.277  19.033  0.00  0.00    +0.000 C 
BRANCH  21  23
ATOM     23  O   UNL     1       1.631   3.222  17.230  0.00  0.00    +0.000 OA
ATOM     24  H   UNL     1       1.108   3.991  17.574  0.00  0.00    +0.000 HD
ENDBRANCH  21  23
ENDBRANCH   6  21
BRANCH   2  25
ATOM     25  S   UNL     1       3.450   7.535  19.417  0.00  0.00    +0.000 S 
BRANCH  25  26
ATOM     26  C   UNL     1       1.727   8.255  19.061  0.00  0.00    +0.000 C 
ATOM     27  C   UNL     1       1.511   9.141  17.848  0.00  0.00    +0.000 C 
ATOM     28  C   UNL     1       1.311  10.539  18.441  0.00  0.00    +0.000 C 
ATOM     29  O   UNL     1       1.092  10.404  19.856  0.00  0.00    +0.000 OA
ATOM     30  C   UNL     1       0.946   9.014  20.135  0.00  0.00    +0.000 C 
BRANCH  30  31
ATOM     31  C   UNL     1       1.322   8.562  21.575  0.00  0.00    +0.000 C 
BRANCH  31  32
ATOM     32  N   UNL     1       1.154   9.663  22.519  0.00  0.00    +0.000 NA
ATOM     33  H   UNL     1       0.141   9.913  22.559  0.00  0.00    +0.000 HD
ATOM     34  H   UNL     1       1.689  10.499  22.184  0.00  0.00    +0.000 HD
ENDBRANCH  31  32
ENDBRANCH  30  31
ENDBRANCH  25  26
ENDBRANCH   2  25
TORSDOF 13
ENDMDL
MODEL 7
REMARK VINA RESULT:      -6.5      1.256      1.624
REMARK  Name = 
REMARK  17 active torsions:
REMARK  status: ('A' for Active; 'I' for Inactive)
REMARK    1  A    between atoms: C_1  and  C_2
REMARK    2  A    between atoms: C_2  and  O_3
REMARK    3  A    between atoms: O_3  and  C_4
REMARK    4  A    between atoms: C_4  and  O_6
REMARK    5  A    between atoms: O_6  and  C_7
REMARK    6  A    between atoms: C_7  and  C_8
REMARK    7  A    between atoms: C_7  and  O_9
REMARK    8  A    between atoms: O_9  and  C_10
REMARK    9  A    between atoms: C_10  and  C_12
REMARK   10  A    between atoms: C_13  and  S_14
REMARK   11  A    between atoms: S_14  and  C_15
REMARK   12  A    between atoms: C_19  and  C_20
REMARK   13  A    between atoms: C_20  and  N_21
REMARK   14  A    between atoms: C_22  and  C_23
REMARK   15  A    between atoms: C_25  and  C_26
REMARK   16  A    between atoms: C_26  and  C_27
REMARK   17  A    between atoms: C_26  and  O_28
REMARK                            x       y       z     vdW  Elec       q    Type
REMARK                         _______ _______ _______ _____ _____    ______ ____
ROOT
ATOM      1  C   UNL     1       3.854   5.818  18.086  0.00  0.00    +0.000 C 
ATOM      2  C   UNL     1       2.678   6.211  18.609  0.00  0.00    +0.000 C 
ATOM      3  C   UNL     1       2.216   5.103  19.515  0.00  0.00    +0.000 C 
ATOM      4  C   UNL     1       1.610   5.546  20.751  0.00  0.00    +0.000 C 
ATOM      5  C   UNL     1       3.441   4.268  19.857  0.00  0.00    +0.000 C 
ATOM      6  C   UNL     1       3.390   2.762  19.506  0.00  0.00    +0.000 C 
ATOM      7  C   UNL     1       4.131   3.307  18.283  0.00  0.00    +0.000 C 
ATOM      8  O   UNL     1       4.017   2.980  17.146  0.00  0.00    +0.000 OA
ATOM      9  N   UNL     1       4.235   4.600  18.740  0.00  0.00    +0.000 N 
ENDROOT
BRANCH   1  10
ATOM     10  C   UNL     1       4.600   6.593  17.060  0.00  0.00    +0.000 C 
ATOM     11  O   UNL     1       4.280   7.748  16.852  0.00  0.00    +0.000 OA
BRANCH  10  12
ATOM     12  O   UNL     1       5.599   6.000  16.332  0.00  0.00    +0.000 OA
BRANCH  12  13
ATOM     13  C   UNL     1       6.788   5.449  16.824  0.00  0.00    +0.000 C 
ATOM     14  C   UNL     1       7.591   6.570  17.521  0.00  0.00    +0.000 C 
BRANCH  13  15
ATOM     15  O   UNL     1       7.577   4.820  15.837  0.00  0.00    +0.000 OA
BRANCH  15  16
ATOM     16  C   UNL     1       7.251   4.848  14.492  0.00  0.00    +0.000 C 
ATOM     17  O   UNL     1       7.844   5.625  13.752  0.00  0.00    +0.000 OA
BRANCH  16  18
ATOM     18  O   UNL     1       6.324   4.009  13.944  0.00  0.00    +0.000 OA
BRANCH  18  20
ATOM     19  C   UNL     1       4.980   3.275  11.989  0.00  0.00    +0.000 C 
ATOM     20  C   UNL     1       6.363   3.579  12.607  0.00  0.00    +0.000 C 
ENDBRANCH  18  20
ENDBRANCH  16  18
ENDBRANCH  15  16
ENDBRANCH  13  15
ENDBRANCH  12  13
ENDBRANCH  10  12
ENDBRANCH   1  10
BRANCH   6  21
ATOM     21  C   UNL     1       1.977   2.081  19.361  0.00  0.00    +0.000 C 
ATOM     22  C   UNL     1       1.133   2.307  20.606  0.00  0.00    +0.000 C 
BRANCH  21  23
ATOM     23  O   UNL     1       1.303   2.558  18.216  0.00  0.00    +0.000 OA
ATOM     24  H   UNL     1       1.483   3.529  18.108  0.00  0.00    +0.000 HD
ENDBRANCH  21  23
ENDBRANCH   6  21
BRANCH   2  25
ATOM     25  S   UNL     1       1.770   7.793  18.274  0.00  0.00    +0.000 S 
BRANCH  25  26
ATOM     26  C   UNL     1       1.571   9.017  19.714  0.00  0.00    +0.000 C 
ATOM     27  C   UNL     1       1.426   8.502  21.134  0.00  0.00    +0.000 C 
ATOM     28  C   UNL     1      -0.038   8.784  21.483  0.00  0.00    +0.000 C 
ATOM     29  O   UNL     1      -0.577   9.677  20.493  0.00  0.00    +0.000 OA
ATOM     30  C   UNL     1       0.508  10.117  19.679  0.00  0.00    +0.000 C 
BRANCH  30  31
ATOM     31  C   UNL     1       0.145  10.549  18.229  0.00  0.00    +0.000 C 
BRANCH  31  32
ATOM     32  N   UNL     1      -0.367  11.916  18.214  0.00  0.00    +0.000 NA
ATOM     33  H   UNL     1       0.444  12.574  18.220  0.00  0.00    +0.000 HD
ATOM     34  H   UNL     1      -0.939  12.088  19.075  0.00  0.00    +0.000 HD
ENDBRANCH  31  32
ENDBRANCH  30  31
ENDBRANCH  25  26
ENDBRANCH   2  25
TORSDOF 13
ENDMDL
MODEL 8
REMARK VINA RESULT:      -6.5      1.547      1.691
REMARK  Name = 
REMARK  17 active torsions:
REMARK  status: ('A' for Active; 'I' for Inactive)
REMARK    1  A    between atoms: C_1  and  C_2
REMARK    2  A    between atoms: C_2  and  O_3
REMARK    3  A    between atoms: O_3  and  C_4
REMARK    4  A    between atoms: C_4  and  O_6
REMARK    5  A    between atoms: O_6  and  C_7
REMARK    6  A    between atoms: C_7  and  C_8
REMARK    7  A    between atoms: C_7  and  O_9
REMARK    8  A    between atoms: O_9  and  C_10
REMARK    9  A    between atoms: C_10  and  C_12
REMARK   10  A    between atoms: C_13  and  S_14
REMARK   11  A    between atoms: S_14  and  C_15
REMARK   12  A    between atoms: C_19  and  C_20
REMARK   13  A    between atoms: C_20  and  N_21
REMARK   14  A    between atoms: C_22  and  C_23
REMARK   15  A    between atoms: C_25  and  C_26
REMARK   16  A    between atoms: C_26  and  C_27
REMARK   17  A    between atoms: C_26  and  O_28
REMARK                            x       y       z     vdW  Elec       q    Type
REMARK                         _______ _______ _______ _____ _____    ______ ____
ROOT
ATOM      1  C   UNL     1       3.948   6.267  17.889  0.00  0.00    +0.000 C 
ATOM      2  C   UNL     1       2.881   6.801  18.510  0.00  0.00    +0.000 C 
ATOM      3  C   UNL     1       2.242   5.693  19.300  0.00  0.00    +0.000 C 
ATOM      4  C   UNL     1       1.760   6.083  20.608  0.00  0.00    +0.000 C 
ATOM      5  C   UNL     1       3.295   4.612  19.483  0.00  0.00    +0.000 C 
ATOM      6  C   UNL     1       2.954   3.196  18.959  0.00  0.00    +0.000 C 
ATOM      7  C   UNL     1       3.753   3.744  17.776  0.00  0.00    +0.000 C 
ATOM      8  O   UNL     1       3.551   3.588  16.614  0.00  0.00    +0.000 OA
ATOM      9  N   UNL     1       4.109   4.929  18.376  0.00  0.00    +0.000 N 
ENDROOT
BRANCH   1  10
ATOM     10  C   UNL     1       4.801   7.014  16.927  0.00  0.00    +0.000 C 
ATOM     11  O   UNL     1       4.382   7.209  15.802  0.00  0.00    +0.000 OA
BRANCH  10  12
ATOM     12  O   UNL     1       6.054   7.435  17.292  0.00  0.00    +0.000 OA
BRANCH  12  13
ATOM     13  C   UNL     1       7.171   6.633  17.555  0.00  0.00    +0.000 C 
ATOM     14  C   UNL     1       8.208   7.481  18.324  0.00  0.00    +0.000 C 
BRANCH  13  15
ATOM     15  O   UNL     1       7.755   6.070  16.400  0.00  0.00    +0.000 OA
BRANCH  15  16
ATOM     16  C   UNL     1       7.116   5.110  15.634  0.00  0.00    +0.000 C 
ATOM     17  O   UNL     1       6.876   4.015  16.131  0.00  0.00    +0.000 OA
BRANCH  16  18
ATOM     18  O   UNL     1       6.697   5.350  14.357  0.00  0.00    +0.000 OA
BRANCH  18  20
ATOM     19  C   UNL     1       6.048   3.562  12.759  0.00  0.00    +0.000 C 
ATOM     20  C   UNL     1       7.100   4.580  13.252  0.00  0.00    +0.000 C 
ENDBRANCH  18  20
ENDBRANCH  16  18
ENDBRANCH  15  16
ENDBRANCH  13  15
ENDBRANCH  12  13
ENDBRANCH  10  12
ENDBRANCH   1  10
BRANCH   6  21
ATOM     21  C   UNL     1       1.435   2.810  18.802  0.00  0.00    +0.000 C 
ATOM     22  C   UNL     1       0.708   2.909  20.135  0.00  0.00    +0.000 C 
BRANCH  21  23
ATOM     23  O   UNL     1       0.805   3.623  17.836  0.00  0.00    +0.000 OA
ATOM     24  H   UNL     1      -0.075   3.232  17.598  0.00  0.00    +0.000 HD
ENDBRANCH  21  23
ENDBRANCH   6  21
BRANCH   2  25
ATOM     25  S   UNL     1       2.279   8.552  18.408  0.00  0.00    +0.000 S 
BRANCH  25  26
ATOM     26  C   UNL     1       0.508   8.912  18.997  0.00  0.00    +0.000 C 
ATOM     27  C   UNL     1      -0.458   9.650  18.089  0.00  0.00    +0.000 C 
ATOM     28  C   UNL     1      -0.604  11.027  18.743  0.00  0.00    +0.000 C 
ATOM     29  O   UNL     1      -0.049  10.961  20.069  0.00  0.00    +0.000 OA
ATOM     30  C   UNL     1       0.242   9.593  20.342  0.00  0.00    +0.000 C 
BRANCH  30  31
ATOM     31  C   UNL     1       1.372   9.327  21.377  0.00  0.00    +0.000 C 
BRANCH  31  32
ATOM     32  N   UNL     1       0.912   9.634  22.728  0.00  0.00    +0.000 NA
ATOM     33  H   UNL     1      -0.116   9.817  22.695  0.00  0.00    +0.000 HD
ATOM     34  H   UNL     1       1.391  10.498  23.076  0.00  0.00    +0.000 HD
ENDBRANCH  31  32
ENDBRANCH  30  31
ENDBRANCH  25  26
ENDBRANCH   2  25
TORSDOF 13
ENDMDL
MODEL 9
REMARK VINA RESULT:      -6.5      2.488      7.194
REMARK  Name = 
REMARK  17 active torsions:
REMARK  status: ('A' for Active; 'I' for Inactive)
REMARK    1  A    between atoms: C_1  and  C_2
REMARK    2  A    between atoms: C_2  and  O_3
REMARK    3  A    between atoms: O_3  and  C_4
REMARK    4  A    between atoms: C_4  and  O_6
REMARK    5  A    between atoms: O_6  and  C_7
REMARK    6  A    between atoms: C_7  and  C_8
REMARK    7  A    between atoms: C_7  and  O_9
REMARK    8  A    between atoms: O_9  and  C_10
REMARK    9  A    between atoms: C_10  and  C_12
REMARK   10  A    between atoms: C_13  and  S_14
REMARK   11  A    between atoms: S_14  and  C_15
REMARK   12  A    between atoms: C_19  and  C_20
REMARK   13  A    between atoms: C_20  and  N_21
REMARK   14  A    between atoms: C_22  and  C_23
REMARK   15  A    between atoms: C_25  and  C_26
REMARK   16  A    between atoms: C_26  and  C_27
REMARK   17  A    between atoms: C_26  and  O_28
REMARK                            x       y       z     vdW  Elec       q    Type
REMARK                         _______ _______ _______ _____ _____    ______ ____
ROOT
ATOM      1  C   UNL     1       2.564   6.247  18.627  0.00  0.00    +0.000 C 
ATOM      2  C   UNL     1       3.611   5.901  17.856  0.00  0.00    +0.000 C 
ATOM      3  C   UNL     1       3.605   4.400  17.770  0.00  0.00    +0.000 C 
ATOM      4  C   UNL     1       3.934   3.868  16.465  0.00  0.00    +0.000 C 
ATOM      5  C   UNL     1       2.203   3.938  18.134  0.00  0.00    +0.000 C 
ATOM      6  C   UNL     1       2.068   2.955  19.322  0.00  0.00    +0.000 C 
ATOM      7  C   UNL     1       1.790   4.283  20.028  0.00  0.00    +0.000 C 
ATOM      8  O   UNL     1       2.139   4.630  21.111  0.00  0.00    +0.000 OA
ATOM      9  N   UNL     1       1.807   5.059  18.893  0.00  0.00    +0.000 N 
ENDROOT
BRANCH   1  10
ATOM     10  C   UNL     1       2.271   7.646  19.039  0.00  0.00    +0.000 C 
ATOM     11  O   UNL     1       2.563   8.552  18.283  0.00  0.00    +0.000 OA
BRANCH  10  12
ATOM     12  O   UNL     1       1.722   7.907  20.268  0.00  0.00    +0.000 OA
BRANCH  12  13
ATOM     13  C   UNL     1       1.214   9.128  20.724  0.00  0.00    +0.000 C 
ATOM     14  C   UNL     1       1.251   9.125  22.269  0.00  0.00    +0.000 C 
BRANCH  13  15
ATOM     15  O   UNL     1      -0.090   9.412  20.264  0.00  0.00    +0.000 OA
BRANCH  15  16
ATOM     16  C   UNL     1      -0.351  10.393  19.323  0.00  0.00    +0.000 C 
ATOM     17  O   UNL     1       0.582  11.048  18.872  0.00  0.00    +0.000 OA
BRANCH  16  18
ATOM     18  O   UNL     1      -1.605  10.629  18.837  0.00  0.00    +0.000 OA
BRANCH  18  20
ATOM     19  C   UNL     1      -2.278  12.387  20.458  0.00  0.00    +0.000 C 
ATOM     20  C   UNL     1      -2.287  11.846  19.011  0.00  0.00    +0.000 C 
ENDBRANCH  18  20
ENDBRANCH  16  18
ENDBRANCH  15  16
ENDBRANCH  13  15
ENDBRANCH  12  13
ENDBRANCH  10  12
ENDBRANCH   1  10
BRANCH   6  21
ATOM     21  C   UNL     1       3.320   2.079  19.706  0.00  0.00    +0.000 C 
ATOM     22  C   UNL     1       3.704   1.150  18.565  0.00  0.00    +0.000 C 
BRANCH  21  23
ATOM     23  O   UNL     1       4.413   2.895  20.067  0.00  0.00    +0.000 OA
ATOM     24  H   UNL     1       5.134   2.331  20.450  0.00  0.00    +0.000 HD
ENDBRANCH  21  23
ENDBRANCH   6  21
BRANCH   2  25
ATOM     25  S   UNL     1       4.848   7.032  17.064  0.00  0.00    +0.000 S 
BRANCH  25  26
ATOM     26  C   UNL     1       6.608   6.366  16.797  0.00  0.00    +0.000 C 
ATOM     27  C   UNL     1       6.965   5.663  15.501  0.00  0.00    +0.000 C 
ATOM     28  C   UNL     1       7.118   4.194  15.905  0.00  0.00    +0.000 C 
ATOM     29  O   UNL     1       7.181   4.123  17.341  0.00  0.00    +0.000 OA
ATOM     30  C   UNL     1       7.279   5.459  17.830  0.00  0.00    +0.000 C 
BRANCH  30  31
ATOM     31  C   UNL     1       6.744   5.700  19.271  0.00  0.00    +0.000 C 
BRANCH  31  32
ATOM     32  N   UNL     1       7.805   5.496  20.253  0.00  0.00    +0.000 NA
ATOM     33  H   UNL     1       8.726   5.561  19.764  0.00  0.00    +0.000 HD
ATOM     34  H   UNL     1       7.719   4.539  20.671  0.00  0.00    +0.000 HD
ENDBRANCH  31  32
ENDBRANCH  30  31
ENDBRANCH  25  26
ENDBRANCH   2  25
TORSDOF 13
ENDMDL
