MODEL 1
REMARK VINA RESULT:      -8.8      0.000      0.000
REMARK  Name = 
REMARK  5 active torsions:
REMARK  status: ('A' for Active; 'I' for Inactive)
REMARK    1  A    between atoms: C_1  and  C_2
REMARK    2  A    between atoms: C_2  and  C_22
REMARK    3  A    between atoms: N_3  and  N_4
REMARK    4  A    between atoms: C_5  and  C_7
REMARK    5  A    between atoms: C_9  and  C_10
REMARK                            x       y       z     vdW  Elec       q    Type
REMARK                         _______ _______ _______ _____ _____    ______ ____
ROOT
ATOM      1  C   UNL     1       2.798   6.223  18.665  0.00  0.00    +0.000 A 
ATOM      2  C   UNL     1       3.762   6.161  17.651  0.00  0.00    +0.000 A 
ATOM      3  C   UNL     1       4.340   4.945  17.344  0.00  0.00    +0.000 A 
ATOM      4  N   UNL     1       3.995   3.806  17.978  0.00  0.00    +0.000 NA
ATOM      5  C   UNL     1       3.049   3.844  18.933  0.00  0.00    +0.000 A 
ATOM      6  C   UNL     1       2.709   2.645  19.543  0.00  0.00    +0.000 A 
ATOM      7  C   UNL     1       1.723   2.567  20.527  0.00  0.00    +0.000 A 
ATOM      8  C   UNL     1       1.063   3.717  20.923  0.00  0.00    +0.000 A 
ATOM      9  C   UNL     1       1.400   4.940  20.337  0.00  0.00    +0.000 A 
ATOM     10  C   UNL     1       2.396   5.034  19.327  0.00  0.00    +0.000 A 
ENDROOT
BRANCH   3  11
ATOM     11  C   UNL     1       5.317   4.781  16.258  0.00  0.00    +0.000 A 
ATOM     12  C   UNL     1       5.109   4.282  14.984  0.00  0.00    +0.000 A 
ATOM     13  C   UNL     1       6.274   4.346  14.165  0.00  0.00    +0.000 A 
ATOM     14  C   UNL     1       7.355   4.851  14.849  0.00  0.00    +0.000 A 
ATOM     15  S   UNL     1       6.967   5.227  16.468  0.00  0.00    +0.000 S 
ENDBRANCH   3  11
BRANCH   1  17
ATOM     16  N   UNL     1       2.051   7.859  20.311  0.00  0.00    +0.000 N 
ATOM     17  C   UNL     1       2.197   7.566  18.957  0.00  0.00    +0.000 C 
ATOM     18  O   UNL     1       1.897   8.324  18.042  0.00  0.00    +0.000 OA
ATOM     19  H   UNL     1       2.243   7.153  21.006  0.00  0.00    +0.000 HD
BRANCH  16  22
ATOM     20  C   UNL     1      -0.446   8.093  21.745  0.00  0.00    +0.000 C 
ATOM     21  C   UNL     1       0.490   9.220  21.347  0.00  0.00    +0.000 C 
ATOM     22  N   UNL     1       1.619   9.088  20.706  0.00  0.00    +0.000 NA
BRANCH  21  23
ATOM     23  C   UNL     1       0.052  10.595  21.769  0.00  0.00    +0.000 A 
ATOM     24  C   UNL     1      -0.981  10.764  22.684  0.00  0.00    +0.000 A 
ATOM     25  C   UNL     1      -1.350  12.062  23.031  0.00  0.00    +0.000 A 
ATOM     26  C   UNL     1      -0.683  13.140  22.457  0.00  0.00    +0.000 A 
ATOM     27  C   UNL     1       0.334  12.877  21.555  0.00  0.00    +0.000 A 
ATOM     28  N   UNL     1       0.717  11.632  21.197  0.00  0.00    +0.000 NA
ENDBRANCH  21  23
ENDBRANCH  16  22
ENDBRANCH   1  17
TORSDOF 4
ENDMDL
MODEL 2
REMARK VINA RESULT:      -8.7      5.205      7.740
REMARK  Name = 
REMARK  5 active torsions:
REMARK  status: ('A' for Active; 'I' for Inactive)
REMARK    1  A    between atoms: C_1  and  C_2
REMARK    2  A    between atoms: C_2  and  C_22
REMARK    3  A    between atoms: N_3  and  N_4
REMARK    4  A    between atoms: C_5  and  C_7
REMARK    5  A    between atoms: C_9  and  C_10
REMARK                            x       y       z     vdW  Elec       q    Type
REMARK                         _______ _______ _______ _____ _____    ______ ____
ROOT
ATOM      1  C   UNL     1       6.388   5.591  18.003  0.00  0.00    +0.000 A 
ATOM      2  C   UNL     1       5.342   5.292  18.886  0.00  0.00    +0.000 A 
ATOM      3  C   UNL     1       4.250   4.585  18.422  0.00  0.00    +0.000 A 
ATOM      4  N   UNL     1       4.162   4.156  17.147  0.00  0.00    +0.000 NA
ATOM      5  C   UNL     1       5.171   4.409  16.296  0.00  0.00    +0.000 A 
ATOM      6  C   UNL     1       5.049   3.928  14.999  0.00  0.00    +0.000 A 
ATOM      7  C   UNL     1       6.047   4.112  14.042  0.00  0.00    +0.000 A 
ATOM      8  C   UNL     1       7.197   4.802  14.383  0.00  0.00    +0.000 A 
ATOM      9  C   UNL     1       7.337   5.312  15.676  0.00  0.00    +0.000 A 
ATOM     10  C   UNL     1       6.332   5.125  16.664  0.00  0.00    +0.000 A 
ENDROOT
BRANCH   3  11
ATOM     11  C   UNL     1       3.137   4.181  19.293  0.00  0.00    +0.000 A 
ATOM     12  C   UNL     1       2.231   4.989  19.959  0.00  0.00    +0.000 A 
ATOM     13  C   UNL     1       1.230   4.247  20.652  0.00  0.00    +0.000 A 
ATOM     14  C   UNL     1       1.423   2.890  20.535  0.00  0.00    +0.000 A 
ATOM     15  S   UNL     1       2.810   2.520  19.611  0.00  0.00    +0.000 S 
ENDBRANCH   3  11
BRANCH   1  17
ATOM     16  N   UNL     1       7.674   7.660  18.081  0.00  0.00    +0.000 N 
ATOM     17  C   UNL     1       7.553   6.357  18.557  0.00  0.00    +0.000 C 
ATOM     18  O   UNL     1       8.299   5.842  19.380  0.00  0.00    +0.000 OA
ATOM     19  H   UNL     1       7.072   7.988  17.341  0.00  0.00    +0.000 HD
BRANCH  16  22
ATOM     20  C   UNL     1       7.604  10.471  17.414  0.00  0.00    +0.000 C 
ATOM     21  C   UNL     1       8.620   9.763  18.294  0.00  0.00    +0.000 C 
ATOM     22  N   UNL     1       8.625   8.492  18.588  0.00  0.00    +0.000 NA
BRANCH  21  23
ATOM     23  C   UNL     1       9.686  10.647  18.878  0.00  0.00    +0.000 A 
ATOM     24  C   UNL     1       9.665  10.995  20.224  0.00  0.00    +0.000 A 
ATOM     25  C   UNL     1      10.674  11.826  20.708  0.00  0.00    +0.000 A 
ATOM     26  C   UNL     1      11.663  12.278  19.840  0.00  0.00    +0.000 A 
ATOM     27  C   UNL     1      11.605  11.880  18.515  0.00  0.00    +0.000 A 
ATOM     28  N   UNL     1      10.642  11.077  18.013  0.00  0.00    +0.000 NA
ENDBRANCH  21  23
ENDBRANCH  16  22
ENDBRANCH   1  17
TORSDOF 4
ENDMDL
MODEL 3
REMARK VINA RESULT:      -8.6      5.074      7.713
REMARK  Name = 
REMARK  5 active torsions:
REMARK  status: ('A' for Active; 'I' for Inactive)
REMARK    1  A    between atoms: C_1  and  C_2
REMARK    2  A    between atoms: C_2  and  C_22
REMARK    3  A    between atoms: N_3  and  N_4
REMARK    4  A    between atoms: C_5  and  C_7
REMARK    5  A    between atoms: C_9  and  C_10
REMARK                            x       y       z     vdW  Elec       q    Type
REMARK                         _______ _______ _______ _____ _____    ______ ____
ROOT
ATOM      1  C   UNL     1       6.291   5.637  17.791  0.00  0.00    +0.000 A 
ATOM      2  C   UNL     1       5.170   5.392  18.596  0.00  0.00    +0.000 A 
ATOM      3  C   UNL     1       4.093   4.714  18.060  0.00  0.00    +0.000 A 
ATOM      4  N   UNL     1       4.088   4.262  16.791  0.00  0.00    +0.000 NA
ATOM      5  C   UNL     1       5.169   4.462  16.016  0.00  0.00    +0.000 A 
ATOM      6  C   UNL     1       5.130   3.960  14.722  0.00  0.00    +0.000 A 
ATOM      7  C   UNL     1       6.205   4.089  13.843  0.00  0.00    +0.000 A 
ATOM      8  C   UNL     1       7.349   4.746  14.260  0.00  0.00    +0.000 A 
ATOM      9  C   UNL     1       7.407   5.277  15.551  0.00  0.00    +0.000 A 
ATOM     10  C   UNL     1       6.323   5.145  16.461  0.00  0.00    +0.000 A 
ENDROOT
BRANCH   3  11
ATOM     11  C   UNL     1       2.902   4.366  18.849  0.00  0.00    +0.000 A 
ATOM     12  C   UNL     1       2.048   3.290  18.685  0.00  0.00    +0.000 A 
ATOM     13  C   UNL     1       1.038   3.223  19.690  0.00  0.00    +0.000 A 
ATOM     14  C   UNL     1       1.120   4.277  20.570  0.00  0.00    +0.000 A 
ATOM     15  S   UNL     1       2.393   5.343  20.174  0.00  0.00    +0.000 S 
ENDBRANCH   3  11
BRANCH   1  17
ATOM     16  N   UNL     1       7.629   7.669  17.946  0.00  0.00    +0.000 N 
ATOM     17  C   UNL     1       7.436   6.373  18.420  0.00  0.00    +0.000 C 
ATOM     18  O   UNL     1       8.108   5.844  19.297  0.00  0.00    +0.000 OA
ATOM     19  H   UNL     1       7.089   8.008  17.164  0.00  0.00    +0.000 HD
BRANCH  16  22
ATOM     20  C   UNL     1       7.567  10.507  17.412  0.00  0.00    +0.000 C 
ATOM     21  C   UNL     1       8.564   9.760  18.280  0.00  0.00    +0.000 C 
ATOM     22  N   UNL     1       8.566   8.477  18.514  0.00  0.00    +0.000 NA
BRANCH  21  23
ATOM     23  C   UNL     1       9.614  10.618  18.929  0.00  0.00    +0.000 A 
ATOM     24  C   UNL     1      10.727  11.048  18.214  0.00  0.00    +0.000 A 
ATOM     25  C   UNL     1      11.672  11.833  18.871  0.00  0.00    +0.000 A 
ATOM     26  C   UNL     1      11.479  12.160  20.209  0.00  0.00    +0.000 A 
ATOM     27  C   UNL     1      10.341  11.689  20.842  0.00  0.00    +0.000 A 
ATOM     28  N   UNL     1       9.405  10.926  20.236  0.00  0.00    +0.000 NA
ENDBRANCH  21  23
ENDBRANCH  16  22
ENDBRANCH   1  17
TORSDOF 4
ENDMDL
MODEL 4
REMARK VINA RESULT:      -8.3      5.131      6.691
REMARK  Name = 
REMARK  5 active torsions:
REMARK  status: ('A' for Active; 'I' for Inactive)
REMARK    1  A    between atoms: C_1  and  C_2
REMARK    2  A    between atoms: C_2  and  C_22
REMARK    3  A    between atoms: N_3  and  N_4
REMARK    4  A    between atoms: C_5  and  C_7
REMARK    5  A    between atoms: C_9  and  C_10
REMARK                            x       y       z     vdW  Elec       q    Type
REMARK                         _______ _______ _______ _____ _____    ______ ____
ROOT
ATOM      1  C   UNL     1       6.568   5.647  17.584  0.00  0.00    +0.000 A 
ATOM      2  C   UNL     1       6.925   5.306  16.273  0.00  0.00    +0.000 A 
ATOM      3  C   UNL     1       6.027   4.609  15.490  0.00  0.00    +0.000 A 
ATOM      4  N   UNL     1       4.805   4.257  15.938  0.00  0.00    +0.000 NA
ATOM      5  C   UNL     1       4.436   4.603  17.184  0.00  0.00    +0.000 A 
ATOM      6  C   UNL     1       3.161   4.241  17.597  0.00  0.00    +0.000 A 
ATOM      7  C   UNL     1       2.667   4.572  18.858  0.00  0.00    +0.000 A 
ATOM      8  C   UNL     1       3.469   5.277  19.740  0.00  0.00    +0.000 A 
ATOM      9  C   UNL     1       4.763   5.637  19.356  0.00  0.00    +0.000 A 
ATOM     10  C   UNL     1       5.276   5.315  18.070  0.00  0.00    +0.000 A 
ENDROOT
BRANCH   3  11
ATOM     11  C   UNL     1       6.299   4.260  14.088  0.00  0.00    +0.000 A 
ATOM     12  C   UNL     1       5.585   3.411  13.260  0.00  0.00    +0.000 A 
ATOM     13  C   UNL     1       6.095   3.375  11.929  0.00  0.00    +0.000 A 
ATOM     14  C   UNL     1       7.214   4.161  11.786  0.00  0.00    +0.000 A 
ATOM     15  S   UNL     1       7.651   4.922  13.250  0.00  0.00    +0.000 S 
ENDBRANCH   3  11
BRANCH   1  17
ATOM     16  N   UNL     1       7.849   7.692  17.927  0.00  0.00    +0.000 N 
ATOM     17  C   UNL     1       7.576   6.408  18.392  0.00  0.00    +0.000 C 
ATOM     18  O   UNL     1       8.077   5.906  19.392  0.00  0.00    +0.000 OA
ATOM     19  H   UNL     1       7.461   8.006  17.050  0.00  0.00    +0.000 HD
BRANCH  16  22
ATOM     20  C   UNL     1       7.790  10.532  17.398  0.00  0.00    +0.000 C 
ATOM     21  C   UNL     1       8.662   9.806  18.407  0.00  0.00    +0.000 C 
ATOM     22  N   UNL     1       8.665   8.521  18.635  0.00  0.00    +0.000 NA
BRANCH  21  23
ATOM     23  C   UNL     1       9.575  10.687  19.213  0.00  0.00    +0.000 A 
ATOM     24  C   UNL     1      10.800  11.102  18.702  0.00  0.00    +0.000 A 
ATOM     25  C   UNL     1      11.609  11.911  19.498  0.00  0.00    +0.000 A 
ATOM     26  C   UNL     1      11.172  12.275  20.768  0.00  0.00    +0.000 A 
ATOM     27  C   UNL     1       9.937  11.816  21.194  0.00  0.00    +0.000 A 
ATOM     28  N   UNL     1       9.130  11.032  20.449  0.00  0.00    +0.000 NA
ENDBRANCH  21  23
ENDBRANCH  16  22
ENDBRANCH   1  17
TORSDOF 4
ENDMDL
MODEL 5
REMARK VINA RESULT:      -8.2      2.430      8.602
REMARK  Name = 
REMARK  5 active torsions:
REMARK  status: ('A' for Active; 'I' for Inactive)
REMARK    1  A    between atoms: C_1  and  C_2
REMARK    2  A    between atoms: C_2  and  C_22
REMARK    3  A    between atoms: N_3  and  N_4
REMARK    4  A    between atoms: C_5  and  C_7
REMARK    5  A    between atoms: C_9  and  C_10
REMARK                            x       y       z     vdW  Elec       q    Type
REMARK                         _______ _______ _______ _____ _____    ______ ____
ROOT
ATOM      1  C   UNL     1       3.029   6.120  18.809  0.00  0.00    +0.000 A 
ATOM      2  C   UNL     1       2.397   7.295  19.238  0.00  0.00    +0.000 A 
ATOM      3  C   UNL     1       1.665   7.277  20.409  0.00  0.00    +0.000 A 
ATOM      4  N   UNL     1       1.550   6.168  21.167  0.00  0.00    +0.000 NA
ATOM      5  C   UNL     1       2.175   5.041  20.784  0.00  0.00    +0.000 A 
ATOM      6  C   UNL     1       2.049   3.929  21.606  0.00  0.00    +0.000 A 
ATOM      7  C   UNL     1       2.676   2.718  21.317  0.00  0.00    +0.000 A 
ATOM      8  C   UNL     1       3.445   2.605  20.172  0.00  0.00    +0.000 A 
ATOM      9  C   UNL     1       3.573   3.704  19.318  0.00  0.00    +0.000 A 
ATOM     10  C   UNL     1       2.947   4.947  19.604  0.00  0.00    +0.000 A 
ENDROOT
BRANCH   3  11
ATOM     11  C   UNL     1       1.019   8.477  20.959  0.00  0.00    +0.000 A 
ATOM     12  C   UNL     1       0.527   8.677  22.238  0.00  0.00    +0.000 A 
ATOM     13  C   UNL     1       0.037  10.001  22.443  0.00  0.00    +0.000 A 
ATOM     14  C   UNL     1       0.125  10.764  21.303  0.00  0.00    +0.000 A 
ATOM     15  S   UNL     1       0.778   9.883  19.994  0.00  0.00    +0.000 S 
ENDBRANCH   3  11
BRANCH   1  17
ATOM     16  N   UNL     1       4.071   4.961  16.935  0.00  0.00    +0.000 N 
ATOM     17  C   UNL     1       3.815   6.192  17.534  0.00  0.00    +0.000 C 
ATOM     18  O   UNL     1       4.163   7.276  17.080  0.00  0.00    +0.000 OA
ATOM     19  H   UNL     1       3.826   4.105  17.409  0.00  0.00    +0.000 HD
BRANCH  16  22
ATOM     20  C   UNL     1       6.913   4.463  16.795  0.00  0.00    +0.000 C 
ATOM     21  C   UNL     1       5.965   4.688  15.631  0.00  0.00    +0.000 C 
ATOM     22  N   UNL     1       4.680   4.902  15.718  0.00  0.00    +0.000 NA
BRANCH  21  23
ATOM     23  C   UNL     1       6.598   4.625  14.269  0.00  0.00    +0.000 A 
ATOM     24  C   UNL     1       6.147   3.722  13.313  0.00  0.00    +0.000 A 
ATOM     25  C   UNL     1       6.778   3.702  12.071  0.00  0.00    +0.000 A 
ATOM     26  C   UNL     1       7.831   4.578  11.826  0.00  0.00    +0.000 A 
ATOM     27  C   UNL     1       8.213   5.444  12.836  0.00  0.00    +0.000 A 
ATOM     28  N   UNL     1       7.623   5.489  14.050  0.00  0.00    +0.000 NA
ENDBRANCH  21  23
ENDBRANCH  16  22
ENDBRANCH   1  17
TORSDOF 4
ENDMDL
MODEL 6
REMARK VINA RESULT:      -8.0      0.835      1.235
REMARK  Name = 
REMARK  5 active torsions:
REMARK  status: ('A' for Active; 'I' for Inactive)
REMARK    1  A    between atoms: C_1  and  C_2
REMARK    2  A    between atoms: C_2  and  C_22
REMARK    3  A    between atoms: N_3  and  N_4
REMARK    4  A    between atoms: C_5  and  C_7
REMARK    5  A    between atoms: C_9  and  C_10
REMARK                            x       y       z     vdW  Elec       q    Type
REMARK                         _______ _______ _______ _____ _____    ______ ____
ROOT
ATOM      1  C   UNL     1       2.870   6.379  18.650  0.00  0.00    +0.000 A 
ATOM      2  C   UNL     1       3.866   6.364  17.665  0.00  0.00    +0.000 A 
ATOM      3  C   UNL     1       4.504   5.176  17.370  0.00  0.00    +0.000 A 
ATOM      4  N   UNL     1       4.189   4.019  17.986  0.00  0.00    +0.000 NA
ATOM      5  C   UNL     1       3.214   4.011  18.912  0.00  0.00    +0.000 A 
ATOM      6  C   UNL     1       2.906   2.794  19.505  0.00  0.00    +0.000 A 
ATOM      7  C   UNL     1       1.895   2.667  20.458  0.00  0.00    +0.000 A 
ATOM      8  C   UNL     1       1.175   3.786  20.839  0.00  0.00    +0.000 A 
ATOM      9  C   UNL     1       1.478   5.026  20.271  0.00  0.00    +0.000 A 
ATOM     10  C   UNL     1       2.499   5.169  19.292  0.00  0.00    +0.000 A 
ENDROOT
BRANCH   3  11
ATOM     11  C   UNL     1       5.519   5.061  16.313  0.00  0.00    +0.000 A 
ATOM     12  C   UNL     1       6.856   5.416  16.365  0.00  0.00    +0.000 A 
ATOM     13  C   UNL     1       7.566   5.085  15.173  0.00  0.00    +0.000 A 
ATOM     14  C   UNL     1       6.742   4.528  14.223  0.00  0.00    +0.000 A 
ATOM     15  S   UNL     1       5.126   4.421  14.763  0.00  0.00    +0.000 S 
ENDBRANCH   3  11
BRANCH   1  17
ATOM     16  N   UNL     1       2.058   7.996  20.283  0.00  0.00    +0.000 N 
ATOM     17  C   UNL     1       2.205   7.693  18.932  0.00  0.00    +0.000 C 
ATOM     18  O   UNL     1       1.856   8.422  18.010  0.00  0.00    +0.000 OA
ATOM     19  H   UNL     1       2.293   7.311  20.985  0.00  0.00    +0.000 HD
BRANCH  16  22
ATOM     20  C   UNL     1      -0.414   8.120  21.774  0.00  0.00    +0.000 C 
ATOM     21  C   UNL     1       0.449   9.289  21.333  0.00  0.00    +0.000 C 
ATOM     22  N   UNL     1       1.568   9.208  20.667  0.00  0.00    +0.000 NA
BRANCH  21  23
ATOM     23  C   UNL     1      -0.055  10.645  21.741  0.00  0.00    +0.000 A 
ATOM     24  C   UNL     1       0.424  11.798  21.129  0.00  0.00    +0.000 A 
ATOM     25  C   UNL     1      -0.073  13.028  21.555  0.00  0.00    +0.000 A 
ATOM     26  C   UNL     1      -1.023  13.067  22.570  0.00  0.00    +0.000 A 
ATOM     27  C   UNL     1      -1.444  11.869  23.122  0.00  0.00    +0.000 A 
ATOM     28  N   UNL     1      -0.984  10.660  22.733  0.00  0.00    +0.000 NA
ENDBRANCH  21  23
ENDBRANCH  16  22
ENDBRANCH   1  17
TORSDOF 4
ENDMDL
MODEL 7
REMARK VINA RESULT:      -8.0      3.231      8.400
REMARK  Name = 
REMARK  5 active torsions:
REMARK  status: ('A' for Active; 'I' for Inactive)
REMARK    1  A    between atoms: C_1  and  C_2
REMARK    2  A    between atoms: C_2  and  C_22
REMARK    3  A    between atoms: N_3  and  N_4
REMARK    4  A    between atoms: C_5  and  C_7
REMARK    5  A    between atoms: C_9  and  C_10
REMARK                            x       y       z     vdW  Elec       q    Type
REMARK                         _______ _______ _______ _____ _____    ______ ____
ROOT
ATOM      1  C   UNL     1       1.240  10.129  19.356  0.00  0.00    +0.000 A 
ATOM      2  C   UNL     1       1.662  11.341  18.791  0.00  0.00    +0.000 A 
ATOM      3  C   UNL     1       1.333  12.526  19.418  0.00  0.00    +0.000 A 
ATOM      4  N   UNL     1       0.631  12.560  20.568  0.00  0.00    +0.000 NA
ATOM      5  C   UNL     1       0.244  11.404  21.138  0.00  0.00    +0.000 A 
ATOM      6  C   UNL     1      -0.457  11.484  22.333  0.00  0.00    +0.000 A 
ATOM      7  C   UNL     1      -0.882  10.348  23.021  0.00  0.00    +0.000 A 
ATOM      8  C   UNL     1      -0.611   9.095  22.500  0.00  0.00    +0.000 A 
ATOM      9  C   UNL     1       0.078   8.987  21.289  0.00  0.00    +0.000 A 
ATOM     10  C   UNL     1       0.525  10.136  20.582  0.00  0.00    +0.000 A 
ENDROOT
BRANCH   3  11
ATOM     11  C   UNL     1       1.783  13.836  18.926  0.00  0.00    +0.000 A 
ATOM     12  C   UNL     1       2.946  14.143  18.241  0.00  0.00    +0.000 A 
ATOM     13  C   UNL     1       3.014  15.512  17.846  0.00  0.00    +0.000 A 
ATOM     14  C   UNL     1       1.921  16.226  18.279  0.00  0.00    +0.000 A 
ATOM     15  S   UNL     1       0.834  15.254  19.167  0.00  0.00    +0.000 S 
ENDBRANCH   3  11
BRANCH   1  17
ATOM     16  N   UNL     1       2.315   7.943  19.418  0.00  0.00    +0.000 N 
ATOM     17  C   UNL     1       1.627   8.870  18.639  0.00  0.00    +0.000 C 
ATOM     18  O   UNL     1       1.319   8.704  17.465  0.00  0.00    +0.000 OA
ATOM     19  H   UNL     1       2.607   8.183  20.353  0.00  0.00    +0.000 HD
BRANCH  16  22
ATOM     20  C   UNL     1       1.636   5.574  20.928  0.00  0.00    +0.000 C 
ATOM     21  C   UNL     1       2.337   5.633  19.582  0.00  0.00    +0.000 C 
ATOM     22  N   UNL     1       2.625   6.716  18.914  0.00  0.00    +0.000 NA
BRANCH  21  23
ATOM     23  C   UNL     1       2.694   4.299  18.988  0.00  0.00    +0.000 A 
ATOM     24  C   UNL     1       2.161   3.896  17.769  0.00  0.00    +0.000 A 
ATOM     25  C   UNL     1       2.520   2.644  17.272  0.00  0.00    +0.000 A 
ATOM     26  C   UNL     1       3.391   1.842  18.002  0.00  0.00    +0.000 A 
ATOM     27  C   UNL     1       3.873   2.325  19.207  0.00  0.00    +0.000 A 
ATOM     28  N   UNL     1       3.546   3.532  19.717  0.00  0.00    +0.000 NA
ENDBRANCH  21  23
ENDBRANCH  16  22
ENDBRANCH   1  17
TORSDOF 4
ENDMDL
MODEL 8
REMARK VINA RESULT:      -7.9      2.873      8.436
REMARK  Name = 
REMARK  5 active torsions:
REMARK  status: ('A' for Active; 'I' for Inactive)
REMARK    1  A    between atoms: C_1  and  C_2
REMARK    2  A    between atoms: C_2  and  C_22
REMARK    3  A    between atoms: N_3  and  N_4
REMARK    4  A    between atoms: C_5  and  C_7
REMARK    5  A    between atoms: C_9  and  C_10
REMARK                            x       y       z     vdW  Elec       q    Type
REMARK                         _______ _______ _______ _____ _____    ______ ____
ROOT
ATOM      1  C   UNL     1       1.095  10.277  19.356  0.00  0.00    +0.000 A 
ATOM      2  C   UNL     1       1.449  11.515  18.802  0.00  0.00    +0.000 A 
ATOM      3  C   UNL     1       1.105  12.674  19.469  0.00  0.00    +0.000 A 
ATOM      4  N   UNL     1       0.451  12.657  20.648  0.00  0.00    +0.000 NA
ATOM      5  C   UNL     1       0.131  11.477  21.206  0.00  0.00    +0.000 A 
ATOM      6  C   UNL     1      -0.521  11.506  22.432  0.00  0.00    +0.000 A 
ATOM      7  C   UNL     1      -0.877  10.341  23.111  0.00  0.00    +0.000 A 
ATOM      8  C   UNL     1      -0.583   9.110  22.551  0.00  0.00    +0.000 A 
ATOM      9  C   UNL     1       0.056   9.053  21.309  0.00  0.00    +0.000 A 
ATOM     10  C   UNL     1       0.433  10.232  20.610  0.00  0.00    +0.000 A 
ENDROOT
BRANCH   3  11
ATOM     11  C   UNL     1       1.487  14.009  18.988  0.00  0.00    +0.000 A 
ATOM     12  C   UNL     1       0.723  15.163  18.962  0.00  0.00    +0.000 A 
ATOM     13  C   UNL     1       1.449  16.301  18.501  0.00  0.00    +0.000 A 
ATOM     14  C   UNL     1       2.737  15.976  18.142  0.00  0.00    +0.000 A 
ATOM     15  S   UNL     1       3.056  14.312  18.346  0.00  0.00    +0.000 S 
ENDBRANCH   3  11
BRANCH   1  17
ATOM     16  N   UNL     1       2.190   8.100  19.342  0.00  0.00    +0.000 N 
ATOM     17  C   UNL     1       1.495   9.048  18.595  0.00  0.00    +0.000 C 
ATOM     18  O   UNL     1       1.190   8.921  17.415  0.00  0.00    +0.000 OA
ATOM     19  H   UNL     1       2.479   8.310  20.286  0.00  0.00    +0.000 HD
BRANCH  16  22
ATOM     20  C   UNL     1       1.602   5.675  20.798  0.00  0.00    +0.000 C 
ATOM     21  C   UNL     1       2.266   5.788  19.438  0.00  0.00    +0.000 C 
ATOM     22  N   UNL     1       2.514   6.896  18.795  0.00  0.00    +0.000 NA
BRANCH  21  23
ATOM     23  C   UNL     1       2.635   4.479  18.797  0.00  0.00    +0.000 A 
ATOM     24  C   UNL     1       1.757   3.402  18.818  0.00  0.00    +0.000 A 
ATOM     25  C   UNL     1       2.157   2.210  18.216  0.00  0.00    +0.000 A 
ATOM     26  C   UNL     1       3.410   2.134  17.617  0.00  0.00    +0.000 A 
ATOM     27  C   UNL     1       4.219   3.257  17.643  0.00  0.00    +0.000 A 
ATOM     28  N   UNL     1       3.863   4.426  18.218  0.00  0.00    +0.000 NA
ENDBRANCH  21  23
ENDBRANCH  16  22
ENDBRANCH   1  17
TORSDOF 4
ENDMDL
MODEL 9
REMARK VINA RESULT:      -7.8      2.030      2.054
REMARK  Name = 
REMARK  5 active torsions:
REMARK  status: ('A' for Active; 'I' for Inactive)
REMARK    1  A    between atoms: C_1  and  C_2
REMARK    2  A    between atoms: C_2  and  C_22
REMARK    3  A    between atoms: N_3  and  N_4
REMARK    4  A    between atoms: C_5  and  C_7
REMARK    5  A    between atoms: C_9  and  C_10
REMARK                            x       y       z     vdW  Elec       q    Type
REMARK                         _______ _______ _______ _____ _____    ______ ____
ROOT
ATOM      1  C   UNL     1       2.893   6.028  18.529  0.00  0.00    +0.000 A 
ATOM      2  C   UNL     1       3.899   6.019  17.552  0.00  0.00    +0.000 A 
ATOM      3  C   UNL     1       4.295   4.814  17.006  0.00  0.00    +0.000 A 
ATOM      4  N   UNL     1       3.735   3.643  17.368  0.00  0.00    +0.000 NA
ATOM      5  C   UNL     1       2.748   3.638  18.281  0.00  0.00    +0.000 A 
ATOM      6  C   UNL     1       2.185   2.412  18.607  0.00  0.00    +0.000 A 
ATOM      7  C   UNL     1       1.139   2.297  19.522  0.00  0.00    +0.000 A 
ATOM      8  C   UNL     1       0.645   3.433  20.139  0.00  0.00    +0.000 A 
ATOM      9  C   UNL     1       1.207   4.677  19.842  0.00  0.00    +0.000 A 
ATOM     10  C   UNL     1       2.267   4.811  18.905  0.00  0.00    +0.000 A 
ENDROOT
BRANCH   3  11
ATOM     11  C   UNL     1       5.301   4.720  15.938  0.00  0.00    +0.000 A 
ATOM     12  C   UNL     1       5.180   4.124  14.695  0.00  0.00    +0.000 A 
ATOM     13  C   UNL     1       6.338   4.296  13.881  0.00  0.00    +0.000 A 
ATOM     14  C   UNL     1       7.332   4.980  14.541  0.00  0.00    +0.000 A 
ATOM     15  S   UNL     1       6.874   5.394  16.132  0.00  0.00    +0.000 S 
ENDBRANCH   3  11
BRANCH   1  17
ATOM     16  N   UNL     1       2.469   8.400  18.161  0.00  0.00    +0.000 N 
ATOM     17  C   UNL     1       2.495   7.362  19.088  0.00  0.00    +0.000 C 
ATOM     18  O   UNL     1       2.201   7.475  20.272  0.00  0.00    +0.000 OA
ATOM     19  H   UNL     1       2.805   8.249  17.221  0.00  0.00    +0.000 HD
BRANCH  16  22
ATOM     20  C   UNL     1      -0.260   9.145  17.572  0.00  0.00    +0.000 C 
ATOM     21  C   UNL     1       0.795   9.996  18.258  0.00  0.00    +0.000 C 
ATOM     22  N   UNL     1       2.020   9.634  18.521  0.00  0.00    +0.000 NA
BRANCH  21  23
ATOM     23  C   UNL     1       0.337  11.365  18.676  0.00  0.00    +0.000 A 
ATOM     24  C   UNL     1      -1.009  11.629  18.906  0.00  0.00    +0.000 A 
ATOM     25  C   UNL     1      -1.375  12.919  19.283  0.00  0.00    +0.000 A 
ATOM     26  C   UNL     1      -0.395  13.897  19.417  0.00  0.00    +0.000 A 
ATOM     27  C   UNL     1       0.921  13.544  19.170  0.00  0.00    +0.000 A 
ATOM     28  N   UNL     1       1.311  12.305  18.803  0.00  0.00    +0.000 NA
ENDBRANCH  21  23
ENDBRANCH  16  22
ENDBRANCH   1  17
TORSDOF 4
ENDMDL
