MODEL 1
REMARK VINA RESULT:      -7.9      0.000      0.000
REMARK  Name = 
REMARK  8 active torsions:
REMARK  status: ('A' for Active; 'I' for Inactive)
REMARK    1  A    between atoms: C_1  and  O_2
REMARK    2  A    between atoms: O_2  and  C_3
REMARK    3  A    between atoms: C_6  and  C_7
REMARK    4  A    between atoms: C_7  and  C_8
REMARK    5  A    between atoms: C_8  and  C_9
REMARK    6  A    between atoms: N_14  and  S_15
REMARK    7  A    between atoms: S_15  and  C_18
REMARK    8  A    between atoms: C_21  and  C_22
REMARK                            x       y       z     vdW  Elec       q    Type
REMARK                         _______ _______ _______ _____ _____    ______ ____
ROOT
ATOM      1  C   UNL     1       1.424   8.287  20.181  0.00  0.00    +0.000 C 
ATOM      2  O   UNL     1       0.928   8.308  21.309  0.00  0.00    +0.000 OA
ATOM      3  N   UNL     1       2.157   7.206  19.723  0.00  0.00    +0.000 N 
ATOM      4  C   UNL     1       2.291   6.038  20.596  0.00  0.00    +0.000 C 
ATOM      5  C   UNL     1       2.147   4.747  19.790  0.00  0.00    +0.000 C 
ATOM      6  N   UNL     1       3.111   4.686  18.646  0.00  0.00    +0.000 NA
ATOM      7  C   UNL     1       2.913   5.875  17.751  0.00  0.00    +0.000 C 
ATOM      8  C   UNL     1       3.016   7.202  18.525  0.00  0.00    +0.000 C 
ENDROOT
BRANCH   6   9
ATOM      9  S   UNL     1       4.748   4.358  19.014  0.00  0.00    +0.000 S 
ATOM     10  O   UNL     1       5.229   5.424  19.863  0.00  0.00    +0.000 OA
ATOM     11  O   UNL     1       4.847   2.976  19.442  0.00  0.00    +0.000 OA
BRANCH   9  12
ATOM     12  C   UNL     1       5.545   4.500  17.439  0.00  0.00    +0.000 A 
ATOM     13  C   UNL     1       6.548   5.454  17.270  0.00  0.00    +0.000 A 
ATOM     14  C   UNL     1       7.142   5.604  16.017  0.00  0.00    +0.000 A 
ATOM     15  C   UNL     1       6.742   4.803  14.939  0.00  0.00    +0.000 A 
ATOM     16  C   UNL     1       7.405   4.930  13.598  0.00  0.00    +0.000 C 
ATOM     17  C   UNL     1       5.732   3.848  15.127  0.00  0.00    +0.000 A 
ATOM     18  C   UNL     1       5.131   3.695  16.376  0.00  0.00    +0.000 A 
ENDBRANCH   9  12
ENDBRANCH   6   9
BRANCH   1  19
ATOM     19  C   UNL     1       1.207   9.420  19.202  0.00  0.00    +0.000 C 
BRANCH  19  20
ATOM     20  C   UNL     1       0.326  10.509  19.805  0.00  0.00    +0.000 C 
BRANCH  20  24
ATOM     21  C   UNL     1      -3.267  11.082  17.483  0.00  0.00    +0.000 A 
ATOM     22  C   UNL     1      -2.275  10.201  17.045  0.00  0.00    +0.000 A 
ATOM     23  C   UNL     1      -1.119  10.006  17.798  0.00  0.00    +0.000 A 
ATOM     24  C   UNL     1      -0.932  10.701  18.999  0.00  0.00    +0.000 A 
ATOM     25  C   UNL     1      -1.912  11.607  19.420  0.00  0.00    +0.000 A 
ATOM     26  C   UNL     1      -3.077  11.794  18.668  0.00  0.00    +0.000 A 
BRANCH  21  28
ATOM     27  C   UNL     1      -5.378  12.072  17.110  0.00  0.00    +0.000 C 
ATOM     28  O   UNL     1      -4.350  11.198  16.657  0.00  0.00    +0.000 OA
ENDBRANCH  21  28
ENDBRANCH  20  24
ENDBRANCH  19  20
ENDBRANCH   1  19
TORSDOF 6
ENDMDL
MODEL 2
REMARK VINA RESULT:      -7.7      0.528      1.386
REMARK  Name = 
REMARK  8 active torsions:
REMARK  status: ('A' for Active; 'I' for Inactive)
REMARK    1  A    between atoms: C_1  and  O_2
REMARK    2  A    between atoms: O_2  and  C_3
REMARK    3  A    between atoms: C_6  and  C_7
REMARK    4  A    between atoms: C_7  and  C_8
REMARK    5  A    between atoms: C_8  and  C_9
REMARK    6  A    between atoms: N_14  and  S_15
REMARK    7  A    between atoms: S_15  and  C_18
REMARK    8  A    between atoms: C_21  and  C_22
REMARK                            x       y       z     vdW  Elec       q    Type
REMARK                         _______ _______ _______ _____ _____    ______ ____
ROOT
ATOM      1  C   UNL     1       1.536   8.647  19.522  0.00  0.00    +0.000 C 
ATOM      2  O   UNL     1       1.122   8.926  20.648  0.00  0.00    +0.000 OA
ATOM      3  N   UNL     1       2.240   7.482  19.268  0.00  0.00    +0.000 N 
ATOM      4  C   UNL     1       2.443   6.539  20.370  0.00  0.00    +0.000 C 
ATOM      5  C   UNL     1       2.249   5.101  19.887  0.00  0.00    +0.000 C 
ATOM      6  N   UNL     1       3.129   4.774  18.721  0.00  0.00    +0.000 NA
ATOM      7  C   UNL     1       2.860   5.733  17.597  0.00  0.00    +0.000 C 
ATOM      8  C   UNL     1       3.011   7.200  18.043  0.00  0.00    +0.000 C 
ENDROOT
BRANCH   6   9
ATOM      9  S   UNL     1       4.790   4.520  19.036  0.00  0.00    +0.000 S 
ATOM     10  O   UNL     1       5.261   5.630  19.832  0.00  0.00    +0.000 OA
ATOM     11  O   UNL     1       4.957   3.158  19.504  0.00  0.00    +0.000 OA
BRANCH   9  12
ATOM     12  C   UNL     1       5.522   4.640  17.428  0.00  0.00    +0.000 A 
ATOM     13  C   UNL     1       5.201   3.685  16.464  0.00  0.00    +0.000 A 
ATOM     14  C   UNL     1       5.815   3.746  15.213  0.00  0.00    +0.000 A 
ATOM     15  C   UNL     1       6.739   4.759  14.923  0.00  0.00    +0.000 A 
ATOM     16  C   UNL     1       7.373   4.857  13.566  0.00  0.00    +0.000 C 
ATOM     17  C   UNL     1       7.050   5.712  15.905  0.00  0.00    +0.000 A 
ATOM     18  C   UNL     1       6.443   5.655  17.159  0.00  0.00    +0.000 A 
ENDBRANCH   9  12
ENDBRANCH   6   9
BRANCH   1  19
ATOM     19  C   UNL     1       1.243   9.532  18.331  0.00  0.00    +0.000 C 
BRANCH  19  20
ATOM     20  C   UNL     1       0.603  10.847  18.765  0.00  0.00    +0.000 C 
BRANCH  20  24
ATOM     21  C   UNL     1      -3.625  10.876  17.899  0.00  0.00    +0.000 A 
ATOM     22  C   UNL     1      -3.088  11.771  18.826  0.00  0.00    +0.000 A 
ATOM     23  C   UNL     1      -1.721  11.772  19.100  0.00  0.00    +0.000 A 
ATOM     24  C   UNL     1      -0.871  10.864  18.456  0.00  0.00    +0.000 A 
ATOM     25  C   UNL     1      -1.417   9.947  17.551  0.00  0.00    +0.000 A 
ATOM     26  C   UNL     1      -2.787   9.955  17.270  0.00  0.00    +0.000 A 
BRANCH  21  28
ATOM     27  C   UNL     1      -5.443  12.165  17.117  0.00  0.00    +0.000 C 
ATOM     28  O   UNL     1      -4.978  10.963  17.721  0.00  0.00    +0.000 OA
ENDBRANCH  21  28
ENDBRANCH  20  24
ENDBRANCH  19  20
ENDBRANCH   1  19
TORSDOF 6
ENDMDL
MODEL 3
REMARK VINA RESULT:      -7.6      3.267     10.231
REMARK  Name = 
REMARK  8 active torsions:
REMARK  status: ('A' for Active; 'I' for Inactive)
REMARK    1  A    between atoms: C_1  and  O_2
REMARK    2  A    between atoms: O_2  and  C_3
REMARK    3  A    between atoms: C_6  and  C_7
REMARK    4  A    between atoms: C_7  and  C_8
REMARK    5  A    between atoms: C_8  and  C_9
REMARK    6  A    between atoms: N_14  and  S_15
REMARK    7  A    between atoms: S_15  and  C_18
REMARK    8  A    between atoms: C_21  and  C_22
REMARK                            x       y       z     vdW  Elec       q    Type
REMARK                         _______ _______ _______ _____ _____    ______ ____
ROOT
ATOM      1  C   UNL     1       2.265   8.219  18.707  0.00  0.00    +0.000 C 
ATOM      2  O   UNL     1       2.532   8.720  17.613  0.00  0.00    +0.000 OA
ATOM      3  N   UNL     1       1.408   8.834  19.604  0.00  0.00    +0.000 N 
ATOM      4  C   UNL     1       0.766  10.087  19.203  0.00  0.00    +0.000 C 
ATOM      5  C   UNL     1      -0.698  10.104  19.644  0.00  0.00    +0.000 C 
ATOM      6  N   UNL     1      -0.847   9.860  21.114  0.00  0.00    +0.000 NA
ATOM      7  C   UNL     1      -0.217   8.546  21.477  0.00  0.00    +0.000 C 
ATOM      8  C   UNL     1       1.253   8.468  21.024  0.00  0.00    +0.000 C 
ENDROOT
BRANCH   6   9
ATOM      9  S   UNL     1      -0.441  11.142  22.169  0.00  0.00    +0.000 S 
ATOM     10  O   UNL     1      -0.185  10.573  23.472  0.00  0.00    +0.000 OA
ATOM     11  O   UNL     1       0.560  11.964  21.517  0.00  0.00    +0.000 OA
BRANCH   9  12
ATOM     12  C   UNL     1      -1.943  12.076  22.256  0.00  0.00    +0.000 A 
ATOM     13  C   UNL     1      -2.284  12.913  21.194  0.00  0.00    +0.000 A 
ATOM     14  C   UNL     1      -3.440  13.689  21.281  0.00  0.00    +0.000 A 
ATOM     15  C   UNL     1      -4.254  13.626  22.420  0.00  0.00    +0.000 A 
ATOM     16  C   UNL     1      -5.521  14.427  22.504  0.00  0.00    +0.000 C 
ATOM     17  C   UNL     1      -3.897  12.779  23.479  0.00  0.00    +0.000 A 
ATOM     18  C   UNL     1      -2.741  12.002  23.400  0.00  0.00    +0.000 A 
ENDBRANCH   9  12
ENDBRANCH   6   9
BRANCH   1  19
ATOM     19  C   UNL     1       2.810   6.867  19.111  0.00  0.00    +0.000 C 
BRANCH  19  20
ATOM     20  C   UNL     1       2.561   5.825  18.025  0.00  0.00    +0.000 C 
BRANCH  20  24
ATOM     21  C   UNL     1       6.208   4.786  15.963  0.00  0.00    +0.000 A 
ATOM     22  C   UNL     1       5.922   6.119  16.265  0.00  0.00    +0.000 A 
ATOM     23  C   UNL     1       4.750   6.457  16.940  0.00  0.00    +0.000 A 
ATOM     24  C   UNL     1       3.838   5.462  17.314  0.00  0.00    +0.000 A 
ATOM     25  C   UNL     1       4.112   4.131  16.983  0.00  0.00    +0.000 A 
ATOM     26  C   UNL     1       5.293   3.792  16.314  0.00  0.00    +0.000 A 
BRANCH  21  28
ATOM     27  C   UNL     1       7.364   4.916  13.909  0.00  0.00    +0.000 C 
ATOM     28  O   UNL     1       7.380   4.578  15.291  0.00  0.00    +0.000 OA
ENDBRANCH  21  28
ENDBRANCH  20  24
ENDBRANCH  19  20
ENDBRANCH   1  19
TORSDOF 6
ENDMDL
MODEL 4
REMARK VINA RESULT:      -7.5      3.338     10.097
REMARK  Name = 
REMARK  8 active torsions:
REMARK  status: ('A' for Active; 'I' for Inactive)
REMARK    1  A    between atoms: C_1  and  O_2
REMARK    2  A    between atoms: O_2  and  C_3
REMARK    3  A    between atoms: C_6  and  C_7
REMARK    4  A    between atoms: C_7  and  C_8
REMARK    5  A    between atoms: C_8  and  C_9
REMARK    6  A    between atoms: N_14  and  S_15
REMARK    7  A    between atoms: S_15  and  C_18
REMARK    8  A    between atoms: C_21  and  C_22
REMARK                            x       y       z     vdW  Elec       q    Type
REMARK                         _______ _______ _______ _____ _____    ______ ____
ROOT
ATOM      1  C   UNL     1       2.235   7.907  18.392  0.00  0.00    +0.000 C 
ATOM      2  O   UNL     1       2.610   8.468  17.361  0.00  0.00    +0.000 OA
ATOM      3  N   UNL     1       1.503   8.570  19.362  0.00  0.00    +0.000 N 
ATOM      4  C   UNL     1       1.125   9.963  19.116  0.00  0.00    +0.000 C 
ATOM      5  C   UNL     1      -0.313  10.216  19.570  0.00  0.00    +0.000 C 
ATOM      6  N   UNL     1      -0.526   9.839  21.003  0.00  0.00    +0.000 NA
ATOM      7  C   UNL     1      -0.171   8.394  21.206  0.00  0.00    +0.000 C 
ATOM      8  C   UNL     1       1.260   8.081  20.732  0.00  0.00    +0.000 C 
ENDROOT
BRANCH   6   9
ATOM      9  S   UNL     1       0.110  10.886  22.195  0.00  0.00    +0.000 S 
ATOM     10  O   UNL     1       0.337  10.104  23.389  0.00  0.00    +0.000 OA
ATOM     11  O   UNL     1       1.190  11.647  21.598  0.00  0.00    +0.000 OA
BRANCH   9  12
ATOM     12  C   UNL     1      -1.234  11.996  22.507  0.00  0.00    +0.000 A 
ATOM     13  C   UNL     1      -1.177  13.290  21.992  0.00  0.00    +0.000 A 
ATOM     14  C   UNL     1      -2.210  14.184  22.278  0.00  0.00    +0.000 A 
ATOM     15  C   UNL     1      -3.296  13.785  23.070  0.00  0.00    +0.000 A 
ATOM     16  C   UNL     1      -4.431  14.728  23.349  0.00  0.00    +0.000 C 
ATOM     17  C   UNL     1      -3.337  12.480  23.580  0.00  0.00    +0.000 A 
ATOM     18  C   UNL     1      -2.307  11.582  23.300  0.00  0.00    +0.000 A 
ENDBRANCH   9  12
ENDBRANCH   6   9
BRANCH   1  19
ATOM     19  C   UNL     1       2.498   6.436  18.632  0.00  0.00    +0.000 C 
BRANCH  19  20
ATOM     20  C   UNL     1       3.890   6.212  19.214  0.00  0.00    +0.000 C 
BRANCH  20  24
ATOM     21  C   UNL     1       6.739   5.210  16.131  0.00  0.00    +0.000 A 
ATOM     22  C   UNL     1       5.371   5.219  15.853  0.00  0.00    +0.000 A 
ATOM     23  C   UNL     1       4.448   5.553  16.843  0.00  0.00    +0.000 A 
ATOM     24  C   UNL     1       4.884   5.872  18.136  0.00  0.00    +0.000 A 
ATOM     25  C   UNL     1       6.253   5.831  18.420  0.00  0.00    +0.000 A 
ATOM     26  C   UNL     1       7.178   5.506  17.422  0.00  0.00    +0.000 A 
BRANCH  21  28
ATOM     27  C   UNL     1       6.872   4.436  13.905  0.00  0.00    +0.000 C 
ATOM     28  O   UNL     1       7.546   4.857  15.085  0.00  0.00    +0.000 OA
ENDBRANCH  21  28
ENDBRANCH  20  24
ENDBRANCH  19  20
ENDBRANCH   1  19
TORSDOF 6
ENDMDL
MODEL 5
REMARK VINA RESULT:      -7.5      0.648      1.111
REMARK  Name = 
REMARK  8 active torsions:
REMARK  status: ('A' for Active; 'I' for Inactive)
REMARK    1  A    between atoms: C_1  and  O_2
REMARK    2  A    between atoms: O_2  and  C_3
REMARK    3  A    between atoms: C_6  and  C_7
REMARK    4  A    between atoms: C_7  and  C_8
REMARK    5  A    between atoms: C_8  and  C_9
REMARK    6  A    between atoms: N_14  and  S_15
REMARK    7  A    between atoms: S_15  and  C_18
REMARK    8  A    between atoms: C_21  and  C_22
REMARK                            x       y       z     vdW  Elec       q    Type
REMARK                         _______ _______ _______ _____ _____    ______ ____
ROOT
ATOM      1  C   UNL     1       1.570   8.366  19.677  0.00  0.00    +0.000 C 
ATOM      2  O   UNL     1       1.124   8.558  20.810  0.00  0.00    +0.000 OA
ATOM      3  N   UNL     1       2.294   7.230  19.358  0.00  0.00    +0.000 N 
ATOM      4  C   UNL     1       2.478   6.210  20.393  0.00  0.00    +0.000 C 
ATOM      5  C   UNL     1       2.313   4.810  19.801  0.00  0.00    +0.000 C 
ATOM      6  N   UNL     1       3.226   4.578  18.638  0.00  0.00    +0.000 NA
ATOM      7  C   UNL     1       2.976   5.614  17.581  0.00  0.00    +0.000 C 
ATOM      8  C   UNL     1       3.099   7.046  18.137  0.00  0.00    +0.000 C 
ENDROOT
BRANCH   6   9
ATOM      9  S   UNL     1       4.881   4.316  18.978  0.00  0.00    +0.000 S 
ATOM     10  O   UNL     1       5.337   5.409  19.807  0.00  0.00    +0.000 OA
ATOM     11  O   UNL     1       5.040   2.944  19.419  0.00  0.00    +0.000 OA
BRANCH   9  12
ATOM     12  C   UNL     1       5.643   4.471  17.387  0.00  0.00    +0.000 A 
ATOM     13  C   UNL     1       6.599   5.467  17.188  0.00  0.00    +0.000 A 
ATOM     14  C   UNL     1       7.163   5.625  15.922  0.00  0.00    +0.000 A 
ATOM     15  C   UNL     1       6.780   4.791  14.862  0.00  0.00    +0.000 A 
ATOM     16  C   UNL     1       7.413   4.928  13.508  0.00  0.00    +0.000 C 
ATOM     17  C   UNL     1       5.817   3.795  15.081  0.00  0.00    +0.000 A 
ATOM     18  C   UNL     1       5.246   3.633  16.343  0.00  0.00    +0.000 A 
ENDBRANCH   9  12
ENDBRANCH   6   9
BRANCH   1  19
ATOM     19  C   UNL     1       1.299   9.334  18.547  0.00  0.00    +0.000 C 
BRANCH  19  20
ATOM     20  C   UNL     1       0.912  10.710  19.079  0.00  0.00    +0.000 C 
BRANCH  20  24
ATOM     21  C   UNL     1      -3.273  11.518  18.401  0.00  0.00    +0.000 A 
ATOM     22  C   UNL     1      -2.567  12.221  19.380  0.00  0.00    +0.000 A 
ATOM     23  C   UNL     1      -1.213  11.970  19.594  0.00  0.00    +0.000 A 
ATOM     24  C   UNL     1      -0.546  10.999  18.837  0.00  0.00    +0.000 A 
ATOM     25  C   UNL     1      -1.263  10.274  17.879  0.00  0.00    +0.000 A 
ATOM     26  C   UNL     1      -2.620  10.534  17.659  0.00  0.00    +0.000 A 
BRANCH  21  28
ATOM     27  C   UNL     1      -5.504  10.748  18.337  0.00  0.00    +0.000 C 
ATOM     28  O   UNL     1      -4.597  11.842  18.290  0.00  0.00    +0.000 OA
ENDBRANCH  21  28
ENDBRANCH  20  24
ENDBRANCH  19  20
ENDBRANCH   1  19
TORSDOF 6
ENDMDL
MODEL 6
REMARK VINA RESULT:      -7.5      0.800      1.272
REMARK  Name = 
REMARK  8 active torsions:
REMARK  status: ('A' for Active; 'I' for Inactive)
REMARK    1  A    between atoms: C_1  and  O_2
REMARK    2  A    between atoms: O_2  and  C_3
REMARK    3  A    between atoms: C_6  and  C_7
REMARK    4  A    between atoms: C_7  and  C_8
REMARK    5  A    between atoms: C_8  and  C_9
REMARK    6  A    between atoms: N_14  and  S_15
REMARK    7  A    between atoms: S_15  and  C_18
REMARK    8  A    between atoms: C_21  and  C_22
REMARK                            x       y       z     vdW  Elec       q    Type
REMARK                         _______ _______ _______ _____ _____    ______ ____
ROOT
ATOM      1  C   UNL     1       1.266   8.320  20.519  0.00  0.00    +0.000 C 
ATOM      2  O   UNL     1       0.718   8.225  21.618  0.00  0.00    +0.000 OA
ATOM      3  N   UNL     1       1.990   7.275  19.968  0.00  0.00    +0.000 N 
ATOM      4  C   UNL     1       2.050   6.010  20.702  0.00  0.00    +0.000 C 
ATOM      5  C   UNL     1       1.909   4.827  19.743  0.00  0.00    +0.000 C 
ATOM      6  N   UNL     1       2.924   4.869  18.644  0.00  0.00    +0.000 NA
ATOM      7  C   UNL     1       2.801   6.160  17.888  0.00  0.00    +0.000 C 
ATOM      8  C   UNL     1       2.905   7.384  18.817  0.00  0.00    +0.000 C 
ENDROOT
BRANCH   6   9
ATOM      9  S   UNL     1       4.532   4.446  19.042  0.00  0.00    +0.000 S 
ATOM     10  O   UNL     1       5.048   5.466  19.926  0.00  0.00    +0.000 OA
ATOM     11  O   UNL     1       4.547   3.052  19.441  0.00  0.00    +0.000 OA
BRANCH   9  12
ATOM     12  C   UNL     1       5.374   4.579  17.490  0.00  0.00    +0.000 A 
ATOM     13  C   UNL     1       6.443   5.466  17.372  0.00  0.00    +0.000 A 
ATOM     14  C   UNL     1       7.076   5.611  16.137  0.00  0.00    +0.000 A 
ATOM     15  C   UNL     1       6.647   4.871  15.027  0.00  0.00    +0.000 A 
ATOM     16  C   UNL     1       7.348   4.991  13.705  0.00  0.00    +0.000 C 
ATOM     17  C   UNL     1       5.569   3.984  15.163  0.00  0.00    +0.000 A 
ATOM     18  C   UNL     1       4.930   3.835  16.394  0.00  0.00    +0.000 A 
ENDBRANCH   9  12
ENDBRANCH   6   9
BRANCH   1  19
ATOM     19  C   UNL     1       1.128   9.566  19.672  0.00  0.00    +0.000 C 
BRANCH  19  20
ATOM     20  C   UNL     1      -0.161  10.313  19.997  0.00  0.00    +0.000 C 
BRANCH  20  24
ATOM     21  C   UNL     1      -2.583  10.892  16.472  0.00  0.00    +0.000 A 
ATOM     22  C   UNL     1      -2.460  11.911  17.419  0.00  0.00    +0.000 A 
ATOM     23  C   UNL     1      -1.669  11.731  18.554  0.00  0.00    +0.000 A 
ATOM     24  C   UNL     1      -0.999  10.519  18.762  0.00  0.00    +0.000 A 
ATOM     25  C   UNL     1      -1.150   9.489  17.827  0.00  0.00    +0.000 A 
ATOM     26  C   UNL     1      -1.935   9.675  16.685  0.00  0.00    +0.000 A 
BRANCH  21  28
ATOM     27  C   UNL     1      -3.353  10.245  14.336  0.00  0.00    +0.000 C 
ATOM     28  O   UNL     1      -3.392  11.180  15.407  0.00  0.00    +0.000 OA
ENDBRANCH  21  28
ENDBRANCH  20  24
ENDBRANCH  19  20
ENDBRANCH   1  19
TORSDOF 6
ENDMDL
MODEL 7
REMARK VINA RESULT:      -7.5      3.342     10.132
REMARK  Name = 
REMARK  8 active torsions:
REMARK  status: ('A' for Active; 'I' for Inactive)
REMARK    1  A    between atoms: C_1  and  O_2
REMARK    2  A    between atoms: O_2  and  C_3
REMARK    3  A    between atoms: C_6  and  C_7
REMARK    4  A    between atoms: C_7  and  C_8
REMARK    5  A    between atoms: C_8  and  C_9
REMARK    6  A    between atoms: N_14  and  S_15
REMARK    7  A    between atoms: S_15  and  C_18
REMARK    8  A    between atoms: C_21  and  C_22
REMARK                            x       y       z     vdW  Elec       q    Type
REMARK                         _______ _______ _______ _____ _____    ______ ____
ROOT
ATOM      1  C   UNL     1       2.104   8.323  18.284  0.00  0.00    +0.000 C 
ATOM      2  O   UNL     1       2.331   8.925  17.233  0.00  0.00    +0.000 OA
ATOM      3  N   UNL     1       1.340   8.879  19.296  0.00  0.00    +0.000 N 
ATOM      4  C   UNL     1       0.746  10.199  19.072  0.00  0.00    +0.000 C 
ATOM      5  C   UNL     1      -0.685  10.240  19.610  0.00  0.00    +0.000 C 
ATOM      6  N   UNL     1      -0.757   9.847  21.053  0.00  0.00    +0.000 NA
ATOM      7  C   UNL     1      -0.180   8.473  21.234  0.00  0.00    +0.000 C 
ATOM      8  C   UNL     1       1.252   8.371  20.677  0.00  0.00    +0.000 C 
ENDROOT
BRANCH   6   9
ATOM      9  S   UNL     1      -0.214  10.987  22.206  0.00  0.00    +0.000 S 
ATOM     10  O   UNL     1      -0.034  10.290  23.459  0.00  0.00    +0.000 OA
ATOM     11  O   UNL     1       0.878  11.738  21.620  0.00  0.00    +0.000 OA
BRANCH   9  12
ATOM     12  C   UNL     1      -1.601  12.075  22.371  0.00  0.00    +0.000 A 
ATOM     13  C   UNL     1      -2.494  11.881  23.425  0.00  0.00    +0.000 A 
ATOM     14  C   UNL     1      -3.615  12.705  23.528  0.00  0.00    +0.000 A 
ATOM     15  C   UNL     1      -3.841  13.720  22.589  0.00  0.00    +0.000 A 
ATOM     16  C   UNL     1      -5.024  14.636  22.716  0.00  0.00    +0.000 C 
ATOM     17  C   UNL     1      -2.933  13.901  21.535  0.00  0.00    +0.000 A 
ATOM     18  C   UNL     1      -1.812  13.080  21.423  0.00  0.00    +0.000 A 
ENDBRANCH   9  12
ENDBRANCH   6   9
BRANCH   1  19
ATOM     19  C   UNL     1       2.596   6.910  18.507  0.00  0.00    +0.000 C 
BRANCH  19  20
ATOM     20  C   UNL     1       4.120   6.847  18.498  0.00  0.00    +0.000 C 
BRANCH  20  24
ATOM     21  C   UNL     1       5.534   4.278  15.332  0.00  0.00    +0.000 A 
ATOM     22  C   UNL     1       5.573   5.666  15.186  0.00  0.00    +0.000 A 
ATOM     23  C   UNL     1       5.127   6.499  16.211  0.00  0.00    +0.000 A 
ATOM     24  C   UNL     1       4.622   5.951  17.397  0.00  0.00    +0.000 A 
ATOM     25  C   UNL     1       4.555   4.560  17.528  0.00  0.00    +0.000 A 
ATOM     26  C   UNL     1       5.012   3.726  16.502  0.00  0.00    +0.000 A 
BRANCH  21  28
ATOM     27  C   UNL     1       6.741   4.305  13.303  0.00  0.00    +0.000 C 
ATOM     28  O   UNL     1       5.989   3.565  14.257  0.00  0.00    +0.000 OA
ENDBRANCH  21  28
ENDBRANCH  20  24
ENDBRANCH  19  20
ENDBRANCH   1  19
TORSDOF 6
ENDMDL
MODEL 8
REMARK VINA RESULT:      -7.4      4.287     10.333
REMARK  Name = 
REMARK  8 active torsions:
REMARK  status: ('A' for Active; 'I' for Inactive)
REMARK    1  A    between atoms: C_1  and  O_2
REMARK    2  A    between atoms: O_2  and  C_3
REMARK    3  A    between atoms: C_6  and  C_7
REMARK    4  A    between atoms: C_7  and  C_8
REMARK    5  A    between atoms: C_8  and  C_9
REMARK    6  A    between atoms: N_14  and  S_15
REMARK    7  A    between atoms: S_15  and  C_18
REMARK    8  A    between atoms: C_21  and  C_22
REMARK                            x       y       z     vdW  Elec       q    Type
REMARK                         _______ _______ _______ _____ _____    ______ ____
ROOT
ATOM      1  C   UNL     1       1.890  10.144  18.091  0.00  0.00    +0.000 C 
ATOM      2  O   UNL     1       2.751  10.757  17.459  0.00  0.00    +0.000 OA
ATOM      3  N   UNL     1       1.104  10.762  19.048  0.00  0.00    +0.000 N 
ATOM      4  C   UNL     1       1.277  12.200  19.266  0.00  0.00    +0.000 C 
ATOM      5  C   UNL     1      -0.080  12.882  19.446  0.00  0.00    +0.000 C 
ATOM      6  N   UNL     1      -0.883  12.257  20.544  0.00  0.00    +0.000 NA
ATOM      7  C   UNL     1      -1.077  10.795  20.263  0.00  0.00    +0.000 C 
ATOM      8  C   UNL     1       0.263  10.068  20.041  0.00  0.00    +0.000 C 
ENDROOT
BRANCH   6   9
ATOM      9  S   UNL     1      -0.416  12.600  22.153  0.00  0.00    +0.000 S 
ATOM     10  O   UNL     1      -0.413  11.354  22.884  0.00  0.00    +0.000 OA
ATOM     11  O   UNL     1       0.772  13.431  22.111  0.00  0.00    +0.000 OA
BRANCH   9  12
ATOM     12  C   UNL     1      -1.756  13.592  22.752  0.00  0.00    +0.000 A 
ATOM     13  C   UNL     1      -1.535  14.451  23.828  0.00  0.00    +0.000 A 
ATOM     14  C   UNL     1      -2.600  15.195  24.335  0.00  0.00    +0.000 A 
ATOM     15  C   UNL     1      -3.877  15.087  23.768  0.00  0.00    +0.000 A 
ATOM     16  C   UNL     1      -5.019  15.915  24.282  0.00  0.00    +0.000 C 
ATOM     17  C   UNL     1      -4.082  14.218  22.687  0.00  0.00    +0.000 A 
ATOM     18  C   UNL     1      -3.022  13.468  22.176  0.00  0.00    +0.000 A 
ENDBRANCH   9  12
ENDBRANCH   6   9
BRANCH   1  19
ATOM     19  C   UNL     1       1.593   8.687  17.812  0.00  0.00    +0.000 C 
BRANCH  19  20
ATOM     20  C   UNL     1       2.790   7.805  18.154  0.00  0.00    +0.000 C 
BRANCH  20  24
ATOM     21  C   UNL     1       1.551   3.981  19.725  0.00  0.00    +0.000 A 
ATOM     22  C   UNL     1       1.734   5.071  20.580  0.00  0.00    +0.000 A 
ATOM     23  C   UNL     1       2.124   6.310  20.074  0.00  0.00    +0.000 A 
ATOM     24  C   UNL     1       2.348   6.474  18.701  0.00  0.00    +0.000 A 
ATOM     25  C   UNL     1       2.195   5.373  17.852  0.00  0.00    +0.000 A 
ATOM     26  C   UNL     1       1.794   4.132  18.360  0.00  0.00    +0.000 A 
BRANCH  21  28
ATOM     27  C   UNL     1       1.645   2.645  21.669  0.00  0.00    +0.000 C 
ATOM     28  O   UNL     1       1.178   2.816  20.336  0.00  0.00    +0.000 OA
ENDBRANCH  21  28
ENDBRANCH  20  24
ENDBRANCH  19  20
ENDBRANCH   1  19
TORSDOF 6
ENDMDL
MODEL 9
REMARK VINA RESULT:      -7.3      1.520      1.970
REMARK  Name = 
REMARK  8 active torsions:
REMARK  status: ('A' for Active; 'I' for Inactive)
REMARK    1  A    between atoms: C_1  and  O_2
REMARK    2  A    between atoms: O_2  and  C_3
REMARK    3  A    between atoms: C_6  and  C_7
REMARK    4  A    between atoms: C_7  and  C_8
REMARK    5  A    between atoms: C_8  and  C_9
REMARK    6  A    between atoms: N_14  and  S_15
REMARK    7  A    between atoms: S_15  and  C_18
REMARK    8  A    between atoms: C_21  and  C_22
REMARK                            x       y       z     vdW  Elec       q    Type
REMARK                         _______ _______ _______ _____ _____    ______ ____
ROOT
ATOM      1  C   UNL     1       1.670   7.603  20.288  0.00  0.00    +0.000 C 
ATOM      2  O   UNL     1       1.414   7.809  21.476  0.00  0.00    +0.000 OA
ATOM      3  N   UNL     1       1.938   6.333  19.806  0.00  0.00    +0.000 N 
ATOM      4  C   UNL     1       1.857   5.205  20.738  0.00  0.00    +0.000 C 
ATOM      5  C   UNL     1       1.179   4.008  20.071  0.00  0.00    +0.000 C 
ATOM      6  N   UNL     1       1.857   3.614  18.796  0.00  0.00    +0.000 NA
ATOM      7  C   UNL     1       1.880   4.781  17.851  0.00  0.00    +0.000 C 
ATOM      8  C   UNL     1       2.526   6.025  18.490  0.00  0.00    +0.000 C 
ENDROOT
BRANCH   6   9
ATOM      9  S   UNL     1       3.350   2.790  18.921  0.00  0.00    +0.000 S 
ATOM     10  O   UNL     1       3.574   2.498  20.318  0.00  0.00    +0.000 OA
ATOM     11  O   UNL     1       3.362   1.725  17.936  0.00  0.00    +0.000 OA
BRANCH   9  12
ATOM     12  C   UNL     1       4.523   4.016  18.415  0.00  0.00    +0.000 A 
ATOM     13  C   UNL     1       4.765   4.201  17.054  0.00  0.00    +0.000 A 
ATOM     14  C   UNL     1       5.727   5.130  16.653  0.00  0.00    +0.000 A 
ATOM     15  C   UNL     1       6.438   5.873  17.605  0.00  0.00    +0.000 A 
ATOM     16  C   UNL     1       7.444   6.903  17.181  0.00  0.00    +0.000 C 
ATOM     17  C   UNL     1       6.182   5.673  18.969  0.00  0.00    +0.000 A 
ATOM     18  C   UNL     1       5.225   4.745  19.378  0.00  0.00    +0.000 A 
ENDBRANCH   9  12
ENDBRANCH   6   9
BRANCH   1  19
ATOM     19  C   UNL     1       1.644   8.720  19.269  0.00  0.00    +0.000 C 
BRANCH  19  20
ATOM     20  C   UNL     1       1.014   9.982  19.850  0.00  0.00    +0.000 C 
BRANCH  20  24
ATOM     21  C   UNL     1      -2.537  11.110  17.673  0.00  0.00    +0.000 A 
ATOM     22  C   UNL     1      -1.691  10.115  17.178  0.00  0.00    +0.000 A 
ATOM     23  C   UNL     1      -0.549   9.741  17.884  0.00  0.00    +0.000 A 
ATOM     24  C   UNL     1      -0.230  10.369  19.095  0.00  0.00    +0.000 A 
ATOM     25  C   UNL     1      -1.062  11.387  19.572  0.00  0.00    +0.000 A 
ATOM     26  C   UNL     1      -2.213  11.754  18.867  0.00  0.00    +0.000 A 
BRANCH  21  28
ATOM     27  C   UNL     1      -3.632  10.781  15.607  0.00  0.00    +0.000 C 
ATOM     28  O   UNL     1      -3.620  11.399  16.889  0.00  0.00    +0.000 OA
ENDBRANCH  21  28
ENDBRANCH  20  24
ENDBRANCH  19  20
ENDBRANCH   1  19
TORSDOF 6
ENDMDL
