MODEL 1
REMARK VINA RESULT:      -6.2      0.000      0.000
REMARK  Name = 
REMARK  15 active torsions:
REMARK  status: ('A' for Active; 'I' for Inactive)
REMARK    1  A    between atoms: C_1  and  C_2
REMARK    2  A    between atoms: C_2  and  C_3
REMARK    3  A    between atoms: C_3  and  C_4
REMARK    4  A    between atoms: C_4  and  C_5
REMARK    5  A    between atoms: C_5  and  C_6
REMARK    6  A    between atoms: C_6  and  C_7
REMARK    7  A    between atoms: C_7  and  C_8
REMARK    8  A    between atoms: C_8  and  O_9
REMARK    9  A    between atoms: C_8  and  C_10
REMARK   10  A    between atoms: C_11  and  C_12
REMARK   11  A    between atoms: C_13  and  C_14
REMARK   12  A    between atoms: C_15  and  C_16
REMARK   13  A    between atoms: C_16  and  C_17
REMARK   14  A    between atoms: C_17  and  C_18
REMARK   15  A    between atoms: C_18  and  O_19
REMARK                            x       y       z     vdW  Elec       q    Type
REMARK                         _______ _______ _______ _____ _____    ______ ____
ROOT
ATOM      1  C   UNL     1       6.339   5.732  18.339  0.00  0.00    +0.000 C 
ATOM      2  C   UNL     1       6.476   6.793  17.521  0.00  0.00    +0.000 C 
ENDROOT
BRANCH   2   3
ATOM      3  C   UNL     1       7.381   7.863  17.773  0.00  0.00    +0.000 C 
ATOM      4  C   UNL     1       8.119   8.789  18.039  0.00  0.00    +0.000 C 
BRANCH   4   5
ATOM      5  C   UNL     1       9.047   9.987  18.356  0.00  0.00    +0.000 C 
ATOM      6  C   UNL     1       9.882  10.957  18.605  0.00  0.00    +0.000 C 
BRANCH   6   7
ATOM      7  C   UNL     1      10.855  12.087  18.895  0.00  0.00    +0.000 C 
BRANCH   7   8
ATOM      8  C   UNL     1      11.480  12.584  17.601  0.00  0.00    +0.000 C 
BRANCH   8   9
ATOM      9  C   UNL     1      10.576  13.600  16.924  0.00  0.00    +0.000 C 
BRANCH   9  10
ATOM     10  O   UNL     1      11.302  14.312  15.932  0.00  0.00    +0.000 OA
ATOM     11  H   UNL     1      10.700  14.477  15.186  0.00  0.00    +0.000 HD
ENDBRANCH   9  10
ENDBRANCH   8   9
ENDBRANCH   7   8
ENDBRANCH   6   7
ENDBRANCH   4   5
ENDBRANCH   2   3
BRANCH   1  12
ATOM     12  C   UNL     1       5.282   4.666  18.156  0.00  0.00    +0.000 C 
BRANCH  12  13
ATOM     13  O   UNL     1       5.779   3.446  18.693  0.00  0.00    +0.000 OA
ATOM     14  H   UNL     1       5.044   2.989  19.132  0.00  0.00    +0.000 HD
ENDBRANCH  12  13
BRANCH  12  15
ATOM     15  C   UNL     1       3.916   4.969  18.812  0.00  0.00    +0.000 C 
BRANCH  15  16
ATOM     16  C   UNL     1       2.877   5.496  17.834  0.00  0.00    +0.000 C 
BRANCH  16  17
ATOM     17  C   UNL     1       1.682   4.569  17.699  0.00  0.00    +0.000 C 
BRANCH  17  18
ATOM     18  C   UNL     1       2.032   3.238  18.353  0.00  0.00    +0.000 C 
BRANCH  18  19
ATOM     19  C   UNL     1       0.905   2.809  19.268  0.00  0.00    +0.000 C 
BRANCH  19  21
ATOM     20  C   UNL     1       1.819   2.762  21.576  0.00  0.00    +0.000 C 
ATOM     21  C   UNL     1       0.978   3.549  20.594  0.00  0.00    +0.000 C 
ENDBRANCH  19  21
ENDBRANCH  18  19
ENDBRANCH  17  18
ENDBRANCH  16  17
ENDBRANCH  15  16
ENDBRANCH  12  15
ENDBRANCH   1  12
TORSDOF 14
ENDMDL
MODEL 2
REMARK VINA RESULT:      -6.2      1.189      1.384
REMARK  Name = 
REMARK  15 active torsions:
REMARK  status: ('A' for Active; 'I' for Inactive)
REMARK    1  A    between atoms: C_1  and  C_2
REMARK    2  A    between atoms: C_2  and  C_3
REMARK    3  A    between atoms: C_3  and  C_4
REMARK    4  A    between atoms: C_4  and  C_5
REMARK    5  A    between atoms: C_5  and  C_6
REMARK    6  A    between atoms: C_6  and  C_7
REMARK    7  A    between atoms: C_7  and  C_8
REMARK    8  A    between atoms: C_8  and  O_9
REMARK    9  A    between atoms: C_8  and  C_10
REMARK   10  A    between atoms: C_11  and  C_12
REMARK   11  A    between atoms: C_13  and  C_14
REMARK   12  A    between atoms: C_15  and  C_16
REMARK   13  A    between atoms: C_16  and  C_17
REMARK   14  A    between atoms: C_17  and  C_18
REMARK   15  A    between atoms: C_18  and  O_19
REMARK                            x       y       z     vdW  Elec       q    Type
REMARK                         _______ _______ _______ _____ _____    ______ ____
ROOT
ATOM      1  C   UNL     1       7.131   6.153  16.920  0.00  0.00    +0.000 C 
ATOM      2  C   UNL     1       7.336   6.840  18.061  0.00  0.00    +0.000 C 
ENDROOT
BRANCH   2   3
ATOM      3  C   UNL     1       8.010   8.093  18.109  0.00  0.00    +0.000 C 
ATOM      4  C   UNL     1       8.528   9.190  18.156  0.00  0.00    +0.000 C 
BRANCH   4   5
ATOM      5  C   UNL     1       9.193  10.587  18.185  0.00  0.00    +0.000 C 
ATOM      6  C   UNL     1       9.695  11.790  18.236  0.00  0.00    +0.000 C 
BRANCH   6   7
ATOM      7  C   UNL     1      10.279  13.191  18.296  0.00  0.00    +0.000 C 
BRANCH   7   8
ATOM      8  C   UNL     1      10.898  13.556  16.955  0.00  0.00    +0.000 C 
BRANCH   8   9
ATOM      9  C   UNL     1      11.389  14.994  16.964  0.00  0.00    +0.000 C 
BRANCH   9  10
ATOM     10  O   UNL     1      10.877  15.689  15.835  0.00  0.00    +0.000 OA
ATOM     11  H   UNL     1      10.163  16.271  16.146  0.00  0.00    +0.000 HD
ENDBRANCH   9  10
ENDBRANCH   8   9
ENDBRANCH   7   8
ENDBRANCH   6   7
ENDBRANCH   4   5
ENDBRANCH   2   3
BRANCH   1  12
ATOM     12  C   UNL     1       6.546   4.759  16.878  0.00  0.00    +0.000 C 
BRANCH  12  13
ATOM     13  O   UNL     1       6.748   4.150  18.147  0.00  0.00    +0.000 OA
ATOM     14  H   UNL     1       6.097   4.519  18.765  0.00  0.00    +0.000 HD
ENDBRANCH  12  13
BRANCH  12  15
ATOM     15  C   UNL     1       5.042   4.684  16.533  0.00  0.00    +0.000 C 
BRANCH  15  16
ATOM     16  C   UNL     1       4.355   3.443  17.082  0.00  0.00    +0.000 C 
BRANCH  16  17
ATOM     17  C   UNL     1       2.918   3.708  17.497  0.00  0.00    +0.000 C 
BRANCH  17  18
ATOM     18  C   UNL     1       2.527   2.680  18.551  0.00  0.00    +0.000 C 
BRANCH  18  19
ATOM     19  C   UNL     1       1.047   2.796  18.850  0.00  0.00    +0.000 C 
BRANCH  19  21
ATOM     20  C   UNL     1       1.936   3.098  21.149  0.00  0.00    +0.000 C 
ATOM     21  C   UNL     1       0.822   3.472  20.193  0.00  0.00    +0.000 C 
ENDBRANCH  19  21
ENDBRANCH  18  19
ENDBRANCH  17  18
ENDBRANCH  16  17
ENDBRANCH  15  16
ENDBRANCH  12  15
ENDBRANCH   1  12
TORSDOF 14
ENDMDL
MODEL 3
REMARK VINA RESULT:      -6.1      1.193      1.368
REMARK  Name = 
REMARK  15 active torsions:
REMARK  status: ('A' for Active; 'I' for Inactive)
REMARK    1  A    between atoms: C_1  and  C_2
REMARK    2  A    between atoms: C_2  and  C_3
REMARK    3  A    between atoms: C_3  and  C_4
REMARK    4  A    between atoms: C_4  and  C_5
REMARK    5  A    between atoms: C_5  and  C_6
REMARK    6  A    between atoms: C_6  and  C_7
REMARK    7  A    between atoms: C_7  and  C_8
REMARK    8  A    between atoms: C_8  and  O_9
REMARK    9  A    between atoms: C_8  and  C_10
REMARK   10  A    between atoms: C_11  and  C_12
REMARK   11  A    between atoms: C_13  and  C_14
REMARK   12  A    between atoms: C_15  and  C_16
REMARK   13  A    between atoms: C_16  and  C_17
REMARK   14  A    between atoms: C_17  and  C_18
REMARK   15  A    between atoms: C_18  and  O_19
REMARK                            x       y       z     vdW  Elec       q    Type
REMARK                         _______ _______ _______ _____ _____    ______ ____
ROOT
ATOM      1  C   UNL     1       6.738   5.943  18.084  0.00  0.00    +0.000 C 
ATOM      2  C   UNL     1       7.433   6.868  17.395  0.00  0.00    +0.000 C 
ENDROOT
BRANCH   2   3
ATOM      3  C   UNL     1       8.100   7.965  18.012  0.00  0.00    +0.000 C 
ATOM      4  C   UNL     1       8.612   8.919  18.559  0.00  0.00    +0.000 C 
BRANCH   4   5
ATOM      5  C   UNL     1       9.268  10.151  19.230  0.00  0.00    +0.000 C 
ATOM      6  C   UNL     1       9.870  11.185  19.748  0.00  0.00    +0.000 C 
BRANCH   6   7
ATOM      7  C   UNL     1      10.572  12.390  20.352  0.00  0.00    +0.000 C 
BRANCH   7   8
ATOM      8  C   UNL     1      11.878  12.655  19.620  0.00  0.00    +0.000 C 
BRANCH   8   9
ATOM      9  C   UNL     1      11.620  12.956  18.153  0.00  0.00    +0.000 C 
BRANCH   9  10
ATOM     10  O   UNL     1      12.240  11.971  17.339  0.00  0.00    +0.000 OA
ATOM     11  H   UNL     1      12.279  11.145  17.852  0.00  0.00    +0.000 HD
ENDBRANCH   9  10
ENDBRANCH   8   9
ENDBRANCH   7   8
ENDBRANCH   6   7
ENDBRANCH   4   5
ENDBRANCH   2   3
BRANCH   1  12
ATOM     12  C   UNL     1       5.910   4.860  17.429  0.00  0.00    +0.000 C 
BRANCH  12  13
ATOM     13  O   UNL     1       5.966   3.698  18.246  0.00  0.00    +0.000 OA
ATOM     14  H   UNL     1       6.103   3.982  19.164  0.00  0.00    +0.000 HD
ENDBRANCH  12  13
BRANCH  12  15
ATOM     15  C   UNL     1       4.427   5.217  17.187  0.00  0.00    +0.000 C 
BRANCH  15  16
ATOM     16  C   UNL     1       3.688   5.627  18.451  0.00  0.00    +0.000 C 
BRANCH  16  17
ATOM     17  C   UNL     1       2.185   5.442  18.334  0.00  0.00    +0.000 C 
BRANCH  17  18
ATOM     18  C   UNL     1       1.840   4.028  18.787  0.00  0.00    +0.000 C 
BRANCH  18  19
ATOM     19  C   UNL     1       1.041   4.087  20.072  0.00  0.00    +0.000 C 
BRANCH  19  21
ATOM     20  C   UNL     1       2.997   2.776  20.858  0.00  0.00    +0.000 C 
ATOM     21  C   UNL     1       1.920   3.759  21.267  0.00  0.00    +0.000 C 
ENDBRANCH  19  21
ENDBRANCH  18  19
ENDBRANCH  17  18
ENDBRANCH  16  17
ENDBRANCH  15  16
ENDBRANCH  12  15
ENDBRANCH   1  12
TORSDOF 14
ENDMDL
MODEL 4
REMARK VINA RESULT:      -6.1      1.152      1.407
REMARK  Name = 
REMARK  15 active torsions:
REMARK  status: ('A' for Active; 'I' for Inactive)
REMARK    1  A    between atoms: C_1  and  C_2
REMARK    2  A    between atoms: C_2  and  C_3
REMARK    3  A    between atoms: C_3  and  C_4
REMARK    4  A    between atoms: C_4  and  C_5
REMARK    5  A    between atoms: C_5  and  C_6
REMARK    6  A    between atoms: C_6  and  C_7
REMARK    7  A    between atoms: C_7  and  C_8
REMARK    8  A    between atoms: C_8  and  O_9
REMARK    9  A    between atoms: C_8  and  C_10
REMARK   10  A    between atoms: C_11  and  C_12
REMARK   11  A    between atoms: C_13  and  C_14
REMARK   12  A    between atoms: C_15  and  C_16
REMARK   13  A    between atoms: C_16  and  C_17
REMARK   14  A    between atoms: C_17  and  C_18
REMARK   15  A    between atoms: C_18  and  O_19
REMARK                            x       y       z     vdW  Elec       q    Type
REMARK                         _______ _______ _______ _____ _____    ______ ____
ROOT
ATOM      1  C   UNL     1       6.603   5.865  18.224  0.00  0.00    +0.000 C 
ATOM      2  C   UNL     1       7.330   6.604  17.363  0.00  0.00    +0.000 C 
ENDROOT
BRANCH   2   3
ATOM      3  C   UNL     1       7.824   7.903  17.672  0.00  0.00    +0.000 C 
ATOM      4  C   UNL     1       8.274   9.011  17.878  0.00  0.00    +0.000 C 
BRANCH   4   5
ATOM      5  C   UNL     1       8.869  10.412  18.159  0.00  0.00    +0.000 C 
ATOM      6  C   UNL     1       9.316  11.605  18.437  0.00  0.00    +0.000 C 
BRANCH   6   7
ATOM      7  C   UNL     1       9.838  12.995  18.760  0.00  0.00    +0.000 C 
BRANCH   7   8
ATOM      8  C   UNL     1      10.546  13.583  17.550  0.00  0.00    +0.000 C 
BRANCH   8   9
ATOM      9  C   UNL     1      10.667  15.092  17.678  0.00  0.00    +0.000 C 
BRANCH   9  10
ATOM     10  O   UNL     1      10.545  15.699  16.399  0.00  0.00    +0.000 OA
ATOM     11  H   UNL     1      11.141  15.228  15.791  0.00  0.00    +0.000 HD
ENDBRANCH   9  10
ENDBRANCH   8   9
ENDBRANCH   7   8
ENDBRANCH   6   7
ENDBRANCH   4   5
ENDBRANCH   2   3
BRANCH   1  12
ATOM     12  C   UNL     1       5.955   4.549  17.855  0.00  0.00    +0.000 C 
BRANCH  12  13
ATOM     13  O   UNL     1       5.756   3.799  19.047  0.00  0.00    +0.000 OA
ATOM     14  H   UNL     1       6.036   4.347  19.798  0.00  0.00    +0.000 HD
ENDBRANCH  12  13
BRANCH  12  15
ATOM     15  C   UNL     1       4.602   4.663  17.118  0.00  0.00    +0.000 C 
BRANCH  15  16
ATOM     16  C   UNL     1       3.729   5.801  17.623  0.00  0.00    +0.000 C 
BRANCH  16  17
ATOM     17  C   UNL     1       2.389   5.318  18.148  0.00  0.00    +0.000 C 
BRANCH  17  18
ATOM     18  C   UNL     1       2.135   3.919  17.598  0.00  0.00    +0.000 C 
BRANCH  18  19
ATOM     19  C   UNL     1       1.179   3.180  18.510  0.00  0.00    +0.000 C 
BRANCH  19  21
ATOM     20  C   UNL     1       3.108   1.620  18.421  0.00  0.00    +0.000 C 
ATOM     21  C   UNL     1       1.886   2.033  19.213  0.00  0.00    +0.000 C 
ENDBRANCH  19  21
ENDBRANCH  18  19
ENDBRANCH  17  18
ENDBRANCH  16  17
ENDBRANCH  15  16
ENDBRANCH  12  15
ENDBRANCH   1  12
TORSDOF 14
ENDMDL
MODEL 5
REMARK VINA RESULT:      -6.0      3.248      4.700
REMARK  Name = 
REMARK  15 active torsions:
REMARK  status: ('A' for Active; 'I' for Inactive)
REMARK    1  A    between atoms: C_1  and  C_2
REMARK    2  A    between atoms: C_2  and  C_3
REMARK    3  A    between atoms: C_3  and  C_4
REMARK    4  A    between atoms: C_4  and  C_5
REMARK    5  A    between atoms: C_5  and  C_6
REMARK    6  A    between atoms: C_6  and  C_7
REMARK    7  A    between atoms: C_7  and  C_8
REMARK    8  A    between atoms: C_8  and  O_9
REMARK    9  A    between atoms: C_8  and  C_10
REMARK   10  A    between atoms: C_11  and  C_12
REMARK   11  A    between atoms: C_13  and  C_14
REMARK   12  A    between atoms: C_15  and  C_16
REMARK   13  A    between atoms: C_16  and  C_17
REMARK   14  A    between atoms: C_17  and  C_18
REMARK   15  A    between atoms: C_18  and  O_19
REMARK                            x       y       z     vdW  Elec       q    Type
REMARK                         _______ _______ _______ _____ _____    ______ ____
ROOT
ATOM      1  C   UNL     1       7.388   5.645  17.883  0.00  0.00    +0.000 C 
ATOM      2  C   UNL     1       7.313   6.885  17.361  0.00  0.00    +0.000 C 
ENDROOT
BRANCH   2   3
ATOM      3  C   UNL     1       7.949   8.018  17.943  0.00  0.00    +0.000 C 
ATOM      4  C   UNL     1       8.444   9.020  18.416  0.00  0.00    +0.000 C 
BRANCH   4   5
ATOM      5  C   UNL     1       9.097  10.298  18.996  0.00  0.00    +0.000 C 
ATOM      6  C   UNL     1       9.600  11.374  19.535  0.00  0.00    +0.000 C 
BRANCH   6   7
ATOM      7  C   UNL     1      10.185  12.628  20.162  0.00  0.00    +0.000 C 
BRANCH   7   8
ATOM      8  C   UNL     1      11.545  12.932  19.551  0.00  0.00    +0.000 C 
BRANCH   8   9
ATOM      9  C   UNL     1      12.207  11.659  19.053  0.00  0.00    +0.000 C 
BRANCH   9  10
ATOM     10  O   UNL     1      12.279  11.674  17.634  0.00  0.00    +0.000 OA
ATOM     11  H   UNL     1      11.421  11.371  17.291  0.00  0.00    +0.000 HD
ENDBRANCH   9  10
ENDBRANCH   8   9
ENDBRANCH   7   8
ENDBRANCH   6   7
ENDBRANCH   4   5
ENDBRANCH   2   3
BRANCH   1  12
ATOM     12  C   UNL     1       6.601   4.467  17.354  0.00  0.00    +0.000 C 
BRANCH  12  13
ATOM     13  O   UNL     1       6.104   3.727  18.463  0.00  0.00    +0.000 OA
ATOM     14  H   UNL     1       5.185   3.998  18.618  0.00  0.00    +0.000 HD
ENDBRANCH  12  13
BRANCH  12  15
ATOM     15  C   UNL     1       5.414   4.825  16.433  0.00  0.00    +0.000 C 
BRANCH  15  16
ATOM     16  C   UNL     1       5.808   5.686  15.243  0.00  0.00    +0.000 C 
BRANCH  16  17
ATOM     17  C   UNL     1       6.664   4.935  14.239  0.00  0.00    +0.000 C 
BRANCH  17  18
ATOM     18  C   UNL     1       5.857   3.757  13.707  0.00  0.00    +0.000 C 
BRANCH  18  19
ATOM     19  C   UNL     1       6.361   3.376  12.331  0.00  0.00    +0.000 C 
BRANCH  19  21
ATOM     20  C   UNL     1       4.067   3.225  11.392  0.00  0.00    +0.000 C 
ATOM     21  C   UNL     1       5.361   2.474  11.625  0.00  0.00    +0.000 C 
ENDBRANCH  19  21
ENDBRANCH  18  19
ENDBRANCH  17  18
ENDBRANCH  16  17
ENDBRANCH  15  16
ENDBRANCH  12  15
ENDBRANCH   1  12
TORSDOF 14
ENDMDL
MODEL 6
REMARK VINA RESULT:      -6.0      1.158      1.519
REMARK  Name = 
REMARK  15 active torsions:
REMARK  status: ('A' for Active; 'I' for Inactive)
REMARK    1  A    between atoms: C_1  and  C_2
REMARK    2  A    between atoms: C_2  and  C_3
REMARK    3  A    between atoms: C_3  and  C_4
REMARK    4  A    between atoms: C_4  and  C_5
REMARK    5  A    between atoms: C_5  and  C_6
REMARK    6  A    between atoms: C_6  and  C_7
REMARK    7  A    between atoms: C_7  and  C_8
REMARK    8  A    between atoms: C_8  and  O_9
REMARK    9  A    between atoms: C_8  and  C_10
REMARK   10  A    between atoms: C_11  and  C_12
REMARK   11  A    between atoms: C_13  and  C_14
REMARK   12  A    between atoms: C_15  and  C_16
REMARK   13  A    between atoms: C_16  and  C_17
REMARK   14  A    between atoms: C_17  and  C_18
REMARK   15  A    between atoms: C_18  and  O_19
REMARK                            x       y       z     vdW  Elec       q    Type
REMARK                         _______ _______ _______ _____ _____    ______ ____
ROOT
ATOM      1  C   UNL     1       6.796   6.344  17.538  0.00  0.00    +0.000 C 
ATOM      2  C   UNL     1       7.862   6.856  18.184  0.00  0.00    +0.000 C 
ENDROOT
BRANCH   2   3
ATOM      3  C   UNL     1       8.183   8.243  18.187  0.00  0.00    +0.000 C 
ATOM      4  C   UNL     1       8.442   9.427  18.128  0.00  0.00    +0.000 C 
BRANCH   4   5
ATOM      5  C   UNL     1       8.803  10.931  18.053  0.00  0.00    +0.000 C 
ATOM      6  C   UNL     1       9.052  12.211  18.029  0.00  0.00    +0.000 C 
BRANCH   6   7
ATOM      7  C   UNL     1       9.342  13.702  18.000  0.00  0.00    +0.000 C 
BRANCH   7   8
ATOM      8  C   UNL     1      10.829  13.949  18.200  0.00  0.00    +0.000 C 
BRANCH   8   9
ATOM      9  C   UNL     1      11.321  15.045  17.269  0.00  0.00    +0.000 C 
BRANCH   9  10
ATOM     10  O   UNL     1      11.083  14.677  15.918  0.00  0.00    +0.000 OA
ATOM     11  H   UNL     1      11.811  14.096  15.637  0.00  0.00    +0.000 HD
ENDBRANCH   9  10
ENDBRANCH   8   9
ENDBRANCH   7   8
ENDBRANCH   6   7
ENDBRANCH   4   5
ENDBRANCH   2   3
BRANCH   1  12
ATOM     12  C   UNL     1       6.529   4.861  17.410  0.00  0.00    +0.000 C 
BRANCH  12  13
ATOM     13  O   UNL     1       7.654   4.159  17.924  0.00  0.00    +0.000 OA
ATOM     14  H   UNL     1       8.127   3.760  17.177  0.00  0.00    +0.000 HD
ENDBRANCH  12  13
BRANCH  12  15
ATOM     15  C   UNL     1       5.262   4.352  18.134  0.00  0.00    +0.000 C 
BRANCH  15  16
ATOM     16  C   UNL     1       4.024   4.338  17.251  0.00  0.00    +0.000 C 
BRANCH  16  17
ATOM     17  C   UNL     1       2.887   5.161  17.829  0.00  0.00    +0.000 C 
BRANCH  17  18
ATOM     18  C   UNL     1       1.604   4.344  17.727  0.00  0.00    +0.000 C 
BRANCH  18  19
ATOM     19  C   UNL     1       1.862   2.931  18.203  0.00  0.00    +0.000 C 
BRANCH  19  21
ATOM     20  C   UNL     1       0.798   3.770  20.283  0.00  0.00    +0.000 C 
ATOM     21  C   UNL     1       1.879   2.871  19.722  0.00  0.00    +0.000 C 
ENDBRANCH  19  21
ENDBRANCH  18  19
ENDBRANCH  17  18
ENDBRANCH  16  17
ENDBRANCH  15  16
ENDBRANCH  12  15
ENDBRANCH   1  12
TORSDOF 14
ENDMDL
MODEL 7
REMARK VINA RESULT:      -5.9      2.282      3.449
REMARK  Name = 
REMARK  15 active torsions:
REMARK  status: ('A' for Active; 'I' for Inactive)
REMARK    1  A    between atoms: C_1  and  C_2
REMARK    2  A    between atoms: C_2  and  C_3
REMARK    3  A    between atoms: C_3  and  C_4
REMARK    4  A    between atoms: C_4  and  C_5
REMARK    5  A    between atoms: C_5  and  C_6
REMARK    6  A    between atoms: C_6  and  C_7
REMARK    7  A    between atoms: C_7  and  C_8
REMARK    8  A    between atoms: C_8  and  O_9
REMARK    9  A    between atoms: C_8  and  C_10
REMARK   10  A    between atoms: C_11  and  C_12
REMARK   11  A    between atoms: C_13  and  C_14
REMARK   12  A    between atoms: C_15  and  C_16
REMARK   13  A    between atoms: C_16  and  C_17
REMARK   14  A    between atoms: C_17  and  C_18
REMARK   15  A    between atoms: C_18  and  O_19
REMARK                            x       y       z     vdW  Elec       q    Type
REMARK                         _______ _______ _______ _____ _____    ______ ____
ROOT
ATOM      1  C   UNL     1       5.001   3.804  17.644  0.00  0.00    +0.000 C 
ATOM      2  C   UNL     1       5.004   4.911  16.876  0.00  0.00    +0.000 C 
ENDROOT
BRANCH   2   3
ATOM      3  C   UNL     1       5.869   6.019  17.106  0.00  0.00    +0.000 C 
ATOM      4  C   UNL     1       6.596   6.956  17.363  0.00  0.00    +0.000 C 
BRANCH   4   5
ATOM      5  C   UNL     1       7.500   8.171  17.683  0.00  0.00    +0.000 C 
ATOM      6  C   UNL     1       8.207   9.234  17.951  0.00  0.00    +0.000 C 
BRANCH   6   7
ATOM      7  C   UNL     1       9.030  10.472  18.262  0.00  0.00    +0.000 C 
BRANCH   7   8
ATOM      8  C   UNL     1       9.642  10.358  19.650  0.00  0.00    +0.000 C 
BRANCH   8   9
ATOM      9  C   UNL     1       9.261  11.555  20.505  0.00  0.00    +0.000 C 
BRANCH   9  10
ATOM     10  O   UNL     1      10.306  11.849  21.421  0.00  0.00    +0.000 OA
ATOM     11  H   UNL     1       9.929  11.825  22.318  0.00  0.00    +0.000 HD
ENDBRANCH   9  10
ENDBRANCH   8   9
ENDBRANCH   7   8
ENDBRANCH   6   7
ENDBRANCH   4   5
ENDBRANCH   2   3
BRANCH   1  12
ATOM     12  C   UNL     1       3.992   2.687  17.496  0.00  0.00    +0.000 C 
BRANCH  12  13
ATOM     13  O   UNL     1       4.033   1.888  18.672  0.00  0.00    +0.000 OA
ATOM     14  H   UNL     1       3.742   2.436  19.418  0.00  0.00    +0.000 HD
ENDBRANCH  12  13
BRANCH  12  15
ATOM     15  C   UNL     1       2.534   3.141  17.263  0.00  0.00    +0.000 C 
BRANCH  15  16
ATOM     16  C   UNL     1       1.702   3.187  18.535  0.00  0.00    +0.000 C 
BRANCH  16  17
ATOM     17  C   UNL     1       1.362   4.605  18.958  0.00  0.00    +0.000 C 
BRANCH  17  18
ATOM     18  C   UNL     1       2.409   5.069  19.963  0.00  0.00    +0.000 C 
BRANCH  18  19
ATOM     19  C   UNL     1       2.920   6.439  19.568  0.00  0.00    +0.000 C 
BRANCH  19  21
ATOM     20  C   UNL     1       2.858   8.218  17.838  0.00  0.00    +0.000 C 
ATOM     21  C   UNL     1       2.209   6.938  18.321  0.00  0.00    +0.000 C 
ENDBRANCH  19  21
ENDBRANCH  18  19
ENDBRANCH  17  18
ENDBRANCH  16  17
ENDBRANCH  15  16
ENDBRANCH  12  15
ENDBRANCH   1  12
TORSDOF 14
ENDMDL
MODEL 8
REMARK VINA RESULT:      -5.9      1.540      1.965
REMARK  Name = 
REMARK  15 active torsions:
REMARK  status: ('A' for Active; 'I' for Inactive)
REMARK    1  A    between atoms: C_1  and  C_2
REMARK    2  A    between atoms: C_2  and  C_3
REMARK    3  A    between atoms: C_3  and  C_4
REMARK    4  A    between atoms: C_4  and  C_5
REMARK    5  A    between atoms: C_5  and  C_6
REMARK    6  A    between atoms: C_6  and  C_7
REMARK    7  A    between atoms: C_7  and  C_8
REMARK    8  A    between atoms: C_8  and  O_9
REMARK    9  A    between atoms: C_8  and  C_10
REMARK   10  A    between atoms: C_11  and  C_12
REMARK   11  A    between atoms: C_13  and  C_14
REMARK   12  A    between atoms: C_15  and  C_16
REMARK   13  A    between atoms: C_16  and  C_17
REMARK   14  A    between atoms: C_17  and  C_18
REMARK   15  A    between atoms: C_18  and  O_19
REMARK                            x       y       z     vdW  Elec       q    Type
REMARK                         _______ _______ _______ _____ _____    ______ ____
ROOT
ATOM      1  C   UNL     1       7.269   5.844  16.748  0.00  0.00    +0.000 C 
ATOM      2  C   UNL     1       6.927   6.809  17.624  0.00  0.00    +0.000 C 
ENDROOT
BRANCH   2   3
ATOM      3  C   UNL     1       7.704   7.983  17.837  0.00  0.00    +0.000 C 
ATOM      4  C   UNL     1       8.313   9.017  18.017  0.00  0.00    +0.000 C 
BRANCH   4   5
ATOM      5  C   UNL     1       9.099  10.336  18.217  0.00  0.00    +0.000 C 
ATOM      6  C   UNL     1       9.804  11.426  18.337  0.00  0.00    +0.000 C 
BRANCH   6   7
ATOM      7  C   UNL     1      10.627  12.696  18.476  0.00  0.00    +0.000 C 
BRANCH   7   8
ATOM      8  C   UNL     1      10.046  13.794  17.599  0.00  0.00    +0.000 C 
BRANCH   8   9
ATOM      9  C   UNL     1       8.842  14.436  18.267  0.00  0.00    +0.000 C 
BRANCH   9  10
ATOM     10  O   UNL     1       7.756  14.499  17.354  0.00  0.00    +0.000 OA
ATOM     11  H   UNL     1       7.151  15.196  17.662  0.00  0.00    +0.000 HD
ENDBRANCH   9  10
ENDBRANCH   8   9
ENDBRANCH   7   8
ENDBRANCH   6   7
ENDBRANCH   4   5
ENDBRANCH   2   3
BRANCH   1  12
ATOM     12  C   UNL     1       6.528   4.532  16.619  0.00  0.00    +0.000 C 
BRANCH  12  13
ATOM     13  O   UNL     1       6.547   3.882  17.884  0.00  0.00    +0.000 OA
ATOM     14  H   UNL     1       5.790   3.275  17.922  0.00  0.00    +0.000 HD
ENDBRANCH  12  13
BRANCH  12  15
ATOM     15  C   UNL     1       5.062   4.645  16.148  0.00  0.00    +0.000 C 
BRANCH  15  16
ATOM     16  C   UNL     1       4.080   3.896  17.036  0.00  0.00    +0.000 C 
BRANCH  16  17
ATOM     17  C   UNL     1       3.026   4.809  17.637  0.00  0.00    +0.000 C 
BRANCH  17  18
ATOM     18  C   UNL     1       3.566   5.364  18.949  0.00  0.00    +0.000 C 
BRANCH  18  19
ATOM     19  C   UNL     1       2.413   5.773  19.841  0.00  0.00    +0.000 C 
BRANCH  19  21
ATOM     20  C   UNL     1       1.040   3.818  20.518  0.00  0.00    +0.000 C 
ATOM     21  C   UNL     1       2.177   4.733  20.924  0.00  0.00    +0.000 C 
ENDBRANCH  19  21
ENDBRANCH  18  19
ENDBRANCH  17  18
ENDBRANCH  16  17
ENDBRANCH  15  16
ENDBRANCH  12  15
ENDBRANCH   1  12
TORSDOF 14
ENDMDL
MODEL 9
REMARK VINA RESULT:      -5.9      1.813      2.333
REMARK  Name = 
REMARK  15 active torsions:
REMARK  status: ('A' for Active; 'I' for Inactive)
REMARK    1  A    between atoms: C_1  and  C_2
REMARK    2  A    between atoms: C_2  and  C_3
REMARK    3  A    between atoms: C_3  and  C_4
REMARK    4  A    between atoms: C_4  and  C_5
REMARK    5  A    between atoms: C_5  and  C_6
REMARK    6  A    between atoms: C_6  and  C_7
REMARK    7  A    between atoms: C_7  and  C_8
REMARK    8  A    between atoms: C_8  and  O_9
REMARK    9  A    between atoms: C_8  and  C_10
REMARK   10  A    between atoms: C_11  and  C_12
REMARK   11  A    between atoms: C_13  and  C_14
REMARK   12  A    between atoms: C_15  and  C_16
REMARK   13  A    between atoms: C_16  and  C_17
REMARK   14  A    between atoms: C_17  and  C_18
REMARK   15  A    between atoms: C_18  and  O_19
REMARK                            x       y       z     vdW  Elec       q    Type
REMARK                         _______ _______ _______ _____ _____    ______ ____
ROOT
ATOM      1  C   UNL     1       7.308   6.295  16.839  0.00  0.00    +0.000 C 
ATOM      2  C   UNL     1       7.660   6.918  17.981  0.00  0.00    +0.000 C 
ENDROOT
BRANCH   2   3
ATOM      3  C   UNL     1       8.088   8.275  18.031  0.00  0.00    +0.000 C 
ATOM      4  C   UNL     1       8.490   9.416  18.123  0.00  0.00    +0.000 C 
BRANCH   4   5
ATOM      5  C   UNL     1       8.976  10.880  18.254  0.00  0.00    +0.000 C 
ATOM      6  C   UNL     1       9.354  12.128  18.305  0.00  0.00    +0.000 C 
BRANCH   6   7
ATOM      7  C   UNL     1       9.794  13.581  18.365  0.00  0.00    +0.000 C 
BRANCH   7   8
ATOM      8  C   UNL     1       8.873  14.368  19.285  0.00  0.00    +0.000 C 
BRANCH   8   9
ATOM      9  C   UNL     1       8.407  15.647  18.611  0.00  0.00    +0.000 C 
BRANCH   9  10
ATOM     10  O   UNL     1       8.162  15.408  17.233  0.00  0.00    +0.000 OA
ATOM     11  H   UNL     1       7.787  14.514  17.150  0.00  0.00    +0.000 HD
ENDBRANCH   9  10
ENDBRANCH   8   9
ENDBRANCH   7   8
ENDBRANCH   6   7
ENDBRANCH   4   5
ENDBRANCH   2   3
BRANCH   1  12
ATOM     12  C   UNL     1       6.990   4.819  16.756  0.00  0.00    +0.000 C 
BRANCH  12  13
ATOM     13  O   UNL     1       8.070   4.096  17.336  0.00  0.00    +0.000 OA
ATOM     14  H   UNL     1       8.895   4.417  16.938  0.00  0.00    +0.000 HD
ENDBRANCH  12  13
BRANCH  12  15
ATOM     15  C   UNL     1       5.681   4.384  17.452  0.00  0.00    +0.000 C 
BRANCH  15  16
ATOM     16  C   UNL     1       4.436   5.023  16.856  0.00  0.00    +0.000 C 
BRANCH  16  17
ATOM     17  C   UNL     1       3.609   5.763  17.891  0.00  0.00    +0.000 C 
BRANCH  17  18
ATOM     18  C   UNL     1       2.797   4.740  18.676  0.00  0.00    +0.000 C 
BRANCH  18  19
ATOM     19  C   UNL     1       1.920   3.951  17.728  0.00  0.00    +0.000 C 
BRANCH  19  21
ATOM     20  C   UNL     1       3.106   1.902  18.476  0.00  0.00    +0.000 C 
ATOM     21  C   UNL     1       1.749   2.522  18.218  0.00  0.00    +0.000 C 
ENDBRANCH  19  21
ENDBRANCH  18  19
ENDBRANCH  17  18
ENDBRANCH  16  17
ENDBRANCH  15  16
ENDBRANCH  12  15
ENDBRANCH   1  12
TORSDOF 14
ENDMDL
