MODEL 1
REMARK VINA RESULT:      -8.0      0.000      0.000
REMARK  Name = 
REMARK  4 active torsions:
REMARK  status: ('A' for Active; 'I' for Inactive)
REMARK    1  A    between atoms: C_2  and  C_11
REMARK    2  A    between atoms: N_3  and  C_4
REMARK    3  A    between atoms: N_13  and  C_14
REMARK    4  A    between atoms: C_21  and  C_22
REMARK                            x       y       z     vdW  Elec       q    Type
REMARK                         _______ _______ _______ _____ _____    ______ ____
ROOT
ATOM      1  C   UNL     1       4.535   5.080  17.503  0.00  0.00    +0.000 A 
ATOM      2  C   UNL     1       5.302   5.484  16.426  0.00  0.00    +0.000 A 
ATOM      3  N   UNL     1       5.483   4.387  15.614  0.00  0.00    +0.000 N 
ATOM      4  N   UNL     1       4.974   3.271  16.178  0.00  0.00    +0.000 NA
ATOM      5  C   UNL     1       4.393   3.670  17.330  0.00  0.00    +0.000 A 
ENDROOT
BRANCH   3   6
ATOM      6  C   UNL     1       6.087   4.355  14.327  0.00  0.00    +0.000 A 
ATOM      7  C   UNL     1       5.596   3.513  13.320  0.00  0.00    +0.000 A 
ATOM      8  C   UNL     1       6.217   3.479  12.070  0.00  0.00    +0.000 A 
ATOM      9  C   UNL     1       7.331   4.276  11.820  0.00  0.00    +0.000 A 
ATOM     10  C   UNL     1       7.827   5.113  12.818  0.00  0.00    +0.000 A 
ATOM     11  C   UNL     1       7.207   5.160  14.067  0.00  0.00    +0.000 A 
ENDBRANCH   3   6
BRANCH   1  13
ATOM     12  O   UNL     1       4.339   5.809  19.693  0.00  0.00    +0.000 OA
ATOM     13  C   UNL     1       3.948   5.915  18.539  0.00  0.00    +0.000 C 
ATOM     14  N   UNL     1       2.912   6.741  18.128  0.00  0.00    +0.000 N 
ATOM     15  H   UNL     1       2.572   6.636  17.181  0.00  0.00    +0.000 HD
BRANCH  14  16
ATOM     16  C   UNL     1       2.211   7.643  18.961  0.00  0.00    +0.000 A 
ATOM     17  C   UNL     1       1.905   7.365  20.292  0.00  0.00    +0.000 A 
ATOM     18  C   UNL     1       1.186   8.289  21.026  0.00  0.00    +0.000 A 
ATOM     19  N   UNL     1       0.758   9.464  20.529  0.00  0.00    +0.000 NA
ATOM     20  C   UNL     1       1.082   9.718  19.246  0.00  0.00    +0.000 A 
ATOM     21 CL   UNL     1       0.491  11.215  18.652  0.00  0.00    +0.000 Cl
ATOM     22  C   UNL     1       1.807   8.866  18.429  0.00  0.00    +0.000 A 
ENDBRANCH  14  16
ENDBRANCH   1  13
BRANCH   5  23
ATOM     23  C   UNL     1       3.717   2.664  18.241  0.00  0.00    +0.000 C 
ATOM     24  F   UNL     1       2.412   2.930  18.505  0.00  0.00    +0.000 F 
ATOM     25  F   UNL     1       3.769   1.402  17.739  0.00  0.00    +0.000 F 
ATOM     26  F   UNL     1       4.322   2.620  19.462  0.00  0.00    +0.000 F 
ENDBRANCH   5  23
TORSDOF 4
ENDMDL
MODEL 2
REMARK VINA RESULT:      -7.9      0.184      1.237
REMARK  Name = 
REMARK  4 active torsions:
REMARK  status: ('A' for Active; 'I' for Inactive)
REMARK    1  A    between atoms: C_2  and  C_11
REMARK    2  A    between atoms: N_3  and  C_4
REMARK    3  A    between atoms: N_13  and  C_14
REMARK    4  A    between atoms: C_21  and  C_22
REMARK                            x       y       z     vdW  Elec       q    Type
REMARK                         _______ _______ _______ _____ _____    ______ ____
ROOT
ATOM      1  C   UNL     1       4.387   5.078  17.596  0.00  0.00    +0.000 A 
ATOM      2  C   UNL     1       5.171   5.494  16.536  0.00  0.00    +0.000 A 
ATOM      3  N   UNL     1       5.406   4.396  15.740  0.00  0.00    +0.000 N 
ATOM      4  N   UNL     1       4.915   3.270  16.301  0.00  0.00    +0.000 NA
ATOM      5  C   UNL     1       4.292   3.662  17.433  0.00  0.00    +0.000 A 
ENDROOT
BRANCH   3   6
ATOM      6  C   UNL     1       6.045   4.370  14.470  0.00  0.00    +0.000 A 
ATOM      7  C   UNL     1       7.163   5.176  14.209  0.00  0.00    +0.000 A 
ATOM      8  C   UNL     1       7.764   5.153  12.948  0.00  0.00    +0.000 A 
ATOM      9  C   UNL     1       7.251   4.336  11.944  0.00  0.00    +0.000 A 
ATOM     10  C   UNL     1       6.139   3.535  12.195  0.00  0.00    +0.000 A 
ATOM     11  C   UNL     1       5.538   3.545  13.455  0.00  0.00    +0.000 A 
ENDBRANCH   3   6
BRANCH   1  13
ATOM     12  O   UNL     1       3.959   5.679  19.792  0.00  0.00    +0.000 OA
ATOM     13  C   UNL     1       3.749   5.904  18.608  0.00  0.00    +0.000 C 
ATOM     14  N   UNL     1       2.872   6.866  18.130  0.00  0.00    +0.000 N 
ATOM     15  H   UNL     1       2.661   6.863  17.140  0.00  0.00    +0.000 HD
BRANCH  14  16
ATOM     16  C   UNL     1       2.156   7.785  18.932  0.00  0.00    +0.000 A 
ATOM     17  C   UNL     1       1.856   7.549  20.271  0.00  0.00    +0.000 A 
ATOM     18  C   UNL     1       1.121   8.487  20.973  0.00  0.00    +0.000 A 
ATOM     19  N   UNL     1       0.674   9.636  20.435  0.00  0.00    +0.000 NA
ATOM     20  C   UNL     1       0.992   9.850  19.144  0.00  0.00    +0.000 A 
ATOM     21 CL   UNL     1       0.376  11.315  18.499  0.00  0.00    +0.000 Cl
ATOM     22  C   UNL     1       1.731   8.982  18.357  0.00  0.00    +0.000 A 
ENDBRANCH  14  16
ENDBRANCH   1  13
BRANCH   5  23
ATOM     23  C   UNL     1       3.621   2.645  18.336  0.00  0.00    +0.000 C 
ATOM     24  F   UNL     1       3.596   1.381  17.841  0.00  0.00    +0.000 F 
ATOM     25  F   UNL     1       4.211   2.578  19.559  0.00  0.00    +0.000 F 
ATOM     26  F   UNL     1       2.313   2.965  18.553  0.00  0.00    +0.000 F 
ENDBRANCH   5  23
TORSDOF 4
ENDMDL
MODEL 3
REMARK VINA RESULT:      -7.9      0.990      1.831
REMARK  Name = 
REMARK  4 active torsions:
REMARK  status: ('A' for Active; 'I' for Inactive)
REMARK    1  A    between atoms: C_2  and  C_11
REMARK    2  A    between atoms: N_3  and  C_4
REMARK    3  A    between atoms: N_13  and  C_14
REMARK    4  A    between atoms: C_21  and  C_22
REMARK                            x       y       z     vdW  Elec       q    Type
REMARK                         _______ _______ _______ _____ _____    ______ ____
ROOT
ATOM      1  C   UNL     1       4.327   5.370  17.407  0.00  0.00    +0.000 A 
ATOM      2  C   UNL     1       5.126   5.712  16.332  0.00  0.00    +0.000 A 
ATOM      3  N   UNL     1       5.400   4.555  15.638  0.00  0.00    +0.000 N 
ATOM      4  N   UNL     1       4.918   3.471  16.283  0.00  0.00    +0.000 NA
ATOM      5  C   UNL     1       4.262   3.944  17.364  0.00  0.00    +0.000 A 
ENDROOT
BRANCH   3   6
ATOM      6  C   UNL     1       6.068   4.435  14.389  0.00  0.00    +0.000 A 
ATOM      7  C   UNL     1       7.218   5.188  14.110  0.00  0.00    +0.000 A 
ATOM      8  C   UNL     1       7.847   5.072  12.868  0.00  0.00    +0.000 A 
ATOM      9  C   UNL     1       7.332   4.214  11.900  0.00  0.00    +0.000 A 
ATOM     10  C   UNL     1       6.189   3.465  12.169  0.00  0.00    +0.000 A 
ATOM     11  C   UNL     1       5.559   3.568  13.410  0.00  0.00    +0.000 A 
ENDBRANCH   3   6
BRANCH   1  13
ATOM     12  O   UNL     1       3.725   6.061  19.534  0.00  0.00    +0.000 OA
ATOM     13  C   UNL     1       3.650   6.266  18.331  0.00  0.00    +0.000 C 
ATOM     14  N   UNL     1       2.895   7.271  17.746  0.00  0.00    +0.000 N 
ATOM     15  H   UNL     1       2.783   7.254  16.741  0.00  0.00    +0.000 HD
BRANCH  14  16
ATOM     16  C   UNL     1       2.168   8.259  18.452  0.00  0.00    +0.000 A 
ATOM     17  C   UNL     1       1.825   9.489  17.896  0.00  0.00    +0.000 A 
ATOM     18  C   UNL     1       1.144  10.412  18.669  0.00  0.00    +0.000 A 
ATOM     19  N   UNL     1       0.780  10.189  19.944  0.00  0.00    +0.000 NA
ATOM     20  C   UNL     1       1.106   8.986  20.453  0.00  0.00    +0.000 A 
ATOM     21 CL   UNL     1       0.644   8.762  22.090  0.00  0.00    +0.000 Cl
ATOM     22  C   UNL     1       1.777   7.990  19.762  0.00  0.00    +0.000 A 
ENDBRANCH  14  16
ENDBRANCH   1  13
BRANCH   5  23
ATOM     23  C   UNL     1       3.591   2.993  18.336  0.00  0.00    +0.000 C 
ATOM     24  F   UNL     1       3.522   1.707  17.910  0.00  0.00    +0.000 F 
ATOM     25  F   UNL     1       4.211   2.977  19.546  0.00  0.00    +0.000 F 
ATOM     26  F   UNL     1       2.297   3.359  18.568  0.00  0.00    +0.000 F 
ENDBRANCH   5  23
TORSDOF 4
ENDMDL
MODEL 4
REMARK VINA RESULT:      -7.9      2.217      3.121
REMARK  Name = 
REMARK  4 active torsions:
REMARK  status: ('A' for Active; 'I' for Inactive)
REMARK    1  A    between atoms: C_2  and  C_11
REMARK    2  A    between atoms: N_3  and  C_4
REMARK    3  A    between atoms: N_13  and  C_14
REMARK    4  A    between atoms: C_21  and  C_22
REMARK                            x       y       z     vdW  Elec       q    Type
REMARK                         _______ _______ _______ _____ _____    ______ ____
ROOT
ATOM      1  C   UNL     1       2.797   5.618  19.766  0.00  0.00    +0.000 A 
ATOM      2  C   UNL     1       3.677   6.002  18.772  0.00  0.00    +0.000 A 
ATOM      3  N   UNL     1       4.358   4.877  18.366  0.00  0.00    +0.000 N 
ATOM      4  N   UNL     1       4.048   3.812  19.136  0.00  0.00    +0.000 NA
ATOM      5  C   UNL     1       3.100   4.241  19.996  0.00  0.00    +0.000 A 
ENDROOT
BRANCH   3   6
ATOM      6  C   UNL     1       5.263   4.761  17.275  0.00  0.00    +0.000 A 
ATOM      7  C   UNL     1       6.564   5.276  17.358  0.00  0.00    +0.000 A 
ATOM      8  C   UNL     1       7.430   5.172  16.267  0.00  0.00    +0.000 A 
ATOM      9  C   UNL     1       7.002   4.563  15.090  0.00  0.00    +0.000 A 
ATOM     10  C   UNL     1       5.709   4.052  14.999  0.00  0.00    +0.000 A 
ATOM     11  C   UNL     1       4.840   4.144  16.088  0.00  0.00    +0.000 A 
ENDBRANCH   3   6
BRANCH   1  13
ATOM     12  O   UNL     1       0.721   5.879  20.759  0.00  0.00    +0.000 OA
ATOM     13  C   UNL     1       1.754   6.417  20.388  0.00  0.00    +0.000 C 
ATOM     14  N   UNL     1       2.000   7.781  20.448  0.00  0.00    +0.000 N 
ATOM     15  H   UNL     1       2.821   8.134  19.974  0.00  0.00    +0.000 HD
BRANCH  14  16
ATOM     16  C   UNL     1       1.132   8.740  21.021  0.00  0.00    +0.000 A 
ATOM     17  C   UNL     1       0.969   8.889  22.397  0.00  0.00    +0.000 A 
ATOM     18  C   UNL     1       0.074   9.828  22.872  0.00  0.00    +0.000 A 
ATOM     19  N   UNL     1      -0.660  10.626  22.076  0.00  0.00    +0.000 NA
ATOM     20  C   UNL     1      -0.471  10.476  20.751  0.00  0.00    +0.000 A 
ATOM     21 CL   UNL     1      -1.449  11.498  19.779  0.00  0.00    +0.000 Cl
ATOM     22  C   UNL     1       0.407   9.574  20.173  0.00  0.00    +0.000 A 
ENDBRANCH  14  16
ENDBRANCH   1  13
BRANCH   5  23
ATOM     23  C   UNL     1       2.514   3.299  21.030  0.00  0.00    +0.000 C 
ATOM     24  F   UNL     1       1.256   2.869  20.752  0.00  0.00    +0.000 F 
ATOM     25  F   UNL     1       3.281   2.190  21.205  0.00  0.00    +0.000 F 
ATOM     26  F   UNL     1       2.420   3.902  22.249  0.00  0.00    +0.000 F 
ENDBRANCH   5  23
TORSDOF 4
ENDMDL
MODEL 5
REMARK VINA RESULT:      -7.9      2.873      7.765
REMARK  Name = 
REMARK  4 active torsions:
REMARK  status: ('A' for Active; 'I' for Inactive)
REMARK    1  A    between atoms: C_2  and  C_11
REMARK    2  A    between atoms: N_3  and  C_4
REMARK    3  A    between atoms: N_13  and  C_14
REMARK    4  A    between atoms: C_21  and  C_22
REMARK                            x       y       z     vdW  Elec       q    Type
REMARK                         _______ _______ _______ _____ _____    ______ ____
ROOT
ATOM      1  C   UNL     1       2.982   5.992  19.482  0.00  0.00    +0.000 A 
ATOM      2  C   UNL     1       2.586   7.315  19.546  0.00  0.00    +0.000 A 
ATOM      3  N   UNL     1       1.565   7.395  20.466  0.00  0.00    +0.000 N 
ATOM      4  N   UNL     1       1.204   6.171  20.905  0.00  0.00    +0.000 NA
ATOM      5  C   UNL     1       2.053   5.301  20.318  0.00  0.00    +0.000 A 
ENDROOT
BRANCH   3   6
ATOM      6  C   UNL     1       0.940   8.572  20.962  0.00  0.00    +0.000 A 
ATOM      7  C   UNL     1       0.551   8.671  22.306  0.00  0.00    +0.000 A 
ATOM      8  C   UNL     1      -0.081   9.826  22.769  0.00  0.00    +0.000 A 
ATOM      9  C   UNL     1      -0.335  10.882  21.898  0.00  0.00    +0.000 A 
ATOM     10  C   UNL     1       0.045  10.790  20.561  0.00  0.00    +0.000 A 
ATOM     11  C   UNL     1       0.687   9.642  20.091  0.00  0.00    +0.000 A 
ENDBRANCH   3   6
BRANCH   1  13
ATOM     12  O   UNL     1       4.892   4.686  19.363  0.00  0.00    +0.000 OA
ATOM     13  C   UNL     1       4.129   5.441  18.777  0.00  0.00    +0.000 C 
ATOM     14  N   UNL     1       4.304   5.888  17.476  0.00  0.00    +0.000 N 
ATOM     15  H   UNL     1       3.698   6.628  17.145  0.00  0.00    +0.000 HD
BRANCH  14  16
ATOM     16  C   UNL     1       5.339   5.474  16.605  0.00  0.00    +0.000 A 
ATOM     17  C   UNL     1       6.685   5.739  16.848  0.00  0.00    +0.000 A 
ATOM     18  C   UNL     1       7.630   5.328  15.926  0.00  0.00    +0.000 A 
ATOM     19  N   UNL     1       7.326   4.672  14.792  0.00  0.00    +0.000 NA
ATOM     20  C   UNL     1       6.021   4.412  14.589  0.00  0.00    +0.000 A 
ATOM     21 CL   UNL     1       5.684   3.598  13.116  0.00  0.00    +0.000 Cl
ATOM     22  C   UNL     1       4.998   4.770  15.453  0.00  0.00    +0.000 A 
ENDBRANCH  14  16
ENDBRANCH   1  13
BRANCH   5  23
ATOM     23  C   UNL     1       1.936   3.812  20.580  0.00  0.00    +0.000 C 
ATOM     24  F   UNL     1       0.770   3.431  21.161  0.00  0.00    +0.000 F 
ATOM     25  F   UNL     1       2.068   3.080  19.442  0.00  0.00    +0.000 F 
ATOM     26  F   UNL     1       2.911   3.384  21.432  0.00  0.00    +0.000 F 
ENDBRANCH   5  23
TORSDOF 4
ENDMDL
MODEL 6
REMARK VINA RESULT:      -7.8      3.105      8.150
REMARK  Name = 
REMARK  4 active torsions:
REMARK  status: ('A' for Active; 'I' for Inactive)
REMARK    1  A    between atoms: C_2  and  C_11
REMARK    2  A    between atoms: N_3  and  C_4
REMARK    3  A    between atoms: N_13  and  C_14
REMARK    4  A    between atoms: C_21  and  C_22
REMARK                            x       y       z     vdW  Elec       q    Type
REMARK                         _______ _______ _______ _____ _____    ______ ____
ROOT
ATOM      1  C   UNL     1       2.473   7.105  19.265  0.00  0.00    +0.000 A 
ATOM      2  C   UNL     1       1.979   8.367  19.537  0.00  0.00    +0.000 A 
ATOM      3  N   UNL     1       1.115   8.251  20.602  0.00  0.00    +0.000 N 
ATOM      4  N   UNL     1       0.935   6.959  20.949  0.00  0.00    +0.000 NA
ATOM      5  C   UNL     1       1.751   6.243  20.146  0.00  0.00    +0.000 A 
ENDROOT
BRANCH   3   6
ATOM      6  C   UNL     1       0.479   9.303  21.317  0.00  0.00    +0.000 A 
ATOM      7  C   UNL     1      -0.158   9.061  22.542  0.00  0.00    +0.000 A 
ATOM      8  C   UNL     1      -0.797  10.103  23.218  0.00  0.00    +0.000 A 
ATOM      9  C   UNL     1      -0.811  11.384  22.675  0.00  0.00    +0.000 A 
ATOM     10  C   UNL     1      -0.183  11.632  21.455  0.00  0.00    +0.000 A 
ATOM     11  C   UNL     1       0.466  10.598  20.778  0.00  0.00    +0.000 A 
ENDBRANCH   3   6
BRANCH   1  13
ATOM     12  O   UNL     1       3.597   7.296  17.249  0.00  0.00    +0.000 OA
ATOM     13  C   UNL     1       3.536   6.747  18.339  0.00  0.00    +0.000 C 
ATOM     14  N   UNL     1       4.378   5.728  18.760  0.00  0.00    +0.000 N 
ATOM     15  H   UNL     1       4.142   5.243  19.615  0.00  0.00    +0.000 HD
BRANCH  14  16
ATOM     16  C   UNL     1       5.483   5.231  18.029  0.00  0.00    +0.000 A 
ATOM     17  C   UNL     1       6.774   5.179  18.548  0.00  0.00    +0.000 A 
ATOM     18  C   UNL     1       7.803   4.711  17.752  0.00  0.00    +0.000 A 
ATOM     19  N   UNL     1       7.631   4.290  16.486  0.00  0.00    +0.000 NA
ATOM     20  C   UNL     1       6.371   4.333  16.013  0.00  0.00    +0.000 A 
ATOM     21 CL   UNL     1       6.210   3.811  14.386  0.00  0.00    +0.000 Cl
ATOM     22  C   UNL     1       5.270   4.773  16.730  0.00  0.00    +0.000 A 
ENDBRANCH  14  16
ENDBRANCH   1  13
BRANCH   5  23
ATOM     23  C   UNL     1       1.806   4.731  20.252  0.00  0.00    +0.000 C 
ATOM     24  F   UNL     1       2.903   4.250  20.889  0.00  0.00    +0.000 F 
ATOM     25  F   UNL     1       0.721   4.224  20.895  0.00  0.00    +0.000 F 
ATOM     26  F   UNL     1       1.832   4.151  19.018  0.00  0.00    +0.000 F 
ENDBRANCH   5  23
TORSDOF 4
ENDMDL
MODEL 7
REMARK VINA RESULT:      -7.8      1.122      1.466
REMARK  Name = 
REMARK  4 active torsions:
REMARK  status: ('A' for Active; 'I' for Inactive)
REMARK    1  A    between atoms: C_2  and  C_11
REMARK    2  A    between atoms: N_3  and  C_4
REMARK    3  A    between atoms: N_13  and  C_14
REMARK    4  A    between atoms: C_21  and  C_22
REMARK                            x       y       z     vdW  Elec       q    Type
REMARK                         _______ _______ _______ _____ _____    ______ ____
ROOT
ATOM      1  C   UNL     1       4.041   5.435  17.439  0.00  0.00    +0.000 A 
ATOM      2  C   UNL     1       4.961   5.714  16.447  0.00  0.00    +0.000 A 
ATOM      3  N   UNL     1       5.090   4.583  15.673  0.00  0.00    +0.000 N 
ATOM      4  N   UNL     1       4.391   3.552  16.192  0.00  0.00    +0.000 NA
ATOM      5  C   UNL     1       3.746   4.047  17.269  0.00  0.00    +0.000 A 
ENDROOT
BRANCH   3   6
ATOM      6  C   UNL     1       5.819   4.445  14.460  0.00  0.00    +0.000 A 
ATOM      7  C   UNL     1       5.359   3.608  13.433  0.00  0.00    +0.000 A 
ATOM      8  C   UNL     1       6.101   3.468  12.258  0.00  0.00    +0.000 A 
ATOM      9  C   UNL     1       7.303   4.153  12.103  0.00  0.00    +0.000 A 
ATOM     10  C   UNL     1       7.768   4.984  13.121  0.00  0.00    +0.000 A 
ATOM     11  C   UNL     1       7.028   5.137  14.295  0.00  0.00    +0.000 A 
ENDBRANCH   3   6
BRANCH   1  13
ATOM     12  O   UNL     1       3.618   6.175  19.593  0.00  0.00    +0.000 OA
ATOM     13  C   UNL     1       3.455   6.361  18.395  0.00  0.00    +0.000 C 
ATOM     14  N   UNL     1       2.678   7.372  17.850  0.00  0.00    +0.000 N 
ATOM     15  H   UNL     1       2.489   7.340  16.857  0.00  0.00    +0.000 HD
BRANCH  14  16
ATOM     16  C   UNL     1       2.028   8.387  18.590  0.00  0.00    +0.000 A 
ATOM     17  C   UNL     1       1.753   9.649  18.067  0.00  0.00    +0.000 A 
ATOM     18  C   UNL     1       1.145  10.595  18.872  0.00  0.00    +0.000 A 
ATOM     19  N   UNL     1       0.792  10.367  20.149  0.00  0.00    +0.000 NA
ATOM     20  C   UNL     1       1.050   9.135  20.626  0.00  0.00    +0.000 A 
ATOM     21 CL   UNL     1       0.604   8.905  22.267  0.00  0.00    +0.000 Cl
ATOM     22  C   UNL     1       1.645   8.114  19.901  0.00  0.00    +0.000 A 
ENDBRANCH  14  16
ENDBRANCH   1  13
BRANCH   5  23
ATOM     23  C   UNL     1       2.857   3.155  18.115  0.00  0.00    +0.000 C 
ATOM     24  F   UNL     1       1.590   3.613  18.279  0.00  0.00    +0.000 F 
ATOM     25  F   UNL     1       2.761   1.898  17.604  0.00  0.00    +0.000 F 
ATOM     26  F   UNL     1       3.352   3.023  19.379  0.00  0.00    +0.000 F 
ENDBRANCH   5  23
TORSDOF 4
ENDMDL
MODEL 8
REMARK VINA RESULT:      -7.8      2.855      7.720
REMARK  Name = 
REMARK  4 active torsions:
REMARK  status: ('A' for Active; 'I' for Inactive)
REMARK    1  A    between atoms: C_2  and  C_11
REMARK    2  A    between atoms: N_3  and  C_4
REMARK    3  A    between atoms: N_13  and  C_14
REMARK    4  A    between atoms: C_21  and  C_22
REMARK                            x       y       z     vdW  Elec       q    Type
REMARK                         _______ _______ _______ _____ _____    ______ ____
ROOT
ATOM      1  C   UNL     1       2.999   5.762  19.220  0.00  0.00    +0.000 A 
ATOM      2  C   UNL     1       2.631   7.093  19.271  0.00  0.00    +0.000 A 
ATOM      3  N   UNL     1       1.679   7.220  20.257  0.00  0.00    +0.000 N 
ATOM      4  N   UNL     1       1.328   6.016  20.757  0.00  0.00    +0.000 NA
ATOM      5  C   UNL     1       2.118   5.114  20.138  0.00  0.00    +0.000 A 
ENDROOT
BRANCH   3   6
ATOM      6  C   UNL     1       1.111   8.423  20.759  0.00  0.00    +0.000 A 
ATOM      7  C   UNL     1       0.812   9.493  19.904  0.00  0.00    +0.000 A 
ATOM      8  C   UNL     1       0.275  10.674  20.420  0.00  0.00    +0.000 A 
ATOM      9  C   UNL     1       0.041  10.798  21.787  0.00  0.00    +0.000 A 
ATOM     10  C   UNL     1       0.339   9.740  22.644  0.00  0.00    +0.000 A 
ATOM     11  C   UNL     1       0.867   8.552  22.135  0.00  0.00    +0.000 A 
ENDBRANCH   3   6
BRANCH   1  13
ATOM     12  O   UNL     1       4.767   4.288  18.959  0.00  0.00    +0.000 OA
ATOM     13  C   UNL     1       4.084   5.168  18.455  0.00  0.00    +0.000 C 
ATOM     14  N   UNL     1       4.303   5.718  17.201  0.00  0.00    +0.000 N 
ATOM     15  H   UNL     1       3.775   6.543  16.948  0.00  0.00    +0.000 HD
BRANCH  14  16
ATOM     16  C   UNL     1       5.291   5.287  16.284  0.00  0.00    +0.000 A 
ATOM     17  C   UNL     1       6.651   5.527  16.467  0.00  0.00    +0.000 A 
ATOM     18  C   UNL     1       7.547   5.101  15.504  0.00  0.00    +0.000 A 
ATOM     19  N   UNL     1       7.181   4.453  14.384  0.00  0.00    +0.000 NA
ATOM     20  C   UNL     1       5.864   4.216  14.239  0.00  0.00    +0.000 A 
ATOM     21 CL   UNL     1       5.448   3.411  12.782  0.00  0.00    +0.000 Cl
ATOM     22  C   UNL     1       4.887   4.591  15.147  0.00  0.00    +0.000 A 
ENDBRANCH  14  16
ENDBRANCH   1  13
BRANCH   5  23
ATOM     23  C   UNL     1       1.993   3.635  20.453  0.00  0.00    +0.000 C 
ATOM     24  F   UNL     1       3.034   3.118  21.153  0.00  0.00    +0.000 F 
ATOM     25  F   UNL     1       0.864   3.355  21.157  0.00  0.00    +0.000 F 
ATOM     26  F   UNL     1       1.932   2.892  19.311  0.00  0.00    +0.000 F 
ENDBRANCH   5  23
TORSDOF 4
ENDMDL
MODEL 9
REMARK VINA RESULT:      -7.7      2.900      7.504
REMARK  Name = 
REMARK  4 active torsions:
REMARK  status: ('A' for Active; 'I' for Inactive)
REMARK    1  A    between atoms: C_2  and  C_11
REMARK    2  A    between atoms: N_3  and  C_4
REMARK    3  A    between atoms: N_13  and  C_14
REMARK    4  A    between atoms: C_21  and  C_22
REMARK                            x       y       z     vdW  Elec       q    Type
REMARK                         _______ _______ _______ _____ _____    ______ ____
ROOT
ATOM      1  C   UNL     1       4.064   5.091  17.739  0.00  0.00    +0.000 A 
ATOM      2  C   UNL     1       3.492   6.348  17.801  0.00  0.00    +0.000 A 
ATOM      3  N   UNL     1       2.738   6.401  18.951  0.00  0.00    +0.000 N 
ATOM      4  N   UNL     1       2.699   5.200  19.567  0.00  0.00    +0.000 NA
ATOM      5  C   UNL     1       3.499   4.387  18.845  0.00  0.00    +0.000 A 
ENDROOT
BRANCH   3   6
ATOM      6  C   UNL     1       2.080   7.535  19.502  0.00  0.00    +0.000 A 
ATOM      7  C   UNL     1       1.653   7.544  20.837  0.00  0.00    +0.000 A 
ATOM      8  C   UNL     1       0.989   8.659  21.353  0.00  0.00    +0.000 A 
ATOM      9  C   UNL     1       0.742   9.764  20.541  0.00  0.00    +0.000 A 
ATOM     10  C   UNL     1       1.160   9.761  19.212  0.00  0.00    +0.000 A 
ATOM     11  C   UNL     1       1.833   8.654  18.691  0.00  0.00    +0.000 A 
ENDBRANCH   3   6
BRANCH   1  13
ATOM     12  O   UNL     1       6.016   3.962  17.207  0.00  0.00    +0.000 OA
ATOM     13  C   UNL     1       5.068   4.617  16.799  0.00  0.00    +0.000 C 
ATOM     14  N   UNL     1       4.894   5.020  15.483  0.00  0.00    +0.000 N 
ATOM     15  H   UNL     1       4.158   5.686  15.286  0.00  0.00    +0.000 HD
BRANCH  14  16
ATOM     16  C   UNL     1       5.738   4.665  14.405  0.00  0.00    +0.000 A 
ATOM     17  C   UNL     1       6.961   5.286  14.163  0.00  0.00    +0.000 A 
ATOM     18  C   UNL     1       7.708   4.900  13.065  0.00  0.00    +0.000 A 
ATOM     19  N   UNL     1       7.323   3.942  12.203  0.00  0.00    +0.000 NA
ATOM     20  C   UNL     1       6.146   3.344  12.469  0.00  0.00    +0.000 A 
ATOM     21 CL   UNL     1       5.688   2.148  11.326  0.00  0.00    +0.000 Cl
ATOM     22  C   UNL     1       5.328   3.648  13.546  0.00  0.00    +0.000 A 
ENDBRANCH  14  16
ENDBRANCH   1  13
BRANCH   5  23
ATOM     23  C   UNL     1       3.690   2.937  19.247  0.00  0.00    +0.000 C 
ATOM     24  F   UNL     1       3.604   2.052  18.222  0.00  0.00    +0.000 F 
ATOM     25  F   UNL     1       4.891   2.728  19.850  0.00  0.00    +0.000 F 
ATOM     26  F   UNL     1       2.735   2.542  20.137  0.00  0.00    +0.000 F 
ENDBRANCH   5  23
TORSDOF 4
ENDMDL
