MODEL 1
REMARK VINA RESULT:      -7.8      0.000      0.000
REMARK  Name = 
REMARK  4 active torsions:
REMARK  status: ('A' for Active; 'I' for Inactive)
REMARK    1  A    between atoms: C_2  and  C_3
REMARK    2  A    between atoms: N_6  and  C_7
REMARK    3  A    between atoms: N_18  and  C_19
REMARK    4  A    between atoms: C_19  and  C_20
REMARK                            x       y       z     vdW  Elec       q    Type
REMARK                         _______ _______ _______ _____ _____    ______ ____
ROOT
ATOM      1  O   UNL     1       6.472   4.752  19.712  0.00  0.00    +0.000 OA
ATOM      2  C   UNL     1       5.573   4.919  18.886  0.00  0.00    +0.000 C 
ATOM      3  N   UNL     1       5.770   4.639  17.532  0.00  0.00    +0.000 N 
ATOM      4  C   UNL     1       4.731   4.521  16.499  0.00  0.00    +0.000 C 
ATOM      5  C   UNL     1       5.070   5.415  15.294  0.00  0.00    +0.000 C 
ATOM      6  N   UNL     1       6.400   5.124  14.705  0.00  0.00    +0.000 NA
ATOM      7  C   UNL     1       7.417   5.245  15.785  0.00  0.00    +0.000 C 
ATOM      8  C   UNL     1       7.127   4.392  17.042  0.00  0.00    +0.000 C 
ENDROOT
BRANCH   2   9
ATOM      9  C   UNL     1       4.258   5.420  19.318  0.00  0.00    +0.000 A 
ATOM     10  C   UNL     1       3.249   4.669  19.973  0.00  0.00    +0.000 A 
ATOM     11  C   UNL     1       2.199   5.543  20.139  0.00  0.00    +0.000 A 
ATOM     12  N   UNL     1       2.599   6.749  19.615  0.00  0.00    +0.000 N 
ATOM     13  N   UNL     1       3.880   6.703  19.196  0.00  0.00    +0.000 NA
BRANCH  12  14
ATOM     14  C   UNL     1       1.853   7.949  19.466  0.00  0.00    +0.000 A 
ATOM     15  C   UNL     1       1.811   8.627  18.242  0.00  0.00    +0.000 A 
ATOM     16  C   UNL     1       1.058   9.801  18.119  0.00  0.00    +0.000 A 
ATOM     17  C   UNL     1       0.362  10.308  19.216  0.00  0.00    +0.000 A 
ATOM     18  C   UNL     1       0.425   9.642  20.433  0.00  0.00    +0.000 A 
ATOM     19  F   UNL     1      -0.231  10.138  21.488  0.00  0.00    +0.000 F 
ATOM     20  C   UNL     1       1.159   8.470  20.572  0.00  0.00    +0.000 A 
ENDBRANCH  12  14
ENDBRANCH   2   9
BRANCH   6  21
ATOM     21  C   UNL     1       6.473   3.793  14.083  0.00  0.00    +0.000 C 
BRANCH  21  22
ATOM     22  C   UNL     1       6.223   3.854  12.604  0.00  0.00    +0.000 C 
ATOM     23  C   UNL     1       6.163   2.572  11.810  0.00  0.00    +0.000 C 
ATOM     24  C   UNL     1       4.914   3.379  12.015  0.00  0.00    +0.000 C 
ENDBRANCH  21  22
ENDBRANCH   6  21
TORSDOF 4
ENDMDL
MODEL 2
REMARK VINA RESULT:      -7.7      1.017      1.425
REMARK  Name = 
REMARK  4 active torsions:
REMARK  status: ('A' for Active; 'I' for Inactive)
REMARK    1  A    between atoms: C_2  and  C_3
REMARK    2  A    between atoms: N_6  and  C_7
REMARK    3  A    between atoms: N_18  and  C_19
REMARK    4  A    between atoms: C_19  and  C_20
REMARK                            x       y       z     vdW  Elec       q    Type
REMARK                         _______ _______ _______ _____ _____    ______ ____
ROOT
ATOM      1  O   UNL     1       6.901   4.648  19.245  0.00  0.00    +0.000 OA
ATOM      2  C   UNL     1       5.898   4.686  18.530  0.00  0.00    +0.000 C 
ATOM      3  N   UNL     1       5.968   4.391  17.166  0.00  0.00    +0.000 N 
ATOM      4  C   UNL     1       4.835   4.124  16.267  0.00  0.00    +0.000 C 
ATOM      5  C   UNL     1       4.924   5.015  15.017  0.00  0.00    +0.000 C 
ATOM      6  N   UNL     1       6.200   4.862  14.278  0.00  0.00    +0.000 NA
ATOM      7  C   UNL     1       7.315   5.132  15.226  0.00  0.00    +0.000 C 
ATOM      8  C   UNL     1       7.277   4.287  16.521  0.00  0.00    +0.000 C 
ENDROOT
BRANCH   2   9
ATOM      9  C   UNL     1       4.593   5.045  19.108  0.00  0.00    +0.000 A 
ATOM     10  C   UNL     1       3.655   4.148  19.680  0.00  0.00    +0.000 A 
ATOM     11  C   UNL     1       2.584   4.931  20.046  0.00  0.00    +0.000 A 
ATOM     12  N   UNL     1       2.905   6.225  19.712  0.00  0.00    +0.000 N 
ATOM     13  N   UNL     1       4.160   6.310  19.224  0.00  0.00    +0.000 NA
BRANCH  12  14
ATOM     14  C   UNL     1       2.105   7.395  19.806  0.00  0.00    +0.000 A 
ATOM     15  C   UNL     1       1.381   7.685  20.969  0.00  0.00    +0.000 A 
ATOM     16  C   UNL     1       0.610   8.852  21.040  0.00  0.00    +0.000 A 
ATOM     17  C   UNL     1       0.547   9.719  19.950  0.00  0.00    +0.000 A 
ATOM     18  C   UNL     1       1.251   9.415  18.792  0.00  0.00    +0.000 A 
ATOM     19  F   UNL     1       1.176  10.241  17.742  0.00  0.00    +0.000 F 
ATOM     20  C   UNL     1       2.029   8.267  18.707  0.00  0.00    +0.000 A 
ENDBRANCH  12  14
ENDBRANCH   2   9
BRANCH   6  21
ATOM     21  C   UNL     1       6.356   3.531  13.672  0.00  0.00    +0.000 C 
BRANCH  21  22
ATOM     22  C   UNL     1       6.011   3.539  12.210  0.00  0.00    +0.000 C 
ATOM     23  C   UNL     1       5.770   2.230  11.500  0.00  0.00    +0.000 C 
ATOM     24  C   UNL     1       4.624   3.171  11.735  0.00  0.00    +0.000 C 
ENDBRANCH  21  22
ENDBRANCH   6  21
TORSDOF 4
ENDMDL
MODEL 3
REMARK VINA RESULT:      -7.1      4.213      8.958
REMARK  Name = 
REMARK  4 active torsions:
REMARK  status: ('A' for Active; 'I' for Inactive)
REMARK    1  A    between atoms: C_2  and  C_3
REMARK    2  A    between atoms: N_6  and  C_7
REMARK    3  A    between atoms: N_18  and  C_19
REMARK    4  A    between atoms: C_19  and  C_20
REMARK                            x       y       z     vdW  Elec       q    Type
REMARK                         _______ _______ _______ _____ _____    ______ ____
ROOT
ATOM      1  O   UNL     1       1.868   9.877  17.435  0.00  0.00    +0.000 OA
ATOM      2  C   UNL     1       1.824   9.173  18.445  0.00  0.00    +0.000 C 
ATOM      3  N   UNL     1       1.106   9.570  19.576  0.00  0.00    +0.000 N 
ATOM      4  C   UNL     1       0.737   8.726  20.722  0.00  0.00    +0.000 C 
ATOM      5  C   UNL     1       1.164   9.396  22.039  0.00  0.00    +0.000 C 
ATOM      6  N   UNL     1       0.602  10.757  22.214  0.00  0.00    +0.000 NA
ATOM      7  C   UNL     1       0.993  11.570  21.030  0.00  0.00    +0.000 C 
ATOM      8  C   UNL     1       0.615  10.945  19.667  0.00  0.00    +0.000 C 
ENDROOT
BRANCH   2   9
ATOM      9  C   UNL     1       2.532   7.883  18.476  0.00  0.00    +0.000 A 
ATOM     10  C   UNL     1       3.496   7.433  17.539  0.00  0.00    +0.000 A 
ATOM     11  C   UNL     1       3.844   6.169  17.957  0.00  0.00    +0.000 A 
ATOM     12  N   UNL     1       3.121   5.914  19.098  0.00  0.00    +0.000 N 
ATOM     13  N   UNL     1       2.389   6.986  19.466  0.00  0.00    +0.000 NA
BRANCH  12  14
ATOM     14  C   UNL     1       3.056   4.721  19.865  0.00  0.00    +0.000 A 
ATOM     15  C   UNL     1       2.140   4.586  20.917  0.00  0.00    +0.000 A 
ATOM     16  C   UNL     1       2.088   3.394  21.650  0.00  0.00    +0.000 A 
ATOM     17  C   UNL     1       2.957   2.346  21.348  0.00  0.00    +0.000 A 
ATOM     18  C   UNL     1       3.877   2.494  20.319  0.00  0.00    +0.000 A 
ATOM     19  F   UNL     1       4.720   1.493  20.042  0.00  0.00    +0.000 F 
ATOM     20  C   UNL     1       3.936   3.665  19.573  0.00  0.00    +0.000 A 
ENDBRANCH  12  14
ENDBRANCH   2   9
BRANCH   6  21
ATOM     21  C   UNL     1      -0.860  10.757  22.374  0.00  0.00    +0.000 C 
BRANCH  21  22
ATOM     22  C   UNL     1      -1.395  12.138  22.618  0.00  0.00    +0.000 C 
ATOM     23  C   UNL     1      -2.630  12.595  21.880  0.00  0.00    +0.000 C 
ATOM     24  C   UNL     1      -2.695  12.350  23.360  0.00  0.00    +0.000 C 
ENDBRANCH  21  22
ENDBRANCH   6  21
TORSDOF 4
ENDMDL
MODEL 4
REMARK VINA RESULT:      -7.1      3.883      8.765
REMARK  Name = 
REMARK  4 active torsions:
REMARK  status: ('A' for Active; 'I' for Inactive)
REMARK    1  A    between atoms: C_2  and  C_3
REMARK    2  A    between atoms: N_6  and  C_7
REMARK    3  A    between atoms: N_18  and  C_19
REMARK    4  A    between atoms: C_19  and  C_20
REMARK                            x       y       z     vdW  Elec       q    Type
REMARK                         _______ _______ _______ _____ _____    ______ ____
ROOT
ATOM      1  O   UNL     1       1.812   9.726  17.372  0.00  0.00    +0.000 OA
ATOM      2  C   UNL     1       1.855   9.036  18.391  0.00  0.00    +0.000 C 
ATOM      3  N   UNL     1       1.171   9.410  19.551  0.00  0.00    +0.000 N 
ATOM      4  C   UNL     1       0.903   8.564  20.723  0.00  0.00    +0.000 C 
ATOM      5  C   UNL     1       1.354   9.276  22.010  0.00  0.00    +0.000 C 
ATOM      6  N   UNL     1       0.727  10.607  22.195  0.00  0.00    +0.000 NA
ATOM      7  C   UNL     1       1.015  11.422  20.984  0.00  0.00    +0.000 C 
ATOM      8  C   UNL     1       0.609  10.757  19.647  0.00  0.00    +0.000 C 
ENDROOT
BRANCH   2   9
ATOM      9  C   UNL     1       2.634   7.787  18.405  0.00  0.00    +0.000 A 
ATOM     10  C   UNL     1       3.666   7.433  17.498  0.00  0.00    +0.000 A 
ATOM     11  C   UNL     1       4.066   6.174  17.881  0.00  0.00    +0.000 A 
ATOM     12  N   UNL     1       3.306   5.829  18.973  0.00  0.00    +0.000 N 
ATOM     13  N   UNL     1       2.497   6.842  19.349  0.00  0.00    +0.000 NA
BRANCH  12  14
ATOM     14  C   UNL     1       3.274   4.602  19.687  0.00  0.00    +0.000 A 
ATOM     15  C   UNL     1       4.238   3.610  19.465  0.00  0.00    +0.000 A 
ATOM     16  C   UNL     1       4.190   2.414  20.191  0.00  0.00    +0.000 A 
ATOM     17  C   UNL     1       3.177   2.198  21.124  0.00  0.00    +0.000 A 
ATOM     18  C   UNL     1       2.212   3.177  21.325  0.00  0.00    +0.000 A 
ATOM     19  F   UNL     1       1.231   2.961  22.209  0.00  0.00    +0.000 F 
ATOM     20  C   UNL     1       2.249   4.375  20.621  0.00  0.00    +0.000 A 
ENDBRANCH  12  14
ENDBRANCH   2   9
BRANCH   6  21
ATOM     21  C   UNL     1      -0.724  10.529  22.425  0.00  0.00    +0.000 C 
BRANCH  21  22
ATOM     22  C   UNL     1      -1.278  11.826  22.939  0.00  0.00    +0.000 C 
ATOM     23  C   UNL     1      -2.245  12.608  22.085  0.00  0.00    +0.000 C 
ATOM     24  C   UNL     1      -2.730  11.947  23.343  0.00  0.00    +0.000 C 
ENDBRANCH  21  22
ENDBRANCH   6  21
TORSDOF 4
ENDMDL
MODEL 5
REMARK VINA RESULT:      -7.1      3.523      9.106
REMARK  Name = 
REMARK  4 active torsions:
REMARK  status: ('A' for Active; 'I' for Inactive)
REMARK    1  A    between atoms: C_2  and  C_3
REMARK    2  A    between atoms: N_6  and  C_7
REMARK    3  A    between atoms: N_18  and  C_19
REMARK    4  A    between atoms: C_19  and  C_20
REMARK                            x       y       z     vdW  Elec       q    Type
REMARK                         _______ _______ _______ _____ _____    ______ ____
ROOT
ATOM      1  O   UNL     1       1.706   9.399  17.529  0.00  0.00    +0.000 OA
ATOM      2  C   UNL     1       1.725   8.758  18.581  0.00  0.00    +0.000 C 
ATOM      3  N   UNL     1       1.060   9.216  19.722  0.00  0.00    +0.000 N 
ATOM      4  C   UNL     1       0.764   8.441  20.936  0.00  0.00    +0.000 C 
ATOM      5  C   UNL     1       1.248   9.197  22.184  0.00  0.00    +0.000 C 
ATOM      6  N   UNL     1       0.674  10.560  22.304  0.00  0.00    +0.000 NA
ATOM      7  C   UNL     1       0.990  11.302  21.053  0.00  0.00    +0.000 C 
ATOM      8  C   UNL     1       0.553  10.588  19.753  0.00  0.00    +0.000 C 
ENDROOT
BRANCH   2   9
ATOM      9  C   UNL     1       2.454   7.482  18.656  0.00  0.00    +0.000 A 
ATOM     10  C   UNL     1       2.157   6.395  19.517  0.00  0.00    +0.000 A 
ATOM     11  C   UNL     1       3.124   5.452  19.255  0.00  0.00    +0.000 A 
ATOM     12  N   UNL     1       3.931   5.972  18.271  0.00  0.00    +0.000 N 
ATOM     13  N   UNL     1       3.476   7.167  17.842  0.00  0.00    +0.000 NA
BRANCH  12  14
ATOM     14  C   UNL     1       5.117   5.429  17.711  0.00  0.00    +0.000 A 
ATOM     15  C   UNL     1       6.364   5.636  18.315  0.00  0.00    +0.000 A 
ATOM     16  C   UNL     1       7.517   5.079  17.748  0.00  0.00    +0.000 A 
ATOM     17  C   UNL     1       7.432   4.332  16.574  0.00  0.00    +0.000 A 
ATOM     18  C   UNL     1       6.196   4.147  15.969  0.00  0.00    +0.000 A 
ATOM     19  F   UNL     1       6.119   3.443  14.834  0.00  0.00    +0.000 F 
ATOM     20  C   UNL     1       5.039   4.683  16.522  0.00  0.00    +0.000 A 
ENDBRANCH  12  14
ENDBRANCH   2   9
BRANCH   6  21
ATOM     21  C   UNL     1      -0.778  10.551  22.540  0.00  0.00    +0.000 C 
BRANCH  21  22
ATOM     22  C   UNL     1      -1.296  11.918  22.884  0.00  0.00    +0.000 C 
ATOM     23  C   UNL     1      -2.328  12.564  21.993  0.00  0.00    +0.000 C 
ATOM     24  C   UNL     1      -2.713  12.113  23.372  0.00  0.00    +0.000 C 
ENDBRANCH  21  22
ENDBRANCH   6  21
TORSDOF 4
ENDMDL
MODEL 6
REMARK VINA RESULT:      -7.1      1.483      2.230
REMARK  Name = 
REMARK  4 active torsions:
REMARK  status: ('A' for Active; 'I' for Inactive)
REMARK    1  A    between atoms: C_2  and  C_3
REMARK    2  A    between atoms: N_6  and  C_7
REMARK    3  A    between atoms: N_18  and  C_19
REMARK    4  A    between atoms: C_19  and  C_20
REMARK                            x       y       z     vdW  Elec       q    Type
REMARK                         _______ _______ _______ _____ _____    ______ ____
ROOT
ATOM      1  O   UNL     1       3.818   4.949  20.146  0.00  0.00    +0.000 OA
ATOM      2  C   UNL     1       3.785   5.596  19.098  0.00  0.00    +0.000 C 
ATOM      3  N   UNL     1       4.513   5.196  17.975  0.00  0.00    +0.000 N 
ATOM      4  C   UNL     1       4.353   5.697  16.602  0.00  0.00    +0.000 C 
ATOM      5  C   UNL     1       5.710   6.142  16.033  0.00  0.00    +0.000 C 
ATOM      6  N   UNL     1       6.738   5.073  16.063  0.00  0.00    +0.000 NA
ATOM      7  C   UNL     1       6.859   4.592  17.466  0.00  0.00    +0.000 C 
ATOM      8  C   UNL     1       5.525   4.150  18.113  0.00  0.00    +0.000 C 
ENDROOT
BRANCH   2   9
ATOM      9  C   UNL     1       2.965   6.816  19.010  0.00  0.00    +0.000 A 
ATOM     10  C   UNL     1       2.847   7.666  17.881  0.00  0.00    +0.000 A 
ATOM     11  C   UNL     1       2.011   8.683  18.282  0.00  0.00    +0.000 A 
ATOM     12  N   UNL     1       1.653   8.415  19.581  0.00  0.00    +0.000 N 
ATOM     13  N   UNL     1       2.159   7.236  19.998  0.00  0.00    +0.000 NA
BRANCH  12  14
ATOM     14  C   UNL     1       0.875   9.201  20.472  0.00  0.00    +0.000 A 
ATOM     15  C   UNL     1       0.131  10.294  20.011  0.00  0.00    +0.000 A 
ATOM     16  C   UNL     1      -0.639  11.045  20.910  0.00  0.00    +0.000 A 
ATOM     17  C   UNL     1      -0.653  10.719  22.265  0.00  0.00    +0.000 A 
ATOM     18  C   UNL     1       0.103   9.646  22.719  0.00  0.00    +0.000 A 
ATOM     19  F   UNL     1       0.100   9.344  24.023  0.00  0.00    +0.000 F 
ATOM     20  C   UNL     1       0.864   8.883  21.841  0.00  0.00    +0.000 A 
ENDBRANCH  12  14
ENDBRANCH   2   9
BRANCH   6  21
ATOM     21  C   UNL     1       6.424   3.952  15.164  0.00  0.00    +0.000 C 
BRANCH  21  22
ATOM     22  C   UNL     1       6.114   4.422  13.772  0.00  0.00    +0.000 C 
ATOM     23  C   UNL     1       6.872   3.835  12.607  0.00  0.00    +0.000 C 
ATOM     24  C   UNL     1       5.415   3.518  12.783  0.00  0.00    +0.000 C 
ENDBRANCH  21  22
ENDBRANCH   6  21
TORSDOF 4
ENDMDL
MODEL 7
REMARK VINA RESULT:      -7.1      3.524      9.124
REMARK  Name = 
REMARK  4 active torsions:
REMARK  status: ('A' for Active; 'I' for Inactive)
REMARK    1  A    between atoms: C_2  and  C_3
REMARK    2  A    between atoms: N_6  and  C_7
REMARK    3  A    between atoms: N_18  and  C_19
REMARK    4  A    between atoms: C_19  and  C_20
REMARK                            x       y       z     vdW  Elec       q    Type
REMARK                         _______ _______ _______ _____ _____    ______ ____
ROOT
ATOM      1  O   UNL     1       1.815   9.632  17.320  0.00  0.00    +0.000 OA
ATOM      2  C   UNL     1       1.823   8.982  18.367  0.00  0.00    +0.000 C 
ATOM      3  N   UNL     1       1.099   9.400  19.486  0.00  0.00    +0.000 N 
ATOM      4  C   UNL     1       0.792   8.600  20.681  0.00  0.00    +0.000 C 
ATOM      5  C   UNL     1       1.199   9.363  21.953  0.00  0.00    +0.000 C 
ATOM      6  N   UNL     1       0.564  10.698  22.065  0.00  0.00    +0.000 NA
ATOM      7  C   UNL     1       0.893  11.467  20.833  0.00  0.00    +0.000 C 
ATOM      8  C   UNL     1       0.534  10.749  19.511  0.00  0.00    +0.000 C 
ENDROOT
BRANCH   2   9
ATOM      9  C   UNL     1       2.602   7.736  18.456  0.00  0.00    +0.000 A 
ATOM     10  C   UNL     1       2.514   6.765  19.485  0.00  0.00    +0.000 A 
ATOM     11  C   UNL     1       3.450   5.810  19.160  0.00  0.00    +0.000 A 
ATOM     12  N   UNL     1       4.037   6.211  17.984  0.00  0.00    +0.000 N 
ATOM     13  N   UNL     1       3.463   7.335  17.506  0.00  0.00    +0.000 NA
BRANCH  12  14
ATOM     14  C   UNL     1       5.116   5.617  17.277  0.00  0.00    +0.000 A 
ATOM     15  C   UNL     1       5.067   5.452  15.887  0.00  0.00    +0.000 A 
ATOM     16  C   UNL     1       6.151   4.875  15.213  0.00  0.00    +0.000 A 
ATOM     17  C   UNL     1       7.272   4.449  15.922  0.00  0.00    +0.000 A 
ATOM     18  C   UNL     1       7.306   4.596  17.303  0.00  0.00    +0.000 A 
ATOM     19  F   UNL     1       8.378   4.172  17.983  0.00  0.00    +0.000 F 
ATOM     20  C   UNL     1       6.245   5.176  17.988  0.00  0.00    +0.000 A 
ENDBRANCH  12  14
ENDBRANCH   2   9
BRANCH   6  21
ATOM     21  C   UNL     1      -0.894  10.627  22.248  0.00  0.00    +0.000 C 
BRANCH  21  22
ATOM     22  C   UNL     1      -1.371  11.581  23.304  0.00  0.00    +0.000 C 
ATOM     23  C   UNL     1      -1.546  13.039  22.960  0.00  0.00    +0.000 C 
ATOM     24  C   UNL     1      -2.753  12.190  23.236  0.00  0.00    +0.000 C 
ENDBRANCH  21  22
ENDBRANCH   6  21
TORSDOF 4
ENDMDL
MODEL 8
REMARK VINA RESULT:      -7.0      1.842      3.037
REMARK  Name = 
REMARK  4 active torsions:
REMARK  status: ('A' for Active; 'I' for Inactive)
REMARK    1  A    between atoms: C_2  and  C_3
REMARK    2  A    between atoms: N_6  and  C_7
REMARK    3  A    between atoms: N_18  and  C_19
REMARK    4  A    between atoms: C_19  and  C_20
REMARK                            x       y       z     vdW  Elec       q    Type
REMARK                         _______ _______ _______ _____ _____    ______ ____
ROOT
ATOM      1  O   UNL     1       2.660   5.314  20.460  0.00  0.00    +0.000 OA
ATOM      2  C   UNL     1       3.013   6.051  19.537  0.00  0.00    +0.000 C 
ATOM      3  N   UNL     1       4.063   5.695  18.686  0.00  0.00    +0.000 N 
ATOM      4  C   UNL     1       4.402   6.323  17.401  0.00  0.00    +0.000 C 
ATOM      5  C   UNL     1       5.890   6.711  17.371  0.00  0.00    +0.000 C 
ATOM      6  N   UNL     1       6.799   5.568  17.628  0.00  0.00    +0.000 NA
ATOM      7  C   UNL     1       6.414   4.960  18.931  0.00  0.00    +0.000 C 
ATOM      8  C   UNL     1       4.923   4.566  19.042  0.00  0.00    +0.000 C 
ENDROOT
BRANCH   2   9
ATOM      9  C   UNL     1       2.326   7.332  19.311  0.00  0.00    +0.000 A 
ATOM     10  C   UNL     1       2.200   8.008  18.070  0.00  0.00    +0.000 A 
ATOM     11  C   UNL     1       1.518   9.168  18.359  0.00  0.00    +0.000 A 
ATOM     12  N   UNL     1       1.249   9.146  19.706  0.00  0.00    +0.000 N 
ATOM     13  N   UNL     1       1.660   7.992  20.272  0.00  0.00    +0.000 NA
BRANCH  12  14
ATOM     14  C   UNL     1       0.642  10.147  20.511  0.00  0.00    +0.000 A 
ATOM     15  C   UNL     1       0.779  11.506  20.202  0.00  0.00    +0.000 A 
ATOM     16  C   UNL     1       0.159  12.472  21.005  0.00  0.00    +0.000 A 
ATOM     17  C   UNL     1      -0.580  12.086  22.123  0.00  0.00    +0.000 A 
ATOM     18  C   UNL     1      -0.695  10.738  22.436  0.00  0.00    +0.000 A 
ATOM     19  F   UNL     1      -1.392  10.371  23.518  0.00  0.00    +0.000 F 
ATOM     20  C   UNL     1      -0.096   9.765  21.645  0.00  0.00    +0.000 A 
ENDBRANCH  12  14
ENDBRANCH   2   9
BRANCH   6  21
ATOM     21  C   UNL     1       6.763   4.556  16.561  0.00  0.00    +0.000 C 
BRANCH  21  22
ATOM     22  C   UNL     1       6.334   5.144  15.248  0.00  0.00    +0.000 C 
ATOM     23  C   UNL     1       7.012   4.691  13.978  0.00  0.00    +0.000 C 
ATOM     24  C   UNL     1       5.581   4.315  14.233  0.00  0.00    +0.000 C 
ENDBRANCH  21  22
ENDBRANCH   6  21
TORSDOF 4
ENDMDL
MODEL 9
REMARK VINA RESULT:      -7.0      1.850      2.996
REMARK  Name = 
REMARK  4 active torsions:
REMARK  status: ('A' for Active; 'I' for Inactive)
REMARK    1  A    between atoms: C_2  and  C_3
REMARK    2  A    between atoms: N_6  and  C_7
REMARK    3  A    between atoms: N_18  and  C_19
REMARK    4  A    between atoms: C_19  and  C_20
REMARK                            x       y       z     vdW  Elec       q    Type
REMARK                         _______ _______ _______ _____ _____    ______ ____
ROOT
ATOM      1  O   UNL     1       2.848   4.949  20.584  0.00  0.00    +0.000 OA
ATOM      2  C   UNL     1       3.072   5.695  19.630  0.00  0.00    +0.000 C 
ATOM      3  N   UNL     1       3.965   5.331  18.618  0.00  0.00    +0.000 N 
ATOM      4  C   UNL     1       4.115   5.976  17.306  0.00  0.00    +0.000 C 
ATOM      5  C   UNL     1       5.589   6.328  17.048  0.00  0.00    +0.000 C 
ATOM      6  N   UNL     1       6.496   5.158  17.140  0.00  0.00    +0.000 NA
ATOM      7  C   UNL     1       6.304   4.533  18.477  0.00  0.00    +0.000 C 
ATOM      8  C   UNL     1       4.838   4.174  18.816  0.00  0.00    +0.000 C 
ENDROOT
BRANCH   2   9
ATOM      9  C   UNL     1       2.393   6.997  19.535  0.00  0.00    +0.000 A 
ATOM     10  C   UNL     1       2.392   7.862  18.411  0.00  0.00    +0.000 A 
ATOM     11  C   UNL     1       1.664   8.962  18.804  0.00  0.00    +0.000 A 
ATOM     12  N   UNL     1       1.252   8.727  20.094  0.00  0.00    +0.000 N 
ATOM     13  N   UNL     1       1.618   7.497  20.511  0.00  0.00    +0.000 NA
BRANCH  12  14
ATOM     14  C   UNL     1       0.547   9.588  20.976  0.00  0.00    +0.000 A 
ATOM     15  C   UNL     1       0.002   9.108  22.173  0.00  0.00    +0.000 A 
ATOM     16  C   UNL     1      -0.679   9.981  23.032  0.00  0.00    +0.000 A 
ATOM     17  C   UNL     1      -0.831  11.324  22.690  0.00  0.00    +0.000 A 
ATOM     18  C   UNL     1      -0.306  11.790  21.491  0.00  0.00    +0.000 A 
ATOM     19  F   UNL     1      -0.467  13.076  21.159  0.00  0.00    +0.000 F 
ATOM     20  C   UNL     1       0.381  10.941  20.632  0.00  0.00    +0.000 A 
ENDBRANCH  12  14
ENDBRANCH   2   9
BRANCH   6  21
ATOM     21  C   UNL     1       6.265   4.169  16.076  0.00  0.00    +0.000 C 
BRANCH  21  22
ATOM     22  C   UNL     1       6.045   4.824  14.743  0.00  0.00    +0.000 C 
ATOM     23  C   UNL     1       7.152   4.805  13.718  0.00  0.00    +0.000 C 
ATOM     24  C   UNL     1       5.907   3.999  13.484  0.00  0.00    +0.000 C 
ENDBRANCH  21  22
ENDBRANCH   6  21
TORSDOF 4
ENDMDL
