MODEL 1
REMARK VINA RESULT:     -10.1      0.000      0.000
REMARK  Name = 
REMARK  5 active torsions:
REMARK  status: ('A' for Active; 'I' for Inactive)
REMARK    1  A    between atoms: C_1  and  O_2
REMARK    2  A    between atoms: O_2  and  C_3
REMARK    3  A    between atoms: C_6  and  C_7
REMARK    4  A    between atoms: C_7  and  C_9
REMARK    5  A    between atoms: C_12  and  N_13
REMARK                            x       y       z     vdW  Elec       q    Type
REMARK                         _______ _______ _______ _____ _____    ______ ____
ROOT
ATOM      1  N   UNL     1       3.362   5.412  19.609  0.00  0.00    +0.000 N 
ATOM      2  C   UNL     1       2.842   4.372  20.344  0.00  0.00    +0.000 A 
ATOM      3  C   UNL     1       2.241   4.300  21.592  0.00  0.00    +0.000 A 
ATOM      4  C   UNL     1       1.833   3.036  22.014  0.00  0.00    +0.000 A 
ATOM      5  C   UNL     1       1.972   1.918  21.181  0.00  0.00    +0.000 A 
ATOM      6  C   UNL     1       2.502   2.030  19.881  0.00  0.00    +0.000 A 
ATOM      7  C   UNL     1       2.991   3.264  19.452  0.00  0.00    +0.000 A 
ATOM      8  C   UNL     1       3.576   3.844  18.302  0.00  0.00    +0.000 A 
ATOM      9  C   UNL     1       3.565   3.746  16.888  0.00  0.00    +0.000 A 
ATOM     10  C   UNL     1       4.306   4.706  16.134  0.00  0.00    +0.000 A 
ATOM     11  C   UNL     1       5.272   5.480  16.763  0.00  0.00    +0.000 A 
ATOM     12  C   UNL     1       5.418   5.330  18.123  0.00  0.00    +0.000 A 
ATOM     13  C   UNL     1       4.409   4.805  18.893  0.00  0.00    +0.000 A 
ATOM     14  C   UNL     1       6.814   5.311  18.536  0.00  0.00    +0.000 C 
ATOM     15  O   UNL     1       7.473   4.304  18.686  0.00  0.00    +0.000 OA
ATOM     16  C   UNL     1       7.381   6.653  18.380  0.00  0.00    +0.000 C 
ATOM     17  C   UNL     1       7.102   7.207  17.196  0.00  0.00    +0.000 C 
ATOM     18  C   UNL     1       6.192   6.513  16.194  0.00  0.00    +0.000 C 
ATOM     19  O   UNL     1       6.148   6.860  15.027  0.00  0.00    +0.000 OA
ENDROOT
BRANCH   1  23
ATOM     20  C   UNL     1       1.508   9.120  18.781  0.00  0.00    +0.000 A 
ATOM     21  C   UNL     1       1.383   8.540  20.047  0.00  0.00    +0.000 A 
ATOM     22  C   UNL     1       1.998   7.310  20.307  0.00  0.00    +0.000 A 
ATOM     23  C   UNL     1       2.712   6.648  19.298  0.00  0.00    +0.000 A 
ATOM     24  C   UNL     1       2.734   7.166  18.005  0.00  0.00    +0.000 A 
ATOM     25  C   UNL     1       2.189   8.429  17.769  0.00  0.00    +0.000 A 
BRANCH  20  26
ATOM     26  C   UNL     1       0.986  10.494  18.543  0.00  0.00    +0.000 C 
ATOM     27  O   UNL     1       1.787  11.422  18.430  0.00  0.00    +0.000 OA
BRANCH  26  31
ATOM     28  C   UNL     1      -3.234  11.225  18.249  0.00  0.00    +0.000 A 
ATOM     29  C   UNL     1      -2.432  12.011  19.081  0.00  0.00    +0.000 A 
ATOM     30  C   UNL     1      -1.052  11.792  19.150  0.00  0.00    +0.000 A 
ATOM     31  C   UNL     1      -0.470  10.760  18.407  0.00  0.00    +0.000 A 
ATOM     32  C   UNL     1      -1.278   9.966  17.585  0.00  0.00    +0.000 A 
ATOM     33  C   UNL     1      -2.650  10.208  17.496  0.00  0.00    +0.000 A 
BRANCH  28  35
ATOM     34  C   UNL     1      -5.149  11.888  17.037  0.00  0.00    +0.000 C 
ATOM     35  O   UNL     1      -4.574  11.499  18.281  0.00  0.00    +0.000 OA
ENDBRANCH  28  35
ENDBRANCH  26  31
ENDBRANCH  20  26
ENDBRANCH   1  23
TORSDOF 4
ENDMDL
MODEL 2
REMARK VINA RESULT:      -9.8      2.677      9.017
REMARK  Name = 
REMARK  5 active torsions:
REMARK  status: ('A' for Active; 'I' for Inactive)
REMARK    1  A    between atoms: C_1  and  O_2
REMARK    2  A    between atoms: O_2  and  C_3
REMARK    3  A    between atoms: C_6  and  C_7
REMARK    4  A    between atoms: C_7  and  C_9
REMARK    5  A    between atoms: C_12  and  N_13
REMARK                            x       y       z     vdW  Elec       q    Type
REMARK                         _______ _______ _______ _____ _____    ______ ____
ROOT
ATOM      1  N   UNL     1      -0.520  11.238  18.480  0.00  0.00    +0.000 N 
ATOM      2  C   UNL     1      -1.849  11.170  18.133  0.00  0.00    +0.000 A 
ATOM      3  C   UNL     1      -2.532  10.514  17.119  0.00  0.00    +0.000 A 
ATOM      4  C   UNL     1      -3.915  10.688  17.087  0.00  0.00    +0.000 A 
ATOM      5  C   UNL     1      -4.570  11.436  18.074  0.00  0.00    +0.000 A 
ATOM      6  C   UNL     1      -3.867  12.017  19.147  0.00  0.00    +0.000 A 
ATOM      7  C   UNL     1      -2.475  11.930  19.171  0.00  0.00    +0.000 A 
ATOM      8  C   UNL     1      -1.390  12.322  19.991  0.00  0.00    +0.000 A 
ATOM      9  C   UNL     1      -1.056  12.542  21.350  0.00  0.00    +0.000 A 
ATOM     10  C   UNL     1       0.301  12.844  21.676  0.00  0.00    +0.000 A 
ATOM     11  C   UNL     1       1.176  13.250  20.678  0.00  0.00    +0.000 A 
ATOM     12  C   UNL     1       0.699  13.272  19.387  0.00  0.00    +0.000 A 
ATOM     13  C   UNL     1      -0.398  12.531  19.022  0.00  0.00    +0.000 A 
ATOM     14  C   UNL     1       1.134  14.450  18.651  0.00  0.00    +0.000 C 
ATOM     15  O   UNL     1       0.492  15.475  18.555  0.00  0.00    +0.000 OA
ATOM     16  C   UNL     1       2.569  14.345  18.376  0.00  0.00    +0.000 C 
ATOM     17  C   UNL     1       3.286  13.998  19.449  0.00  0.00    +0.000 C 
ATOM     18  C   UNL     1       2.613  13.651  20.769  0.00  0.00    +0.000 C 
ATOM     19  O   UNL     1       3.245  13.603  21.811  0.00  0.00    +0.000 OA
ENDROOT
BRANCH   1  23
ATOM     20  C   UNL     1       2.011   7.912  19.111  0.00  0.00    +0.000 A 
ATOM     21  C   UNL     1       1.303   8.467  20.180  0.00  0.00    +0.000 A 
ATOM     22  C   UNL     1       0.472   9.572  19.959  0.00  0.00    +0.000 A 
ATOM     23  C   UNL     1       0.370  10.136  18.679  0.00  0.00    +0.000 A 
ATOM     24  C   UNL     1       1.167   9.659  17.641  0.00  0.00    +0.000 A 
ATOM     25  C   UNL     1       1.933   8.510  17.845  0.00  0.00    +0.000 A 
BRANCH  20  26
ATOM     26  C   UNL     1       2.777   6.650  19.308  0.00  0.00    +0.000 C 
ATOM     27  O   UNL     1       2.740   6.099  20.408  0.00  0.00    +0.000 OA
BRANCH  26  31
ATOM     28  C   UNL     1       5.060   4.793  16.183  0.00  0.00    +0.000 A 
ATOM     29  C   UNL     1       4.040   4.092  16.830  0.00  0.00    +0.000 A 
ATOM     30  C   UNL     1       3.275   4.710  17.826  0.00  0.00    +0.000 A 
ATOM     31  C   UNL     1       3.551   6.030  18.201  0.00  0.00    +0.000 A 
ATOM     32  C   UNL     1       4.584   6.723  17.561  0.00  0.00    +0.000 A 
ATOM     33  C   UNL     1       5.324   6.112  16.546  0.00  0.00    +0.000 A 
BRANCH  28  35
ATOM     34  C   UNL     1       6.926   4.741  14.736  0.00  0.00    +0.000 C 
ATOM     35  O   UNL     1       5.770   4.086  15.251  0.00  0.00    +0.000 OA
ENDBRANCH  28  35
ENDBRANCH  26  31
ENDBRANCH  20  26
ENDBRANCH   1  23
TORSDOF 4
ENDMDL
MODEL 3
REMARK VINA RESULT:      -9.5      0.386      1.213
REMARK  Name = 
REMARK  5 active torsions:
REMARK  status: ('A' for Active; 'I' for Inactive)
REMARK    1  A    between atoms: C_1  and  O_2
REMARK    2  A    between atoms: O_2  and  C_3
REMARK    3  A    between atoms: C_6  and  C_7
REMARK    4  A    between atoms: C_7  and  C_9
REMARK    5  A    between atoms: C_12  and  N_13
REMARK                            x       y       z     vdW  Elec       q    Type
REMARK                         _______ _______ _______ _____ _____    ______ ____
ROOT
ATOM      1  N   UNL     1       3.256   5.519  19.612  0.00  0.00    +0.000 N 
ATOM      2  C   UNL     1       2.655   4.475  20.277  0.00  0.00    +0.000 A 
ATOM      3  C   UNL     1       2.039   4.369  21.516  0.00  0.00    +0.000 A 
ATOM      4  C   UNL     1       1.535   3.114  21.854  0.00  0.00    +0.000 A 
ATOM      5  C   UNL     1       1.597   2.045  20.950  0.00  0.00    +0.000 A 
ATOM      6  C   UNL     1       2.144   2.200  19.662  0.00  0.00    +0.000 A 
ATOM      7  C   UNL     1       2.728   3.419  19.315  0.00  0.00    +0.000 A 
ATOM      8  C   UNL     1       3.363   4.026  18.207  0.00  0.00    +0.000 A 
ATOM      9  C   UNL     1       3.356   4.020  16.789  0.00  0.00    +0.000 A 
ATOM     10  C   UNL     1       4.172   4.968  16.101  0.00  0.00    +0.000 A 
ATOM     11  C   UNL     1       5.188   5.625  16.782  0.00  0.00    +0.000 A 
ATOM     12  C   UNL     1       5.312   5.377  18.130  0.00  0.00    +0.000 A 
ATOM     13  C   UNL     1       4.260   4.881  18.861  0.00  0.00    +0.000 A 
ATOM     14  C   UNL     1       6.700   5.228  18.544  0.00  0.00    +0.000 C 
ATOM     15  O   UNL     1       7.280   4.166  18.632  0.00  0.00    +0.000 OA
ATOM     16  C   UNL     1       7.366   6.531  18.477  0.00  0.00    +0.000 C 
ATOM     17  C   UNL     1       7.139   7.179  17.331  0.00  0.00    +0.000 C 
ATOM     18  C   UNL     1       6.187   6.620  16.283  0.00  0.00    +0.000 C 
ATOM     19  O   UNL     1       6.178   7.045  15.141  0.00  0.00    +0.000 OA
ENDROOT
BRANCH   1  23
ATOM     20  C   UNL     1       1.556   9.308  18.822  0.00  0.00    +0.000 A 
ATOM     21  C   UNL     1       2.343   8.676  17.855  0.00  0.00    +0.000 A 
ATOM     22  C   UNL     1       2.904   7.424  18.130  0.00  0.00    +0.000 A 
ATOM     23  C   UNL     1       2.702   6.817  19.379  0.00  0.00    +0.000 A 
ATOM     24  C   UNL     1       2.021   7.499  20.384  0.00  0.00    +0.000 A 
ATOM     25  C   UNL     1       1.396   8.710  20.081  0.00  0.00    +0.000 A 
BRANCH  20  26
ATOM     26  C   UNL     1       0.835  10.565  18.482  0.00  0.00    +0.000 C 
ATOM     27  O   UNL     1       1.486  11.599  18.330  0.00  0.00    +0.000 OA
BRANCH  26  31
ATOM     28  C   UNL     1      -3.407  10.674  17.834  0.00  0.00    +0.000 A 
ATOM     29  C   UNL     1      -2.609   9.743  17.164  0.00  0.00    +0.000 A 
ATOM     30  C   UNL     1      -1.230   9.688  17.402  0.00  0.00    +0.000 A 
ATOM     31  C   UNL     1      -0.638  10.590  18.292  0.00  0.00    +0.000 A 
ATOM     32  C   UNL     1      -1.439  11.530  18.950  0.00  0.00    +0.000 A 
ATOM     33  C   UNL     1      -2.818  11.562  18.733  0.00  0.00    +0.000 A 
BRANCH  28  35
ATOM     34  C   UNL     1      -5.375  11.940  17.520  0.00  0.00    +0.000 C 
ATOM     35  O   UNL     1      -4.734  10.668  17.503  0.00  0.00    +0.000 OA
ENDBRANCH  28  35
ENDBRANCH  26  31
ENDBRANCH  20  26
ENDBRANCH   1  23
TORSDOF 4
ENDMDL
MODEL 4
REMARK VINA RESULT:      -9.2      1.905      3.133
REMARK  Name = 
REMARK  5 active torsions:
REMARK  status: ('A' for Active; 'I' for Inactive)
REMARK    1  A    between atoms: C_1  and  O_2
REMARK    2  A    between atoms: O_2  and  C_3
REMARK    3  A    between atoms: C_6  and  C_7
REMARK    4  A    between atoms: C_7  and  C_9
REMARK    5  A    between atoms: C_12  and  N_13
REMARK                            x       y       z     vdW  Elec       q    Type
REMARK                         _______ _______ _______ _____ _____    ______ ____
ROOT
ATOM      1  N   UNL     1       3.320   5.459  19.647  0.00  0.00    +0.000 N 
ATOM      2  C   UNL     1       2.831   4.414  20.397  0.00  0.00    +0.000 A 
ATOM      3  C   UNL     1       2.258   4.339  21.658  0.00  0.00    +0.000 A 
ATOM      4  C   UNL     1       1.877   3.072  22.094  0.00  0.00    +0.000 A 
ATOM      5  C   UNL     1       2.012   1.952  21.261  0.00  0.00    +0.000 A 
ATOM      6  C   UNL     1       2.511   2.066  19.950  0.00  0.00    +0.000 A 
ATOM      7  C   UNL     1       2.975   3.305  19.506  0.00  0.00    +0.000 A 
ATOM      8  C   UNL     1       3.526   3.888  18.341  0.00  0.00    +0.000 A 
ATOM      9  C   UNL     1       3.486   3.785  16.928  0.00  0.00    +0.000 A 
ATOM     10  C   UNL     1       4.197   4.751  16.154  0.00  0.00    +0.000 A 
ATOM     11  C   UNL     1       5.166   5.540  16.759  0.00  0.00    +0.000 A 
ATOM     12  C   UNL     1       5.344   5.397  18.116  0.00  0.00    +0.000 A 
ATOM     13  C   UNL     1       4.359   4.862  18.910  0.00  0.00    +0.000 A 
ATOM     14  C   UNL     1       6.749   5.399  18.498  0.00  0.00    +0.000 C 
ATOM     15  O   UNL     1       7.425   4.401  18.637  0.00  0.00    +0.000 OA
ATOM     16  C   UNL     1       7.294   6.747  18.325  0.00  0.00    +0.000 C 
ATOM     17  C   UNL     1       6.982   7.293  17.145  0.00  0.00    +0.000 C 
ATOM     18  C   UNL     1       6.059   6.583  16.166  0.00  0.00    +0.000 C 
ATOM     19  O   UNL     1       5.985   6.925  14.999  0.00  0.00    +0.000 OA
ENDROOT
BRANCH   1  23
ATOM     20  C   UNL     1       1.396   9.137  18.850  0.00  0.00    +0.000 A 
ATOM     21  C   UNL     1       1.268   8.536  20.105  0.00  0.00    +0.000 A 
ATOM     22  C   UNL     1       1.906   7.315  20.355  0.00  0.00    +0.000 A 
ATOM     23  C   UNL     1       2.647   6.684  19.345  0.00  0.00    +0.000 A 
ATOM     24  C   UNL     1       2.674   7.222  18.061  0.00  0.00    +0.000 A 
ATOM     25  C   UNL     1       2.104   8.476  17.836  0.00  0.00    +0.000 A 
BRANCH  20  26
ATOM     26  C   UNL     1       0.847  10.503  18.626  0.00  0.00    +0.000 C 
ATOM     27  O   UNL     1      -0.290  10.617  18.168  0.00  0.00    +0.000 OA
BRANCH  26  31
ATOM     28  C   UNL     1       3.003  14.077  19.626  0.00  0.00    +0.000 A 
ATOM     29  C   UNL     1       2.146  13.481  20.555  0.00  0.00    +0.000 A 
ATOM     30  C   UNL     1       1.469  12.297  20.238  0.00  0.00    +0.000 A 
ATOM     31  C   UNL     1       1.625  11.720  18.972  0.00  0.00    +0.000 A 
ATOM     32  C   UNL     1       2.473  12.329  18.041  0.00  0.00    +0.000 A 
ATOM     33  C   UNL     1       3.170  13.492  18.372  0.00  0.00    +0.000 A 
BRANCH  28  35
ATOM     34  C   UNL     1       3.721  16.240  19.008  0.00  0.00    +0.000 C 
ATOM     35  O   UNL     1       3.588  15.249  20.023  0.00  0.00    +0.000 OA
ENDBRANCH  28  35
ENDBRANCH  26  31
ENDBRANCH  20  26
ENDBRANCH   1  23
TORSDOF 4
ENDMDL
MODEL 5
REMARK VINA RESULT:      -9.2      1.754      2.925
REMARK  Name = 
REMARK  5 active torsions:
REMARK  status: ('A' for Active; 'I' for Inactive)
REMARK    1  A    between atoms: C_1  and  O_2
REMARK    2  A    between atoms: O_2  and  C_3
REMARK    3  A    between atoms: C_6  and  C_7
REMARK    4  A    between atoms: C_7  and  C_9
REMARK    5  A    between atoms: C_12  and  N_13
REMARK                            x       y       z     vdW  Elec       q    Type
REMARK                         _______ _______ _______ _____ _____    ______ ____
ROOT
ATOM      1  N   UNL     1       3.360   5.449  19.651  0.00  0.00    +0.000 N 
ATOM      2  C   UNL     1       2.830   4.400  20.366  0.00  0.00    +0.000 A 
ATOM      3  C   UNL     1       2.241   4.307  21.618  0.00  0.00    +0.000 A 
ATOM      4  C   UNL     1       1.817   3.040  22.013  0.00  0.00    +0.000 A 
ATOM      5  C   UNL     1       1.928   1.941  21.151  0.00  0.00    +0.000 A 
ATOM      6  C   UNL     1       2.445   2.076  19.848  0.00  0.00    +0.000 A 
ATOM      7  C   UNL     1       2.951   3.312  19.444  0.00  0.00    +0.000 A 
ATOM      8  C   UNL     1       3.533   3.911  18.302  0.00  0.00    +0.000 A 
ATOM      9  C   UNL     1       3.505   3.848  16.887  0.00  0.00    +0.000 A 
ATOM     10  C   UNL     1       4.254   4.814  16.148  0.00  0.00    +0.000 A 
ATOM     11  C   UNL     1       5.240   5.555  16.785  0.00  0.00    +0.000 A 
ATOM     12  C   UNL     1       5.398   5.369  18.140  0.00  0.00    +0.000 A 
ATOM     13  C   UNL     1       4.388   4.842  18.907  0.00  0.00    +0.000 A 
ATOM     14  C   UNL     1       6.798   5.317  18.536  0.00  0.00    +0.000 C 
ATOM     15  O   UNL     1       7.441   4.296  18.655  0.00  0.00    +0.000 OA
ATOM     16  C   UNL     1       7.386   6.653  18.407  0.00  0.00    +0.000 C 
ATOM     17  C   UNL     1       7.104   7.241  17.241  0.00  0.00    +0.000 C 
ATOM     18  C   UNL     1       6.171   6.586  16.232  0.00  0.00    +0.000 C 
ATOM     19  O   UNL     1       6.120   6.964  15.074  0.00  0.00    +0.000 OA
ENDROOT
BRANCH   1  23
ATOM     20  C   UNL     1       1.425   9.098  18.746  0.00  0.00    +0.000 A 
ATOM     21  C   UNL     1       2.202   8.456  17.778  0.00  0.00    +0.000 A 
ATOM     22  C   UNL     1       2.842   7.251  18.091  0.00  0.00    +0.000 A 
ATOM     23  C   UNL     1       2.727   6.703  19.377  0.00  0.00    +0.000 A 
ATOM     24  C   UNL     1       2.054   7.402  20.375  0.00  0.00    +0.000 A 
ATOM     25  C   UNL     1       1.352   8.561  20.040  0.00  0.00    +0.000 A 
BRANCH  20  26
ATOM     26  C   UNL     1       0.624  10.296  18.376  0.00  0.00    +0.000 C 
ATOM     27  O   UNL     1      -0.496  10.135  17.892  0.00  0.00    +0.000 OA
BRANCH  26  31
ATOM     28  C   UNL     1       2.018  14.312  18.978  0.00  0.00    +0.000 A 
ATOM     29  C   UNL     1       0.767  13.914  19.457  0.00  0.00    +0.000 A 
ATOM     30  C   UNL     1       0.328  12.595  19.288  0.00  0.00    +0.000 A 
ATOM     31  C   UNL     1       1.132  11.673  18.608  0.00  0.00    +0.000 A 
ATOM     32  C   UNL     1       2.378  12.080  18.118  0.00  0.00    +0.000 A 
ATOM     33  C   UNL     1       2.824  13.388  18.315  0.00  0.00    +0.000 A 
BRANCH  28  35
ATOM     34  C   UNL     1       2.990  16.261  18.068  0.00  0.00    +0.000 C 
ATOM     35  O   UNL     1       2.335  15.629  19.164  0.00  0.00    +0.000 OA
ENDBRANCH  28  35
ENDBRANCH  26  31
ENDBRANCH  20  26
ENDBRANCH   1  23
TORSDOF 4
ENDMDL
MODEL 6
REMARK VINA RESULT:      -9.1      0.883      1.594
REMARK  Name = 
REMARK  5 active torsions:
REMARK  status: ('A' for Active; 'I' for Inactive)
REMARK    1  A    between atoms: C_1  and  O_2
REMARK    2  A    between atoms: O_2  and  C_3
REMARK    3  A    between atoms: C_6  and  C_7
REMARK    4  A    between atoms: C_7  and  C_9
REMARK    5  A    between atoms: C_12  and  N_13
REMARK                            x       y       z     vdW  Elec       q    Type
REMARK                         _______ _______ _______ _____ _____    ______ ____
ROOT
ATOM      1  N   UNL     1       3.276   5.345  18.991  0.00  0.00    +0.000 N 
ATOM      2  C   UNL     1       2.505   4.214  19.126  0.00  0.00    +0.000 A 
ATOM      3  C   UNL     1       1.519   3.841  20.027  0.00  0.00    +0.000 A 
ATOM      4  C   UNL     1       0.950   2.583  19.841  0.00  0.00    +0.000 A 
ATOM      5  C   UNL     1       1.322   1.777  18.756  0.00  0.00    +0.000 A 
ATOM      6  C   UNL     1       2.259   2.214  17.801  0.00  0.00    +0.000 A 
ATOM      7  C   UNL     1       2.906   3.435  17.995  0.00  0.00    +0.000 A 
ATOM      8  C   UNL     1       3.862   4.256  17.352  0.00  0.00    +0.000 A 
ATOM      9  C   UNL     1       4.321   4.612  16.059  0.00  0.00    +0.000 A 
ATOM     10  C   UNL     1       5.304   5.641  15.946  0.00  0.00    +0.000 A 
ATOM     11  C   UNL     1       6.030   6.027  17.065  0.00  0.00    +0.000 A 
ATOM     12  C   UNL     1       5.707   5.436  18.265  0.00  0.00    +0.000 A 
ATOM     13  C   UNL     1       4.481   4.848  18.461  0.00  0.00    +0.000 A 
ATOM     14  C   UNL     1       6.883   5.084  19.048  0.00  0.00    +0.000 C 
ATOM     15  O   UNL     1       7.419   3.996  19.033  0.00  0.00    +0.000 OA
ATOM     16  C   UNL     1       7.515   6.308  19.546  0.00  0.00    +0.000 C 
ATOM     17  C   UNL     1       7.668   7.242  18.601  0.00  0.00    +0.000 C 
ATOM     18  C   UNL     1       7.122   7.040  17.196  0.00  0.00    +0.000 C 
ATOM     19  O   UNL     1       7.483   7.741  16.266  0.00  0.00    +0.000 OA
ENDROOT
BRANCH   1  23
ATOM     20  C   UNL     1       1.832   9.311  18.750  0.00  0.00    +0.000 A 
ATOM     21  C   UNL     1       2.550   8.760  17.685  0.00  0.00    +0.000 A 
ATOM     22  C   UNL     1       3.027   7.447  17.779  0.00  0.00    +0.000 A 
ATOM     23  C   UNL     1       2.811   6.698  18.944  0.00  0.00    +0.000 A 
ATOM     24  C   UNL     1       2.203   7.286  20.050  0.00  0.00    +0.000 A 
ATOM     25  C   UNL     1       1.658   8.566  19.926  0.00  0.00    +0.000 A 
BRANCH  20  26
ATOM     26  C   UNL     1       1.194  10.648  18.598  0.00  0.00    +0.000 C 
ATOM     27  O   UNL     1       1.915  11.639  18.484  0.00  0.00    +0.000 OA
BRANCH  26  31
ATOM     28  C   UNL     1      -3.063  11.139  18.357  0.00  0.00    +0.000 A 
ATOM     29  C   UNL     1      -2.415  10.169  17.588  0.00  0.00    +0.000 A 
ATOM     30  C   UNL     1      -1.031   9.989  17.693  0.00  0.00    +0.000 A 
ATOM     31  C   UNL     1      -0.283  10.804  18.549  0.00  0.00    +0.000 A 
ATOM     32  C   UNL     1      -0.934  11.784  19.307  0.00  0.00    +0.000 A 
ATOM     33  C   UNL     1      -2.319  11.939  19.223  0.00  0.00    +0.000 A 
BRANCH  28  35
ATOM     34  C   UNL     1      -4.799  11.643  16.838  0.00  0.00    +0.000 C 
ATOM     35  O   UNL     1      -4.411  11.257  18.154  0.00  0.00    +0.000 OA
ENDBRANCH  28  35
ENDBRANCH  26  31
ENDBRANCH  20  26
ENDBRANCH   1  23
TORSDOF 4
ENDMDL
MODEL 7
REMARK VINA RESULT:      -9.1      2.038      4.610
REMARK  Name = 
REMARK  5 active torsions:
REMARK  status: ('A' for Active; 'I' for Inactive)
REMARK    1  A    between atoms: C_1  and  O_2
REMARK    2  A    between atoms: O_2  and  C_3
REMARK    3  A    between atoms: C_6  and  C_7
REMARK    4  A    between atoms: C_7  and  C_9
REMARK    5  A    between atoms: C_12  and  N_13
REMARK                            x       y       z     vdW  Elec       q    Type
REMARK                         _______ _______ _______ _____ _____    ______ ____
ROOT
ATOM      1  N   UNL     1       3.698   5.490  17.520  0.00  0.00    +0.000 N 
ATOM      2  C   UNL     1       4.758   5.527  16.644  0.00  0.00    +0.000 A 
ATOM      3  C   UNL     1       4.993   6.226  15.469  0.00  0.00    +0.000 A 
ATOM      4  C   UNL     1       6.216   5.995  14.842  0.00  0.00    +0.000 A 
ATOM      5  C   UNL     1       7.173   5.149  15.418  0.00  0.00    +0.000 A 
ATOM      6  C   UNL     1       6.950   4.521  16.659  0.00  0.00    +0.000 A 
ATOM      7  C   UNL     1       5.708   4.666  17.278  0.00  0.00    +0.000 A 
ATOM      8  C   UNL     1       5.047   4.261  18.461  0.00  0.00    +0.000 A 
ATOM      9  C   UNL     1       5.303   3.957  19.821  0.00  0.00    +0.000 A 
ATOM     10  C   UNL     1       4.194   3.690  20.680  0.00  0.00    +0.000 A 
ATOM     11  C   UNL     1       2.953   3.396  20.131  0.00  0.00    +0.000 A 
ATOM     12  C   UNL     1       2.837   3.450  18.761  0.00  0.00    +0.000 A 
ATOM     13  C   UNL     1       3.726   4.168  17.999  0.00  0.00    +0.000 A 
ATOM     14  C   UNL     1       2.050   2.348  18.224  0.00  0.00    +0.000 C 
ATOM     15  O   UNL     1       2.517   1.306  17.813  0.00  0.00    +0.000 OA
ATOM     16  C   UNL     1       0.645   2.535  18.591  0.00  0.00    +0.000 C 
ATOM     17  C   UNL     1       0.474   2.833  19.883  0.00  0.00    +0.000 C 
ATOM     18  C   UNL     1       1.664   3.052  20.806  0.00  0.00    +0.000 C 
ATOM     19  O   UNL     1       1.537   3.050  22.018  0.00  0.00    +0.000 OA
ENDROOT
BRANCH   1  23
ATOM     20  C   UNL     1       1.714   8.806  19.234  0.00  0.00    +0.000 A 
ATOM     21  C   UNL     1       2.263   8.903  17.952  0.00  0.00    +0.000 A 
ATOM     22  C   UNL     1       2.922   7.799  17.398  0.00  0.00    +0.000 A 
ATOM     23  C   UNL     1       3.055   6.612  18.133  0.00  0.00    +0.000 A 
ATOM     24  C   UNL     1       2.616   6.556  19.453  0.00  0.00    +0.000 A 
ATOM     25  C   UNL     1       1.890   7.629  19.975  0.00  0.00    +0.000 A 
BRANCH  20  26
ATOM     26  C   UNL     1       0.885   9.921  19.768  0.00  0.00    +0.000 C 
ATOM     27  O   UNL     1       1.264  10.511  20.780  0.00  0.00    +0.000 OA
BRANCH  26  31
ATOM     28  C   UNL     1      -2.666  11.214  17.731  0.00  0.00    +0.000 A 
ATOM     29  C   UNL     1      -1.899  10.162  17.225  0.00  0.00    +0.000 A 
ATOM     30  C   UNL     1      -0.759   9.721  17.908  0.00  0.00    +0.000 A 
ATOM     31  C   UNL     1      -0.365  10.355  19.091  0.00  0.00    +0.000 A 
ATOM     32  C   UNL     1      -1.128  11.418  19.587  0.00  0.00    +0.000 A 
ATOM     33  C   UNL     1      -2.281  11.834  18.919  0.00  0.00    +0.000 A 
BRANCH  28  35
ATOM     34  C   UNL     1      -3.856  10.930  15.712  0.00  0.00    +0.000 C 
ATOM     35  O   UNL     1      -3.738  11.590  16.969  0.00  0.00    +0.000 OA
ENDBRANCH  28  35
ENDBRANCH  26  31
ENDBRANCH  20  26
ENDBRANCH   1  23
TORSDOF 4
ENDMDL
MODEL 8
REMARK VINA RESULT:      -8.8      3.078      9.371
REMARK  Name = 
REMARK  5 active torsions:
REMARK  status: ('A' for Active; 'I' for Inactive)
REMARK    1  A    between atoms: C_1  and  O_2
REMARK    2  A    between atoms: O_2  and  C_3
REMARK    3  A    between atoms: C_6  and  C_7
REMARK    4  A    between atoms: C_7  and  C_9
REMARK    5  A    between atoms: C_12  and  N_13
REMARK                            x       y       z     vdW  Elec       q    Type
REMARK                         _______ _______ _______ _____ _____    ______ ____
ROOT
ATOM      1  N   UNL     1      -1.671  12.008  19.081  0.00  0.00    +0.000 N 
ATOM      2  C   UNL     1      -3.038  11.911  18.959  0.00  0.00    +0.000 A 
ATOM      3  C   UNL     1      -3.867  11.346  18.001  0.00  0.00    +0.000 A 
ATOM      4  C   UNL     1      -5.238  11.449  18.227  0.00  0.00    +0.000 A 
ATOM      5  C   UNL     1      -5.734  12.038  19.397  0.00  0.00    +0.000 A 
ATOM      6  C   UNL     1      -4.873  12.524  20.400  0.00  0.00    +0.000 A 
ATOM      7  C   UNL     1      -3.496  12.508  20.176  0.00  0.00    +0.000 A 
ATOM      8  C   UNL     1      -2.297  12.856  20.843  0.00  0.00    +0.000 A 
ATOM      9  C   UNL     1      -1.737  12.929  22.142  0.00  0.00    +0.000 A 
ATOM     10  C   UNL     1      -0.354  13.262  22.269  0.00  0.00    +0.000 A 
ATOM     11  C   UNL     1       0.319  13.830  21.196  0.00  0.00    +0.000 A 
ATOM     12  C   UNL     1      -0.376  13.980  20.018  0.00  0.00    +0.000 A 
ATOM     13  C   UNL     1      -1.497  13.231  19.754  0.00  0.00    +0.000 A 
ATOM     14  C   UNL     1      -0.115  15.259  19.375  0.00  0.00    +0.000 C 
ATOM     15  O   UNL     1      -0.795  16.253  19.519  0.00  0.00    +0.000 OA
ATOM     16  C   UNL     1       1.252  15.264  18.848  0.00  0.00    +0.000 C 
ATOM     17  C   UNL     1       2.157  14.829  19.731  0.00  0.00    +0.000 C 
ATOM     18  C   UNL     1       1.737  14.293  21.092  0.00  0.00    +0.000 C 
ATOM     19  O   UNL     1       2.542  14.154  21.997  0.00  0.00    +0.000 OA
ENDROOT
BRANCH   1  23
ATOM     20  C   UNL     1       1.182   8.911  18.703  0.00  0.00    +0.000 A 
ATOM     21  C   UNL     1       0.378   9.262  17.614  0.00  0.00    +0.000 A 
ATOM     22  C   UNL     1      -0.566  10.286  17.754  0.00  0.00    +0.000 A 
ATOM     23  C   UNL     1      -0.726  10.938  18.985  0.00  0.00    +0.000 A 
ATOM     24  C   UNL     1      -0.012  10.507  20.100  0.00  0.00    +0.000 A 
ATOM     25  C   UNL     1       0.983   9.542  19.940  0.00  0.00    +0.000 A 
BRANCH  20  26
ATOM     26  C   UNL     1       2.287   7.930  18.520  0.00  0.00    +0.000 C 
ATOM     27  O   UNL     1       3.351   8.319  18.040  0.00  0.00    +0.000 OA
BRANCH  26  31
ATOM     28  C   UNL     1       1.964   3.834  19.763  0.00  0.00    +0.000 A 
ATOM     29  C   UNL     1       1.875   4.869  20.697  0.00  0.00    +0.000 A 
ATOM     30  C   UNL     1       1.948   6.205  20.285  0.00  0.00    +0.000 A 
ATOM     31  C   UNL     1       2.142   6.510  18.933  0.00  0.00    +0.000 A 
ATOM     32  C   UNL     1       2.245   5.470  18.003  0.00  0.00    +0.000 A 
ATOM     33  C   UNL     1       2.141   4.139  18.415  0.00  0.00    +0.000 A 
BRANCH  28  35
ATOM     34  C   UNL     1       1.821   2.481  21.693  0.00  0.00    +0.000 C 
ATOM     35  O   UNL     1       1.917   2.566  20.274  0.00  0.00    +0.000 OA
ENDBRANCH  28  35
ENDBRANCH  26  31
ENDBRANCH  20  26
ENDBRANCH   1  23
TORSDOF 4
ENDMDL
MODEL 9
REMARK VINA RESULT:      -8.7      7.748     10.522
REMARK  Name = 
REMARK  5 active torsions:
REMARK  status: ('A' for Active; 'I' for Inactive)
REMARK    1  A    between atoms: C_1  and  O_2
REMARK    2  A    between atoms: O_2  and  C_3
REMARK    3  A    between atoms: C_6  and  C_7
REMARK    4  A    between atoms: C_7  and  C_9
REMARK    5  A    between atoms: C_12  and  N_13
REMARK                            x       y       z     vdW  Elec       q    Type
REMARK                         _______ _______ _______ _____ _____    ______ ____
ROOT
ATOM      1  N   UNL     1       9.615  15.332  18.741  0.00  0.00    +0.000 N 
ATOM      2  C   UNL     1      10.413  16.419  18.468  0.00  0.00    +0.000 A 
ATOM      3  C   UNL     1      10.557  17.233  17.354  0.00  0.00    +0.000 A 
ATOM      4  C   UNL     1      11.492  18.262  17.452  0.00  0.00    +0.000 A 
ATOM      5  C   UNL     1      12.192  18.489  18.645  0.00  0.00    +0.000 A 
ATOM      6  C   UNL     1      11.962  17.707  19.794  0.00  0.00    +0.000 A 
ATOM      7  C   UNL     1      11.091  16.620  19.711  0.00  0.00    +0.000 A 
ATOM      8  C   UNL     1      10.563  15.604  20.542  0.00  0.00    +0.000 A 
ATOM      9  C   UNL     1      10.188  15.361  21.887  0.00  0.00    +0.000 A 
ATOM     10  C   UNL     1       9.562  14.117  22.204  0.00  0.00    +0.000 A 
ATOM     11  C   UNL     1       9.638  13.060  21.309  0.00  0.00    +0.000 A 
ATOM     12  C   UNL     1      10.263  13.291  20.105  0.00  0.00    +0.000 A 
ATOM     13  C   UNL     1      10.410  14.566  19.613  0.00  0.00    +0.000 A 
ATOM     14  C   UNL     1      11.123  12.188  19.701  0.00  0.00    +0.000 C 
ATOM     15  O   UNL     1      12.313  12.124  19.931  0.00  0.00    +0.000 OA
ATOM     16  C   UNL     1      10.293  11.042  19.323  0.00  0.00    +0.000 C 
ATOM     17  C   UNL     1       9.333  10.773  20.214  0.00  0.00    +0.000 C 
ATOM     18  C   UNL     1       9.104  11.668  21.423  0.00  0.00    +0.000 C 
ATOM     19  O   UNL     1       8.434  11.297  22.371  0.00  0.00    +0.000 OA
ENDROOT
BRANCH   1  23
ATOM     20  C   UNL     1       5.425  15.202  18.199  0.00  0.00    +0.000 A 
ATOM     21  C   UNL     1       5.995  16.170  19.031  0.00  0.00    +0.000 A 
ATOM     22  C   UNL     1       7.384  16.200  19.206  0.00  0.00    +0.000 A 
ATOM     23  C   UNL     1       8.197  15.248  18.574  0.00  0.00    +0.000 A 
ATOM     24  C   UNL     1       7.620  14.211  17.845  0.00  0.00    +0.000 A 
ATOM     25  C   UNL     1       6.244  14.231  17.607  0.00  0.00    +0.000 A 
BRANCH  20  26
ATOM     26  C   UNL     1       3.969  15.258  17.890  0.00  0.00    +0.000 C 
ATOM     27  O   UNL     1       3.567  16.088  17.075  0.00  0.00    +0.000 OA
BRANCH  26  31
ATOM     28  C   UNL     1       1.253  12.525  19.782  0.00  0.00    +0.000 A 
ATOM     29  C   UNL     1       1.509  13.777  20.346  0.00  0.00    +0.000 A 
ATOM     30  C   UNL     1       2.370  14.680  19.710  0.00  0.00    +0.000 A 
ATOM     31  C   UNL     1       3.005  14.317  18.518  0.00  0.00    +0.000 A 
ATOM     32  C   UNL     1       2.757  13.056  17.964  0.00  0.00    +0.000 A 
ATOM     33  C   UNL     1       1.874  12.171  18.585  0.00  0.00    +0.000 A 
BRANCH  28  35
ATOM     34  C   UNL     1      -0.138  12.285  21.675  0.00  0.00    +0.000 C 
ATOM     35  O   UNL     1       0.426  11.706  20.501  0.00  0.00    +0.000 OA
ENDBRANCH  28  35
ENDBRANCH  26  31
ENDBRANCH  20  26
ENDBRANCH   1  23
TORSDOF 4
ENDMDL
