MODEL 1
REMARK VINA RESULT:      -8.4      0.000      0.000
REMARK  Name = 
REMARK  8 active torsions:
REMARK  status: ('A' for Active; 'I' for Inactive)
REMARK    1  A    between atoms: C_1  and  C_2
REMARK    2  A    between atoms: C_2  and  O_3
REMARK    3  A    between atoms: O_3  and  C_4
REMARK    4  A    between atoms: C_7  and  C_8
REMARK    5  A    between atoms: N_10  and  C_11
REMARK    6  A    between atoms: C_14  and  S_15
REMARK    7  A    between atoms: S_15  and  N_16
REMARK    8  A    between atoms: C_21  and  C_22
REMARK                            x       y       z     vdW  Elec       q    Type
REMARK                         _______ _______ _______ _____ _____    ______ ____
ROOT
ATOM      1  C   UNL     1       1.299   9.187  19.220  0.00  0.00    +0.000 C 
ATOM      2  N   UNL     1       0.594   9.494  20.264  0.00  0.00    +0.000 NA
ATOM      3  N   UNL     1       0.022  10.707  20.019  0.00  0.00    +0.000 N 
ATOM      4  C   UNL     1       0.312  11.227  18.683  0.00  0.00    +0.000 C 
ATOM      5  C   UNL     1       1.295  10.208  18.117  0.00  0.00    +0.000 C 
ENDROOT
BRANCH   4   6
ATOM      6  C   UNL     1       0.900  12.628  18.690  0.00  0.00    +0.000 A 
ATOM      7  C   UNL     1       2.293  12.782  18.650  0.00  0.00    +0.000 A 
ATOM      8  C   UNL     1       2.860  14.048  18.509  0.00  0.00    +0.000 A 
ATOM      9  C   UNL     1       2.053  15.191  18.415  0.00  0.00    +0.000 A 
ATOM     10  C   UNL     1       2.604  16.447  18.121  0.00  0.00    +0.000 A 
ATOM     11  C   UNL     1       1.792  17.576  18.024  0.00  0.00    +0.000 A 
ATOM     12  C   UNL     1       0.429  17.475  18.292  0.00  0.00    +0.000 A 
ATOM     13  C   UNL     1      -0.136  16.230  18.575  0.00  0.00    +0.000 A 
ATOM     14  C   UNL     1       0.658  15.068  18.586  0.00  0.00    +0.000 A 
ATOM     15  C   UNL     1       0.099  13.785  18.718  0.00  0.00    +0.000 A 
ENDBRANCH   4   6
BRANCH   1  19
ATOM     16  C   UNL     1       3.506   5.542  18.850  0.00  0.00    +0.000 A 
ATOM     17  C   UNL     1       3.598   6.525  17.864  0.00  0.00    +0.000 A 
ATOM     18  C   UNL     1       2.890   7.722  17.992  0.00  0.00    +0.000 A 
ATOM     19  C   UNL     1       2.070   7.932  19.105  0.00  0.00    +0.000 A 
ATOM     20  C   UNL     1       1.970   6.941  20.088  0.00  0.00    +0.000 A 
ATOM     21  C   UNL     1       2.676   5.744  19.952  0.00  0.00    +0.000 A 
BRANCH  16  22
ATOM     22  O   UNL     1       4.254   4.420  18.632  0.00  0.00    +0.000 OA
BRANCH  22  24
ATOM     23  C   UNL     1       2.718   3.010  17.489  0.00  0.00    +0.000 C 
ATOM     24  C   UNL     1       4.032   3.757  17.386  0.00  0.00    +0.000 C 
ENDBRANCH  22  24
ENDBRANCH  16  22
ENDBRANCH   1  19
BRANCH   3  25
ATOM     25  C   UNL     1      -0.919  11.214  20.911  0.00  0.00    +0.000 A 
ATOM     26  C   UNL     1      -0.766  10.977  22.289  0.00  0.00    +0.000 A 
ATOM     27  C   UNL     1      -1.644  11.511  23.232  0.00  0.00    +0.000 A 
ATOM     28  C   UNL     1      -2.713  12.288  22.799  0.00  0.00    +0.000 A 
ATOM     29  C   UNL     1      -2.925  12.511  21.437  0.00  0.00    +0.000 A 
ATOM     30  C   UNL     1      -2.021  11.985  20.506  0.00  0.00    +0.000 A 
BRANCH  28  31
ATOM     31  S   UNL     1      -3.811  12.983  23.992  0.00  0.00    +0.000 S 
ATOM     32  O   UNL     1      -4.532  11.929  24.654  0.00  0.00    +0.000 OA
ATOM     33  O   UNL     1      -3.131  14.038  24.713  0.00  0.00    +0.000 OA
BRANCH  31  34
ATOM     34  N   UNL     1      -4.928  13.753  22.998  0.00  0.00    +0.000 NA
ATOM     35  H   UNL     1      -5.613  13.079  22.658  0.00  0.00    +0.000 HD
ATOM     36  H   UNL     1      -5.326  14.560  23.475  0.00  0.00    +0.000 HD
ENDBRANCH  31  34
ENDBRANCH  28  31
ENDBRANCH   3  25
TORSDOF 7
ENDMDL
MODEL 2
REMARK VINA RESULT:      -8.4      0.516      1.283
REMARK  Name = 
REMARK  8 active torsions:
REMARK  status: ('A' for Active; 'I' for Inactive)
REMARK    1  A    between atoms: C_1  and  C_2
REMARK    2  A    between atoms: C_2  and  O_3
REMARK    3  A    between atoms: O_3  and  C_4
REMARK    4  A    between atoms: C_7  and  C_8
REMARK    5  A    between atoms: N_10  and  C_11
REMARK    6  A    between atoms: C_14  and  S_15
REMARK    7  A    between atoms: S_15  and  N_16
REMARK    8  A    between atoms: C_21  and  C_22
REMARK                            x       y       z     vdW  Elec       q    Type
REMARK                         _______ _______ _______ _____ _____    ______ ____
ROOT
ATOM      1  C   UNL     1       1.430   9.087  19.175  0.00  0.00    +0.000 C 
ATOM      2  N   UNL     1       0.754   9.405  20.234  0.00  0.00    +0.000 NA
ATOM      3  N   UNL     1       0.197  10.628  20.003  0.00  0.00    +0.000 N 
ATOM      4  C   UNL     1       0.467  11.144  18.661  0.00  0.00    +0.000 C 
ATOM      5  C   UNL     1       1.420  10.110  18.073  0.00  0.00    +0.000 C 
ENDROOT
BRANCH   4   6
ATOM      6  C   UNL     1       1.078  12.536  18.657  0.00  0.00    +0.000 A 
ATOM      7  C   UNL     1       2.467  12.668  18.521  0.00  0.00    +0.000 A 
ATOM      8  C   UNL     1       3.046  13.927  18.367  0.00  0.00    +0.000 A 
ATOM      9  C   UNL     1       2.254  15.085  18.356  0.00  0.00    +0.000 A 
ATOM     10  C   UNL     1       2.805  16.338  18.050  0.00  0.00    +0.000 A 
ATOM     11  C   UNL     1       2.008  17.482  18.035  0.00  0.00    +0.000 A 
ATOM     12  C   UNL     1       0.666  17.397  18.396  0.00  0.00    +0.000 A 
ATOM     13  C   UNL     1       0.101  16.155  18.692  0.00  0.00    +0.000 A 
ATOM     14  C   UNL     1       0.873  14.981  18.622  0.00  0.00    +0.000 A 
ATOM     15  C   UNL     1       0.301  13.704  18.766  0.00  0.00    +0.000 A 
ENDBRANCH   4   6
BRANCH   1  19
ATOM     16  C   UNL     1       3.622   5.431  18.826  0.00  0.00    +0.000 A 
ATOM     17  C   UNL     1       2.811   5.663  19.937  0.00  0.00    +0.000 A 
ATOM     18  C   UNL     1       2.082   6.850  20.044  0.00  0.00    +0.000 A 
ATOM     19  C   UNL     1       2.178   7.820  19.042  0.00  0.00    +0.000 A 
ATOM     20  C   UNL     1       3.000   7.591  17.933  0.00  0.00    +0.000 A 
ATOM     21  C   UNL     1       3.730   6.405  17.833  0.00  0.00    +0.000 A 
BRANCH  16  22
ATOM     22  O   UNL     1       4.275   4.231  18.815  0.00  0.00    +0.000 OA
BRANCH  22  24
ATOM     23  C   UNL     1       3.254   2.171  18.209  0.00  0.00    +0.000 C 
ATOM     24  C   UNL     1       3.550   3.123  19.351  0.00  0.00    +0.000 C 
ENDBRANCH  22  24
ENDBRANCH  16  22
ENDBRANCH   1  19
BRANCH   3  25
ATOM     25  C   UNL     1      -0.716  11.150  20.916  0.00  0.00    +0.000 A 
ATOM     26  C   UNL     1      -1.799  11.916  20.451  0.00  0.00    +0.000 A 
ATOM     27  C   UNL     1      -2.777  12.411  21.313  0.00  0.00    +0.000 A 
ATOM     28  C   UNL     1      -2.671  12.155  22.677  0.00  0.00    +0.000 A 
ATOM     29  C   UNL     1      -1.588  11.435  23.183  0.00  0.00    +0.000 A 
ATOM     30  C   UNL     1      -0.627  10.927  22.299  0.00  0.00    +0.000 A 
BRANCH  28  31
ATOM     31  S   UNL     1      -3.919  12.761  23.766  0.00  0.00    +0.000 S 
ATOM     32  O   UNL     1      -4.183  11.784  24.787  0.00  0.00    +0.000 OA
ATOM     33  O   UNL     1      -3.660  14.154  24.064  0.00  0.00    +0.000 OA
BRANCH  31  34
ATOM     34  N   UNL     1      -5.265  12.752  22.758  0.00  0.00    +0.000 NA
ATOM     35  H   UNL     1      -6.098  12.511  23.294  0.00  0.00    +0.000 HD
ATOM     36  H   UNL     1      -5.328  13.630  22.246  0.00  0.00    +0.000 HD
ENDBRANCH  31  34
ENDBRANCH  28  31
ENDBRANCH   3  25
TORSDOF 7
ENDMDL
MODEL 3
REMARK VINA RESULT:      -8.3      0.708      1.191
REMARK  Name = 
REMARK  8 active torsions:
REMARK  status: ('A' for Active; 'I' for Inactive)
REMARK    1  A    between atoms: C_1  and  C_2
REMARK    2  A    between atoms: C_2  and  O_3
REMARK    3  A    between atoms: O_3  and  C_4
REMARK    4  A    between atoms: C_7  and  C_8
REMARK    5  A    between atoms: N_10  and  C_11
REMARK    6  A    between atoms: C_14  and  S_15
REMARK    7  A    between atoms: S_15  and  N_16
REMARK    8  A    between atoms: C_21  and  C_22
REMARK                            x       y       z     vdW  Elec       q    Type
REMARK                         _______ _______ _______ _____ _____    ______ ____
ROOT
ATOM      1  C   UNL     1       1.176   9.312  19.341  0.00  0.00    +0.000 C 
ATOM      2  N   UNL     1       0.511   9.653  20.400  0.00  0.00    +0.000 NA
ATOM      3  N   UNL     1      -0.044  10.873  20.150  0.00  0.00    +0.000 N 
ATOM      4  C   UNL     1       0.216  11.363  18.797  0.00  0.00    +0.000 C 
ATOM      5  C   UNL     1       1.160  10.314  18.221  0.00  0.00    +0.000 C 
ENDROOT
BRANCH   4   6
ATOM      6  C   UNL     1       0.833  12.752  18.761  0.00  0.00    +0.000 A 
ATOM      7  C   UNL     1       2.228  12.875  18.730  0.00  0.00    +0.000 A 
ATOM      8  C   UNL     1       2.823  14.124  18.551  0.00  0.00    +0.000 A 
ATOM      9  C   UNL     1       2.041  15.279  18.408  0.00  0.00    +0.000 A 
ATOM     10  C   UNL     1       2.620  16.512  18.076  0.00  0.00    +0.000 A 
ATOM     11  C   UNL     1       1.832  17.653  17.929  0.00  0.00    +0.000 A 
ATOM     12  C   UNL     1       0.465  17.589  18.186  0.00  0.00    +0.000 A 
ATOM     13  C   UNL     1      -0.128  16.366  18.506  0.00  0.00    +0.000 A 
ATOM     14  C   UNL     1       0.642  15.190  18.567  0.00  0.00    +0.000 A 
ATOM     15  C   UNL     1       0.055  13.924  18.739  0.00  0.00    +0.000 A 
ENDBRANCH   4   6
BRANCH   1  19
ATOM     16  C   UNL     1       3.297   5.616  18.971  0.00  0.00    +0.000 A 
ATOM     17  C   UNL     1       3.383   6.581  17.967  0.00  0.00    +0.000 A 
ATOM     18  C   UNL     1       2.703   7.795  18.095  0.00  0.00    +0.000 A 
ATOM     19  C   UNL     1       1.919   8.040  19.226  0.00  0.00    +0.000 A 
ATOM     20  C   UNL     1       1.824   7.066  20.226  0.00  0.00    +0.000 A 
ATOM     21  C   UNL     1       2.501   5.853  20.092  0.00  0.00    +0.000 A 
BRANCH  16  22
ATOM     22  O   UNL     1       4.015   4.475  18.752  0.00  0.00    +0.000 OA
BRANCH  22  24
ATOM     23  C   UNL     1       2.623   2.867  17.688  0.00  0.00    +0.000 C 
ATOM     24  C   UNL     1       3.319   3.249  18.979  0.00  0.00    +0.000 C 
ENDBRANCH  22  24
ENDBRANCH  16  22
ENDBRANCH   1  19
BRANCH   3  25
ATOM     25  C   UNL     1      -0.947  11.415  21.061  0.00  0.00    +0.000 A 
ATOM     26  C   UNL     1      -2.035  12.173  20.590  0.00  0.00    +0.000 A 
ATOM     27  C   UNL     1      -3.003  12.687  21.451  0.00  0.00    +0.000 A 
ATOM     28  C   UNL     1      -2.884  12.460  22.819  0.00  0.00    +0.000 A 
ATOM     29  C   UNL     1      -1.796  11.750  23.330  0.00  0.00    +0.000 A 
ATOM     30  C   UNL     1      -0.845  11.222  22.448  0.00  0.00    +0.000 A 
BRANCH  28  31
ATOM     31  S   UNL     1      -4.120  13.091  23.907  0.00  0.00    +0.000 S 
ATOM     32  O   UNL     1      -3.514  13.986  24.857  0.00  0.00    +0.000 OA
ATOM     33  O   UNL     1      -5.298  13.444  23.143  0.00  0.00    +0.000 OA
BRANCH  31  34
ATOM     34  N   UNL     1      -4.532  11.709  24.771  0.00  0.00    +0.000 NA
ATOM     35  H   UNL     1      -4.435  11.883  25.771  0.00  0.00    +0.000 HD
ATOM     36  H   UNL     1      -5.449  11.374  24.484  0.00  0.00    +0.000 HD
ENDBRANCH  31  34
ENDBRANCH  28  31
ENDBRANCH   3  25
TORSDOF 7
ENDMDL
MODEL 4
REMARK VINA RESULT:      -8.3      0.794      1.236
REMARK  Name = 
REMARK  8 active torsions:
REMARK  status: ('A' for Active; 'I' for Inactive)
REMARK    1  A    between atoms: C_1  and  C_2
REMARK    2  A    between atoms: C_2  and  O_3
REMARK    3  A    between atoms: O_3  and  C_4
REMARK    4  A    between atoms: C_7  and  C_8
REMARK    5  A    between atoms: N_10  and  C_11
REMARK    6  A    between atoms: C_14  and  S_15
REMARK    7  A    between atoms: S_15  and  N_16
REMARK    8  A    between atoms: C_21  and  C_22
REMARK                            x       y       z     vdW  Elec       q    Type
REMARK                         _______ _______ _______ _____ _____    ______ ____
ROOT
ATOM      1  C   UNL     1       1.051   9.539  19.259  0.00  0.00    +0.000 C 
ATOM      2  N   UNL     1       0.334   9.821  20.301  0.00  0.00    +0.000 NA
ATOM      3  N   UNL     1      -0.248  11.033  20.072  0.00  0.00    +0.000 N 
ATOM      4  C   UNL     1       0.049  11.578  18.748  0.00  0.00    +0.000 C 
ATOM      5  C   UNL     1       1.048  10.579  18.174  0.00  0.00    +0.000 C 
ENDROOT
BRANCH   4   6
ATOM      6  C   UNL     1       0.623  12.985  18.785  0.00  0.00    +0.000 A 
ATOM      7  C   UNL     1       2.010  13.151  18.904  0.00  0.00    +0.000 A 
ATOM      8  C   UNL     1       2.582  14.418  18.795  0.00  0.00    +0.000 A 
ATOM      9  C   UNL     1       1.784  15.550  18.576  0.00  0.00    +0.000 A 
ATOM     10  C   UNL     1       2.357  16.803  18.313  0.00  0.00    +0.000 A 
ATOM     11  C   UNL     1       1.555  17.921  18.089  0.00  0.00    +0.000 A 
ATOM     12  C   UNL     1       0.171  17.814  18.198  0.00  0.00    +0.000 A 
ATOM     13  C   UNL     1      -0.415  16.571  18.447  0.00  0.00    +0.000 A 
ATOM     14  C   UNL     1       0.379  15.418  18.584  0.00  0.00    +0.000 A 
ATOM     15  C   UNL     1      -0.184  14.134  18.686  0.00  0.00    +0.000 A 
ENDBRANCH   4   6
BRANCH   1  19
ATOM     16  C   UNL     1       3.352   5.949  18.921  0.00  0.00    +0.000 A 
ATOM     17  C   UNL     1       2.551   6.170  20.042  0.00  0.00    +0.000 A 
ATOM     18  C   UNL     1       1.787   7.334  20.146  0.00  0.00    +0.000 A 
ATOM     19  C   UNL     1       1.836   8.294  19.130  0.00  0.00    +0.000 A 
ATOM     20  C   UNL     1       2.649   8.076  18.012  0.00  0.00    +0.000 A 
ATOM     21  C   UNL     1       3.414   6.913  17.915  0.00  0.00    +0.000 A 
BRANCH  16  22
ATOM     22  O   UNL     1       4.042   4.770  18.916  0.00  0.00    +0.000 OA
BRANCH  22  24
ATOM     23  C   UNL     1       2.770   3.327  17.520  0.00  0.00    +0.000 C 
ATOM     24  C   UNL     1       3.248   3.584  18.934  0.00  0.00    +0.000 C 
ENDBRANCH  22  24
ENDBRANCH  16  22
ENDBRANCH   1  19
BRANCH   3  25
ATOM     25  C   UNL     1      -1.203  11.515  20.963  0.00  0.00    +0.000 A 
ATOM     26  C   UNL     1      -1.019  11.327  22.344  0.00  0.00    +0.000 A 
ATOM     27  C   UNL     1      -1.910  11.840  23.285  0.00  0.00    +0.000 A 
ATOM     28  C   UNL     1      -3.026  12.547  22.847  0.00  0.00    +0.000 A 
ATOM     29  C   UNL     1      -3.268  12.718  21.483  0.00  0.00    +0.000 A 
ATOM     30  C   UNL     1      -2.350  12.214  20.553  0.00  0.00    +0.000 A 
BRANCH  28  31
ATOM     31  S   UNL     1      -4.143  13.217  24.036  0.00  0.00    +0.000 S 
ATOM     32  O   UNL     1      -3.413  14.005  24.992  0.00  0.00    +0.000 OA
ATOM     33  O   UNL     1      -5.326  13.706  23.361  0.00  0.00    +0.000 OA
BRANCH  31  34
ATOM     34  N   UNL     1      -4.623  11.827  24.852  0.00  0.00    +0.000 NA
ATOM     35  H   UNL     1      -3.803  11.298  25.148  0.00  0.00    +0.000 HD
ATOM     36  H   UNL     1      -5.269  12.065  25.602  0.00  0.00    +0.000 HD
ENDBRANCH  31  34
ENDBRANCH  28  31
ENDBRANCH   3  25
TORSDOF 7
ENDMDL
MODEL 5
REMARK VINA RESULT:      -8.3      1.173      1.644
REMARK  Name = 
REMARK  8 active torsions:
REMARK  status: ('A' for Active; 'I' for Inactive)
REMARK    1  A    between atoms: C_1  and  C_2
REMARK    2  A    between atoms: C_2  and  O_3
REMARK    3  A    between atoms: O_3  and  C_4
REMARK    4  A    between atoms: C_7  and  C_8
REMARK    5  A    between atoms: N_10  and  C_11
REMARK    6  A    between atoms: C_14  and  S_15
REMARK    7  A    between atoms: S_15  and  N_16
REMARK    8  A    between atoms: C_21  and  C_22
REMARK                            x       y       z     vdW  Elec       q    Type
REMARK                         _______ _______ _______ _____ _____    ______ ____
ROOT
ATOM      1  C   UNL     1       0.855   9.700  19.437  0.00  0.00    +0.000 C 
ATOM      2  N   UNL     1       0.091   9.973  20.449  0.00  0.00    +0.000 NA
ATOM      3  N   UNL     1      -0.484  11.184  20.202  0.00  0.00    +0.000 N 
ATOM      4  C   UNL     1      -0.131  11.740  18.897  0.00  0.00    +0.000 C 
ATOM      5  C   UNL     1       0.895  10.749  18.360  0.00  0.00    +0.000 C 
ENDROOT
BRANCH   4   6
ATOM      6  C   UNL     1       0.436  13.149  18.969  0.00  0.00    +0.000 A 
ATOM      7  C   UNL     1       1.795  13.321  19.265  0.00  0.00    +0.000 A 
ATOM      8  C   UNL     1       2.378  14.585  19.197  0.00  0.00    +0.000 A 
ATOM      9  C   UNL     1       1.619  15.709  18.841  0.00  0.00    +0.000 A 
ATOM     10  C   UNL     1       2.224  16.955  18.621  0.00  0.00    +0.000 A 
ATOM     11  C   UNL     1       1.460  18.065  18.261  0.00  0.00    +0.000 A 
ATOM     12  C   UNL     1       0.074  17.958  18.189  0.00  0.00    +0.000 A 
ATOM     13  C   UNL     1      -0.542  16.722  18.394  0.00  0.00    +0.000 A 
ATOM     14  C   UNL     1       0.225  15.575  18.668  0.00  0.00    +0.000 A 
ATOM     15  C   UNL     1      -0.349  14.293  18.731  0.00  0.00    +0.000 A 
ENDBRANCH   4   6
BRANCH   1  19
ATOM     16  C   UNL     1       3.127   6.092  19.105  0.00  0.00    +0.000 A 
ATOM     17  C   UNL     1       3.116   7.017  18.060  0.00  0.00    +0.000 A 
ATOM     18  C   UNL     1       2.388   8.203  18.174  0.00  0.00    +0.000 A 
ATOM     19  C   UNL     1       1.649   8.459  19.334  0.00  0.00    +0.000 A 
ATOM     20  C   UNL     1       1.651   7.525  20.376  0.00  0.00    +0.000 A 
ATOM     21  C   UNL     1       2.377   6.339  20.254  0.00  0.00    +0.000 A 
BRANCH  16  22
ATOM     22  O   UNL     1       3.885   4.976  18.893  0.00  0.00    +0.000 OA
BRANCH  22  24
ATOM     23  C   UNL     1       6.229   5.300  19.131  0.00  0.00    +0.000 C 
ATOM     24  C   UNL     1       5.085   5.172  18.144  0.00  0.00    +0.000 C 
ENDBRANCH  22  24
ENDBRANCH  16  22
ENDBRANCH   1  19
BRANCH   3  25
ATOM     25  C   UNL     1      -1.479  11.657  21.054  0.00  0.00    +0.000 A 
ATOM     26  C   UNL     1      -2.628  12.259  20.511  0.00  0.00    +0.000 A 
ATOM     27  C   UNL     1      -3.682  12.695  21.313  0.00  0.00    +0.000 A 
ATOM     28  C   UNL     1      -3.592  12.545  22.693  0.00  0.00    +0.000 A 
ATOM     29  C   UNL     1      -2.450  11.991  23.274  0.00  0.00    +0.000 A 
ATOM     30  C   UNL     1      -1.410  11.539  22.452  0.00  0.00    +0.000 A 
BRANCH  28  31
ATOM     31  S   UNL     1      -4.934  13.075  23.706  0.00  0.00    +0.000 S 
ATOM     32  O   UNL     1      -4.709  14.430  24.133  0.00  0.00    +0.000 OA
ATOM     33  O   UNL     1      -6.182  12.637  23.118  0.00  0.00    +0.000 OA
BRANCH  31  34
ATOM     34  N   UNL     1      -4.711  12.117  25.070  0.00  0.00    +0.000 NA
ATOM     35  H   UNL     1      -4.092  11.338  24.850  0.00  0.00    +0.000 HD
ATOM     36  H   UNL     1      -4.410  12.689  25.857  0.00  0.00    +0.000 HD
ENDBRANCH  31  34
ENDBRANCH  28  31
ENDBRANCH   3  25
TORSDOF 7
ENDMDL
MODEL 6
REMARK VINA RESULT:      -8.3      0.786      1.477
REMARK  Name = 
REMARK  8 active torsions:
REMARK  status: ('A' for Active; 'I' for Inactive)
REMARK    1  A    between atoms: C_1  and  C_2
REMARK    2  A    between atoms: C_2  and  O_3
REMARK    3  A    between atoms: O_3  and  C_4
REMARK    4  A    between atoms: C_7  and  C_8
REMARK    5  A    between atoms: N_10  and  C_11
REMARK    6  A    between atoms: C_14  and  S_15
REMARK    7  A    between atoms: S_15  and  N_16
REMARK    8  A    between atoms: C_21  and  C_22
REMARK                            x       y       z     vdW  Elec       q    Type
REMARK                         _______ _______ _______ _____ _____    ______ ____
ROOT
ATOM      1  C   UNL     1       1.031   9.572  19.322  0.00  0.00    +0.000 C 
ATOM      2  N   UNL     1       0.343   9.861  20.382  0.00  0.00    +0.000 NA
ATOM      3  N   UNL     1      -0.243  11.073  20.164  0.00  0.00    +0.000 N 
ATOM      4  C   UNL     1       0.020  11.612  18.830  0.00  0.00    +0.000 C 
ATOM      5  C   UNL     1       1.000  10.609  18.233  0.00  0.00    +0.000 C 
ENDROOT
BRANCH   4   6
ATOM      6  C   UNL     1       0.597  13.018  18.845  0.00  0.00    +0.000 A 
ATOM      7  C   UNL     1       1.984  13.182  18.962  0.00  0.00    +0.000 A 
ATOM      8  C   UNL     1       2.559  14.446  18.834  0.00  0.00    +0.000 A 
ATOM      9  C   UNL     1       1.764  15.576  18.597  0.00  0.00    +0.000 A 
ATOM     10  C   UNL     1       2.341  16.824  18.316  0.00  0.00    +0.000 A 
ATOM     11  C   UNL     1       1.541  17.940  18.074  0.00  0.00    +0.000 A 
ATOM     12  C   UNL     1       0.157  17.838  18.184  0.00  0.00    +0.000 A 
ATOM     13  C   UNL     1      -0.432  16.601  18.452  0.00  0.00    +0.000 A 
ATOM     14  C   UNL     1       0.360  15.448  18.607  0.00  0.00    +0.000 A 
ATOM     15  C   UNL     1      -0.207  14.167  18.728  0.00  0.00    +0.000 A 
ENDBRANCH   4   6
BRANCH   1  19
ATOM     16  C   UNL     1       3.314   5.976  18.936  0.00  0.00    +0.000 A 
ATOM     17  C   UNL     1       2.520   6.190  20.064  0.00  0.00    +0.000 A 
ATOM     18  C   UNL     1       1.762   7.356  20.183  0.00  0.00    +0.000 A 
ATOM     19  C   UNL     1       1.810   8.325  19.176  0.00  0.00    +0.000 A 
ATOM     20  C   UNL     1       2.615   8.115  18.052  0.00  0.00    +0.000 A 
ATOM     21  C   UNL     1       3.375   6.950  17.940  0.00  0.00    +0.000 A 
BRANCH  16  22
ATOM     22  O   UNL     1       3.999   4.795  18.916  0.00  0.00    +0.000 OA
BRANCH  22  24
ATOM     23  C   UNL     1       3.147   2.774  17.998  0.00  0.00    +0.000 C 
ATOM     24  C   UNL     1       3.914   4.047  17.702  0.00  0.00    +0.000 C 
ENDBRANCH  22  24
ENDBRANCH  16  22
ENDBRANCH   1  19
BRANCH   3  25
ATOM     25  C   UNL     1      -1.172  11.560  21.079  0.00  0.00    +0.000 A 
ATOM     26  C   UNL     1      -2.326  12.213  20.612  0.00  0.00    +0.000 A 
ATOM     27  C   UNL     1      -3.319  12.667  21.480  0.00  0.00    +0.000 A 
ATOM     28  C   UNL     1      -3.158  12.484  22.850  0.00  0.00    +0.000 A 
ATOM     29  C   UNL     1      -2.006  11.879  23.356  0.00  0.00    +0.000 A 
ATOM     30  C   UNL     1      -1.029  11.410  22.468  0.00  0.00    +0.000 A 
BRANCH  28  31
ATOM     31  S   UNL     1      -4.423  13.037  23.947  0.00  0.00    +0.000 S 
ATOM     32  O   UNL     1      -5.340  13.886  23.236  0.00  0.00    +0.000 OA
ATOM     33  O   UNL     1      -4.861  11.931  24.771  0.00  0.00    +0.000 OA
BRANCH  31  34
ATOM     34  N   UNL     1      -3.551  14.051  24.967  0.00  0.00    +0.000 NA
ATOM     35  H   UNL     1      -3.242  14.876  24.454  0.00  0.00    +0.000 HD
ATOM     36  H   UNL     1      -4.087  14.250  25.809  0.00  0.00    +0.000 HD
ENDBRANCH  31  34
ENDBRANCH  28  31
ENDBRANCH   3  25
TORSDOF 7
ENDMDL
MODEL 7
REMARK VINA RESULT:      -8.2      3.645      5.652
REMARK  Name = 
REMARK  8 active torsions:
REMARK  status: ('A' for Active; 'I' for Inactive)
REMARK    1  A    between atoms: C_1  and  C_2
REMARK    2  A    between atoms: C_2  and  O_3
REMARK    3  A    between atoms: O_3  and  C_4
REMARK    4  A    between atoms: C_7  and  C_8
REMARK    5  A    between atoms: N_10  and  C_11
REMARK    6  A    between atoms: C_14  and  S_15
REMARK    7  A    between atoms: S_15  and  N_16
REMARK    8  A    between atoms: C_21  and  C_22
REMARK                            x       y       z     vdW  Elec       q    Type
REMARK                         _______ _______ _______ _____ _____    ______ ____
ROOT
ATOM      1  C   UNL     1       1.472   9.346  19.039  0.00  0.00    +0.000 C 
ATOM      2  N   UNL     1       1.964  10.490  18.677  0.00  0.00    +0.000 NA
ATOM      3  N   UNL     1       1.038  11.441  18.987  0.00  0.00    +0.000 N 
ATOM      4  C   UNL     1      -0.140  10.905  19.668  0.00  0.00    +0.000 C 
ATOM      5  C   UNL     1       0.096   9.399  19.642  0.00  0.00    +0.000 C 
ENDROOT
BRANCH   4   6
ATOM      6  C   UNL     1      -1.452  11.278  18.997  0.00  0.00    +0.000 A 
ATOM      7  C   UNL     1      -1.636  10.968  17.643  0.00  0.00    +0.000 A 
ATOM      8  C   UNL     1      -2.876  11.163  17.036  0.00  0.00    +0.000 A 
ATOM      9  C   UNL     1      -3.958  11.681  17.761  0.00  0.00    +0.000 A 
ATOM     10  C   UNL     1      -5.245  11.739  17.206  0.00  0.00    +0.000 A 
ATOM     11  C   UNL     1      -6.315  12.250  17.938  0.00  0.00    +0.000 A 
ATOM     12  C   UNL     1      -6.097  12.778  19.208  0.00  0.00    +0.000 A 
ATOM     13  C   UNL     1      -4.824  12.718  19.779  0.00  0.00    +0.000 A 
ATOM     14  C   UNL     1      -3.755  12.121  19.087  0.00  0.00    +0.000 A 
ATOM     15  C   UNL     1      -2.502  11.909  19.689  0.00  0.00    +0.000 A 
ENDBRANCH   4   6
BRANCH   1  19
ATOM     16  C   UNL     1       3.577   5.651  18.585  0.00  0.00    +0.000 A 
ATOM     17  C   UNL     1       2.775   5.872  19.706  0.00  0.00    +0.000 A 
ATOM     18  C   UNL     1       2.075   7.072  19.847  0.00  0.00    +0.000 A 
ATOM     19  C   UNL     1       2.190   8.066  18.870  0.00  0.00    +0.000 A 
ATOM     20  C   UNL     1       3.004   7.848  17.753  0.00  0.00    +0.000 A 
ATOM     21  C   UNL     1       3.705   6.648  17.619  0.00  0.00    +0.000 A 
BRANCH  16  22
ATOM     22  O   UNL     1       4.202   4.437  18.541  0.00  0.00    +0.000 OA
BRANCH  22  24
ATOM     23  C   UNL     1       2.706   2.987  17.396  0.00  0.00    +0.000 C 
ATOM     24  C   UNL     1       4.042   3.699  17.330  0.00  0.00    +0.000 C 
ENDBRANCH  22  24
ENDBRANCH  16  22
ENDBRANCH   1  19
BRANCH   3  25
ATOM     25  C   UNL     1       1.366  12.788  18.851  0.00  0.00    +0.000 A 
ATOM     26  C   UNL     1       2.577  13.146  18.233  0.00  0.00    +0.000 A 
ATOM     27  C   UNL     1       2.929  14.478  18.015  0.00  0.00    +0.000 A 
ATOM     28  C   UNL     1       2.065  15.485  18.434  0.00  0.00    +0.000 A 
ATOM     29  C   UNL     1       0.873  15.171  19.090  0.00  0.00    +0.000 A 
ATOM     30  C   UNL     1       0.526  13.828  19.281  0.00  0.00    +0.000 A 
BRANCH  28  31
ATOM     31  S   UNL     1       2.498  17.168  18.139  0.00  0.00    +0.000 S 
ATOM     32  O   UNL     1       2.756  17.361  16.737  0.00  0.00    +0.000 OA
ATOM     33  O   UNL     1       1.617  18.030  18.897  0.00  0.00    +0.000 OA
BRANCH  31  34
ATOM     34  N   UNL     1       3.994  17.259  18.901  0.00  0.00    +0.000 NA
ATOM     35  H   UNL     1       4.734  17.340  18.205  0.00  0.00    +0.000 HD
ATOM     36  H   UNL     1       3.988  17.998  19.603  0.00  0.00    +0.000 HD
ENDBRANCH  31  34
ENDBRANCH  28  31
ENDBRANCH   3  25
TORSDOF 7
ENDMDL
MODEL 8
REMARK VINA RESULT:      -8.2      1.212      1.896
REMARK  Name = 
REMARK  8 active torsions:
REMARK  status: ('A' for Active; 'I' for Inactive)
REMARK    1  A    between atoms: C_1  and  C_2
REMARK    2  A    between atoms: C_2  and  O_3
REMARK    3  A    between atoms: O_3  and  C_4
REMARK    4  A    between atoms: C_7  and  C_8
REMARK    5  A    between atoms: N_10  and  C_11
REMARK    6  A    between atoms: C_14  and  S_15
REMARK    7  A    between atoms: S_15  and  N_16
REMARK    8  A    between atoms: C_21  and  C_22
REMARK                            x       y       z     vdW  Elec       q    Type
REMARK                         _______ _______ _______ _____ _____    ______ ____
ROOT
ATOM      1  C   UNL     1       1.471   9.131  19.336  0.00  0.00    +0.000 C 
ATOM      2  N   UNL     1       0.653   9.408  20.302  0.00  0.00    +0.000 NA
ATOM      3  N   UNL     1       0.296  10.717  20.163  0.00  0.00    +0.000 N 
ATOM      4  C   UNL     1       0.868  11.351  18.976  0.00  0.00    +0.000 C 
ATOM      5  C   UNL     1       1.785  10.274  18.410  0.00  0.00    +0.000 C 
ENDROOT
BRANCH   4   6
ATOM      6  C   UNL     1       1.629  12.632  19.278  0.00  0.00    +0.000 A 
ATOM      7  C   UNL     1       1.992  12.911  20.602  0.00  0.00    +0.000 A 
ATOM      8  C   UNL     1       2.814  13.999  20.896  0.00  0.00    +0.000 A 
ATOM      9  C   UNL     1       3.283  14.840  19.876  0.00  0.00    +0.000 A 
ATOM     10  C   UNL     1       4.229  15.842  20.140  0.00  0.00    +0.000 A 
ATOM     11  C   UNL     1       4.694  16.669  19.117  0.00  0.00    +0.000 A 
ATOM     12  C   UNL     1       4.164  16.551  17.835  0.00  0.00    +0.000 A 
ATOM     13  C   UNL     1       3.231  15.551  17.555  0.00  0.00    +0.000 A 
ATOM     14  C   UNL     1       2.822  14.652  18.557  0.00  0.00    +0.000 A 
ATOM     15  C   UNL     1       2.001  13.545  18.274  0.00  0.00    +0.000 A 
ENDBRANCH   4   6
BRANCH   1  19
ATOM     16  C   UNL     1       3.254   5.278  18.818  0.00  0.00    +0.000 A 
ATOM     17  C   UNL     1       2.545   5.576  19.982  0.00  0.00    +0.000 A 
ATOM     18  C   UNL     1       1.949   6.828  20.145  0.00  0.00    +0.000 A 
ATOM     19  C   UNL     1       2.077   7.797  19.145  0.00  0.00    +0.000 A 
ATOM     20  C   UNL     1       2.798   7.501  17.984  0.00  0.00    +0.000 A 
ATOM     21  C   UNL     1       3.396   6.250  17.828  0.00  0.00    +0.000 A 
BRANCH  16  22
ATOM     22  O   UNL     1       3.781   4.019  18.757  0.00  0.00    +0.000 OA
BRANCH  22  24
ATOM     23  C   UNL     1       2.500   2.312  17.709  0.00  0.00    +0.000 C 
ATOM     24  C   UNL     1       3.606   3.331  17.518  0.00  0.00    +0.000 C 
ENDBRANCH  22  24
ENDBRANCH  16  22
ENDBRANCH   1  19
BRANCH   3  25
ATOM     25  C   UNL     1      -0.702  11.246  20.977  0.00  0.00    +0.000 A 
ATOM     26  C   UNL     1      -1.703  12.054  20.410  0.00  0.00    +0.000 A 
ATOM     27  C   UNL     1      -2.760  12.560  21.165  0.00  0.00    +0.000 A 
ATOM     28  C   UNL     1      -2.821  12.271  22.525  0.00  0.00    +0.000 A 
ATOM     29  C   UNL     1      -1.824  11.508  23.135  0.00  0.00    +0.000 A 
ATOM     30  C   UNL     1      -0.781  10.990  22.356  0.00  0.00    +0.000 A 
BRANCH  28  31
ATOM     31  S   UNL     1      -4.170  12.891  23.477  0.00  0.00    +0.000 S 
ATOM     32  O   UNL     1      -4.382  12.044  24.620  0.00  0.00    +0.000 OA
ATOM     33  O   UNL     1      -4.063  14.330  23.580  0.00  0.00    +0.000 OA
BRANCH  31  34
ATOM     34  N   UNL     1      -5.462  12.601  22.441  0.00  0.00    +0.000 NA
ATOM     35  H   UNL     1      -5.178  11.955  21.705  0.00  0.00    +0.000 HD
ATOM     36  H   UNL     1      -6.280  12.308  22.971  0.00  0.00    +0.000 HD
ENDBRANCH  31  34
ENDBRANCH  28  31
ENDBRANCH   3  25
TORSDOF 7
ENDMDL
MODEL 9
REMARK VINA RESULT:      -8.2      3.617      5.628
REMARK  Name = 
REMARK  8 active torsions:
REMARK  status: ('A' for Active; 'I' for Inactive)
REMARK    1  A    between atoms: C_1  and  C_2
REMARK    2  A    between atoms: C_2  and  O_3
REMARK    3  A    between atoms: O_3  and  C_4
REMARK    4  A    between atoms: C_7  and  C_8
REMARK    5  A    between atoms: N_10  and  C_11
REMARK    6  A    between atoms: C_14  and  S_15
REMARK    7  A    between atoms: S_15  and  N_16
REMARK    8  A    between atoms: C_21  and  C_22
REMARK                            x       y       z     vdW  Elec       q    Type
REMARK                         _______ _______ _______ _____ _____    ______ ____
ROOT
ATOM      1  C   UNL     1       1.029   9.773  19.197  0.00  0.00    +0.000 C 
ATOM      2  N   UNL     1       1.436  10.941  18.811  0.00  0.00    +0.000 NA
ATOM      3  N   UNL     1       0.448  11.831  19.116  0.00  0.00    +0.000 N 
ATOM      4  C   UNL     1      -0.682  11.225  19.818  0.00  0.00    +0.000 C 
ATOM      5  C   UNL     1      -0.342   9.739  19.814  0.00  0.00    +0.000 C 
ENDROOT
BRANCH   4   6
ATOM      6  C   UNL     1      -2.024  11.493  19.157  0.00  0.00    +0.000 A 
ATOM      7  C   UNL     1      -2.222  11.086  17.831  0.00  0.00    +0.000 A 
ATOM      8  C   UNL     1      -3.482  11.184  17.242  0.00  0.00    +0.000 A 
ATOM      9  C   UNL     1      -4.571  11.702  17.957  0.00  0.00    +0.000 A 
ATOM     10  C   UNL     1      -5.871  11.665  17.430  0.00  0.00    +0.000 A 
ATOM     11  C   UNL     1      -6.948  12.176  18.153  0.00  0.00    +0.000 A 
ATOM     12  C   UNL     1      -6.728  12.796  19.380  0.00  0.00    +0.000 A 
ATOM     13  C   UNL     1      -5.442  12.831  19.923  0.00  0.00    +0.000 A 
ATOM     14  C   UNL     1      -4.361  12.237  19.245  0.00  0.00    +0.000 A 
ATOM     15  C   UNL     1      -3.087  12.123  19.831  0.00  0.00    +0.000 A 
ENDBRANCH   4   6
BRANCH   1  19
ATOM     16  C   UNL     1       3.329   6.199  18.710  0.00  0.00    +0.000 A 
ATOM     17  C   UNL     1       3.323   7.175  17.713  0.00  0.00    +0.000 A 
ATOM     18  C   UNL     1       2.585   8.350  17.878  0.00  0.00    +0.000 A 
ATOM     19  C   UNL     1       1.833   8.543  19.041  0.00  0.00    +0.000 A 
ATOM     20  C   UNL     1       1.830   7.558  20.035  0.00  0.00    +0.000 A 
ATOM     21  C   UNL     1       2.566   6.384  19.862  0.00  0.00    +0.000 A 
BRANCH  16  22
ATOM     22  O   UNL     1       4.097   5.100  18.451  0.00  0.00    +0.000 OA
BRANCH  22  24
ATOM     23  C   UNL     1       2.826   3.379  17.414  0.00  0.00    +0.000 C 
ATOM     24  C   UNL     1       3.865   4.460  17.196  0.00  0.00    +0.000 C 
ENDBRANCH  22  24
ENDBRANCH  16  22
ENDBRANCH   1  19
BRANCH   3  25
ATOM     25  C   UNL     1       0.680  13.194  18.953  0.00  0.00    +0.000 A 
ATOM     26  C   UNL     1       1.977  13.646  18.655  0.00  0.00    +0.000 A 
ATOM     27  C   UNL     1       2.255  14.992  18.422  0.00  0.00    +0.000 A 
ATOM     28  C   UNL     1       1.223  15.921  18.503  0.00  0.00    +0.000 A 
ATOM     29  C   UNL     1      -0.071  15.519  18.839  0.00  0.00    +0.000 A 
ATOM     30  C   UNL     1      -0.336  14.160  19.048  0.00  0.00    +0.000 A 
BRANCH  28  31
ATOM     31  S   UNL     1       1.568  17.622  18.186  0.00  0.00    +0.000 S 
ATOM     32  O   UNL     1       0.460  18.216  17.488  0.00  0.00    +0.000 OA
ATOM     33  O   UNL     1       2.160  18.218  19.365  0.00  0.00    +0.000 OA
BRANCH  31  34
ATOM     34  N   UNL     1       2.812  17.499  17.062  0.00  0.00    +0.000 NA
ATOM     35  H   UNL     1       2.685  18.195  16.328  0.00  0.00    +0.000 HD
ATOM     36  H   UNL     1       3.715  17.534  17.530  0.00  0.00    +0.000 HD
ENDBRANCH  31  34
ENDBRANCH  28  31
ENDBRANCH   3  25
TORSDOF 7
ENDMDL
