MODEL 1
REMARK VINA RESULT:      -7.1      0.000      0.000
REMARK  Name = 
REMARK  6 active torsions:
REMARK  status: ('A' for Active; 'I' for Inactive)
REMARK    1  A    between atoms: C_1  and  C_2
REMARK    2  A    between atoms: C_2  and  C_3
REMARK    3  A    between atoms: C_2  and  C_4
REMARK    4  A    between atoms: C_2  and  N_5
REMARK    5  A    between atoms: C_6  and  C_8
REMARK    6  A    between atoms: C_8  and  N_9
REMARK                            x       y       z     vdW  Elec       q    Type
REMARK                         _______ _______ _______ _____ _____    ______ ____
ROOT
ATOM      1  N   UNL     1       5.670   4.935  16.760  0.00  0.00    +0.000 N 
ATOM      2  C   UNL     1       5.886   6.171  17.299  0.00  0.00    +0.000 A 
ATOM      3 CL   UNL     1       7.377   6.976  17.132  0.00  0.00    +0.000 Cl
ATOM      4  N   UNL     1       4.851   6.640  17.945  0.00  0.00    +0.000 NA
ATOM      5  C   UNL     1       3.899   5.658  17.825  0.00  0.00    +0.000 A 
ATOM      6  C   UNL     1       2.592   5.623  18.334  0.00  0.00    +0.000 A 
ATOM      7  C   UNL     1       1.798   4.497  18.081  0.00  0.00    +0.000 A 
ATOM      8  C   UNL     1       2.293   3.432  17.328  0.00  0.00    +0.000 A 
ATOM      9  C   UNL     1       3.592   3.449  16.806  0.00  0.00    +0.000 A 
ATOM     10  C   UNL     1       4.377   4.577  17.081  0.00  0.00    +0.000 A 
ENDROOT
BRANCH   1  11
ATOM     11  C   UNL     1       6.626   4.119  16.041  0.00  0.00    +0.000 C 
BRANCH  11  13
ATOM     12  N   UNL     1       6.240   3.265  13.778  0.00  0.00    +0.000 N 
ATOM     13  C   UNL     1       6.561   4.367  14.551  0.00  0.00    +0.000 C 
ATOM     14  O   UNL     1       6.779   5.487  14.093  0.00  0.00    +0.000 OA
ATOM     15  H   UNL     1       6.146   2.364  14.232  0.00  0.00    +0.000 HD
BRANCH  12  17
ATOM     16  C   UNL     1       6.388   1.889  11.718  0.00  0.00    +0.000 C 
ATOM     17  C   UNL     1       6.152   3.289  12.305  0.00  0.00    +0.000 C 
ATOM     18  C   UNL     1       7.163   4.289  11.720  0.00  0.00    +0.000 C 
ATOM     19  C   UNL     1       4.737   3.741  11.897  0.00  0.00    +0.000 C 
ENDBRANCH  12  17
ENDBRANCH  11  13
ENDBRANCH   1  11
TORSDOF 3
ENDMDL
MODEL 2
REMARK VINA RESULT:      -7.0      0.199      1.051
REMARK  Name = 
REMARK  6 active torsions:
REMARK  status: ('A' for Active; 'I' for Inactive)
REMARK    1  A    between atoms: C_1  and  C_2
REMARK    2  A    between atoms: C_2  and  C_3
REMARK    3  A    between atoms: C_2  and  C_4
REMARK    4  A    between atoms: C_2  and  N_5
REMARK    5  A    between atoms: C_6  and  C_8
REMARK    6  A    between atoms: C_8  and  N_9
REMARK                            x       y       z     vdW  Elec       q    Type
REMARK                         _______ _______ _______ _____ _____    ______ ____
ROOT
ATOM      1  N   UNL     1       5.544   4.844  16.837  0.00  0.00    +0.000 N 
ATOM      2  C   UNL     1       5.831   6.054  17.402  0.00  0.00    +0.000 A 
ATOM      3 CL   UNL     1       7.348   6.804  17.198  0.00  0.00    +0.000 Cl
ATOM      4  N   UNL     1       4.843   6.544  18.101  0.00  0.00    +0.000 NA
ATOM      5  C   UNL     1       3.848   5.605  17.992  0.00  0.00    +0.000 A 
ATOM      6  C   UNL     1       2.561   5.607  18.551  0.00  0.00    +0.000 A 
ATOM      7  C   UNL     1       1.712   4.523  18.299  0.00  0.00    +0.000 A 
ATOM      8  C   UNL     1       2.133   3.461  17.496  0.00  0.00    +0.000 A 
ATOM      9  C   UNL     1       3.410   3.442  16.924  0.00  0.00    +0.000 A 
ATOM     10  C   UNL     1       4.251   4.529  17.199  0.00  0.00    +0.000 A 
ENDROOT
BRANCH   1  11
ATOM     11  C   UNL     1       6.437   4.012  16.057  0.00  0.00    +0.000 C 
BRANCH  11  13
ATOM     12  N   UNL     1       6.218   3.212  13.752  0.00  0.00    +0.000 N 
ATOM     13  C   UNL     1       6.333   4.315  14.580  0.00  0.00    +0.000 C 
ATOM     14  O   UNL     1       6.348   5.477  14.176  0.00  0.00    +0.000 OA
ATOM     15  H   UNL     1       6.286   2.288  14.164  0.00  0.00    +0.000 HD
BRANCH  12  17
ATOM     16  C   UNL     1       7.149   4.298  11.725  0.00  0.00    +0.000 C 
ATOM     17  C   UNL     1       6.132   3.290  12.281  0.00  0.00    +0.000 C 
ATOM     18  C   UNL     1       4.709   3.674  11.844  0.00  0.00    +0.000 C 
ATOM     19  C   UNL     1       6.461   1.907  11.687  0.00  0.00    +0.000 C 
ENDBRANCH  12  17
ENDBRANCH  11  13
ENDBRANCH   1  11
TORSDOF 3
ENDMDL
MODEL 3
REMARK VINA RESULT:      -7.0      0.063      1.022
REMARK  Name = 
REMARK  6 active torsions:
REMARK  status: ('A' for Active; 'I' for Inactive)
REMARK    1  A    between atoms: C_1  and  C_2
REMARK    2  A    between atoms: C_2  and  C_3
REMARK    3  A    between atoms: C_2  and  C_4
REMARK    4  A    between atoms: C_2  and  N_5
REMARK    5  A    between atoms: C_6  and  C_8
REMARK    6  A    between atoms: C_8  and  N_9
REMARK                            x       y       z     vdW  Elec       q    Type
REMARK                         _______ _______ _______ _____ _____    ______ ____
ROOT
ATOM      1  N   UNL     1       5.723   4.964  16.772  0.00  0.00    +0.000 N 
ATOM      2  C   UNL     1       5.914   6.202  17.315  0.00  0.00    +0.000 A 
ATOM      3 CL   UNL     1       7.390   7.037  17.155  0.00  0.00    +0.000 Cl
ATOM      4  N   UNL     1       4.869   6.649  17.960  0.00  0.00    +0.000 NA
ATOM      5  C   UNL     1       3.937   5.649  17.834  0.00  0.00    +0.000 A 
ATOM      6  C   UNL     1       2.629   5.587  18.340  0.00  0.00    +0.000 A 
ATOM      7  C   UNL     1       1.857   4.448  18.082  0.00  0.00    +0.000 A 
ATOM      8  C   UNL     1       2.374   3.394  17.326  0.00  0.00    +0.000 A 
ATOM      9  C   UNL     1       3.674   3.439  16.807  0.00  0.00    +0.000 A 
ATOM     10  C   UNL     1       4.437   4.581  17.088  0.00  0.00    +0.000 A 
ENDROOT
BRANCH   1  11
ATOM     11  C   UNL     1       6.696   4.169  16.052  0.00  0.00    +0.000 C 
BRANCH  11  13
ATOM     12  N   UNL     1       6.246   3.304  13.805  0.00  0.00    +0.000 N 
ATOM     13  C   UNL     1       6.614   4.403  14.561  0.00  0.00    +0.000 C 
ATOM     14  O   UNL     1       6.860   5.511  14.086  0.00  0.00    +0.000 OA
ATOM     15  H   UNL     1       6.131   2.411  14.271  0.00  0.00    +0.000 HD
BRANCH  12  17
ATOM     16  C   UNL     1       4.739   3.786  11.894  0.00  0.00    +0.000 C 
ATOM     17  C   UNL     1       6.134   3.316  12.333  0.00  0.00    +0.000 C 
ATOM     18  C   UNL     1       6.432   1.922  11.758  0.00  0.00    +0.000 C 
ATOM     19  C   UNL     1       7.169   4.303  11.761  0.00  0.00    +0.000 C 
ENDBRANCH  12  17
ENDBRANCH  11  13
ENDBRANCH   1  11
TORSDOF 3
ENDMDL
MODEL 4
REMARK VINA RESULT:      -6.9      2.689      5.893
REMARK  Name = 
REMARK  6 active torsions:
REMARK  status: ('A' for Active; 'I' for Inactive)
REMARK    1  A    between atoms: C_1  and  C_2
REMARK    2  A    between atoms: C_2  and  C_3
REMARK    3  A    between atoms: C_2  and  C_4
REMARK    4  A    between atoms: C_2  and  N_5
REMARK    5  A    between atoms: C_6  and  C_8
REMARK    6  A    between atoms: C_8  and  N_9
REMARK                            x       y       z     vdW  Elec       q    Type
REMARK                         _______ _______ _______ _____ _____    ______ ____
ROOT
ATOM      1  N   UNL     1       5.983   5.143  18.096  0.00  0.00    +0.000 N 
ATOM      2  C   UNL     1       7.336   5.216  18.268  0.00  0.00    +0.000 A 
ATOM      3 CL   UNL     1       8.030   5.597  19.776  0.00  0.00    +0.000 Cl
ATOM      4  N   UNL     1       8.009   4.979  17.173  0.00  0.00    +0.000 NA
ATOM      5  C   UNL     1       7.046   4.735  16.226  0.00  0.00    +0.000 A 
ATOM      6  C   UNL     1       7.198   4.431  14.864  0.00  0.00    +0.000 A 
ATOM      7  C   UNL     1       6.053   4.224  14.086  0.00  0.00    +0.000 A 
ATOM      8  C   UNL     1       4.781   4.307  14.654  0.00  0.00    +0.000 A 
ATOM      9  C   UNL     1       4.607   4.603  16.012  0.00  0.00    +0.000 A 
ATOM     10  C   UNL     1       5.764   4.822  16.772  0.00  0.00    +0.000 A 
ENDROOT
BRANCH   1  11
ATOM     11  C   UNL     1       4.962   5.409  19.088  0.00  0.00    +0.000 C 
BRANCH  11  13
ATOM     12  N   UNL     1       2.899   4.236  19.693  0.00  0.00    +0.000 N 
ATOM     13  C   UNL     1       4.270   4.139  19.529  0.00  0.00    +0.000 C 
ATOM     14  O   UNL     1       4.913   3.107  19.716  0.00  0.00    +0.000 OA
ATOM     15  H   UNL     1       2.460   5.143  19.587  0.00  0.00    +0.000 HD
BRANCH  12  17
ATOM     16  C   UNL     1       2.449   2.650  21.548  0.00  0.00    +0.000 C 
ATOM     17  C   UNL     1       2.043   3.121  20.143  0.00  0.00    +0.000 C 
ATOM     18  C   UNL     1       2.112   1.951  19.149  0.00  0.00    +0.000 C 
ATOM     19  C   UNL     1       0.583   3.609  20.211  0.00  0.00    +0.000 C 
ENDBRANCH  12  17
ENDBRANCH  11  13
ENDBRANCH   1  11
TORSDOF 3
ENDMDL
MODEL 5
REMARK VINA RESULT:      -6.9      3.959      5.413
REMARK  Name = 
REMARK  6 active torsions:
REMARK  status: ('A' for Active; 'I' for Inactive)
REMARK    1  A    between atoms: C_1  and  C_2
REMARK    2  A    between atoms: C_2  and  C_3
REMARK    3  A    between atoms: C_2  and  C_4
REMARK    4  A    between atoms: C_2  and  N_5
REMARK    5  A    between atoms: C_6  and  C_8
REMARK    6  A    between atoms: C_8  and  N_9
REMARK                            x       y       z     vdW  Elec       q    Type
REMARK                         _______ _______ _______ _____ _____    ______ ____
ROOT
ATOM      1  N   UNL     1       2.647   5.732  19.246  0.00  0.00    +0.000 N 
ATOM      2  C   UNL     1       2.155   5.516  20.501  0.00  0.00    +0.000 A 
ATOM      3 CL   UNL     1       2.296   4.004  21.273  0.00  0.00    +0.000 Cl
ATOM      4  N   UNL     1       1.574   6.567  21.016  0.00  0.00    +0.000 NA
ATOM      5  C   UNL     1       1.689   7.531  20.046  0.00  0.00    +0.000 A 
ATOM      6  C   UNL     1       1.233   8.858  20.055  0.00  0.00    +0.000 A 
ATOM      7  C   UNL     1       1.468   9.662  18.933  0.00  0.00    +0.000 A 
ATOM      8  C   UNL     1       2.152   9.157  17.826  0.00  0.00    +0.000 A 
ATOM      9  C   UNL     1       2.621   7.837  17.799  0.00  0.00    +0.000 A 
ATOM     10  C   UNL     1       2.364   7.044  18.924  0.00  0.00    +0.000 A 
ENDROOT
BRANCH   1  11
ATOM     11  C   UNL     1       3.289   4.764  18.382  0.00  0.00    +0.000 C 
BRANCH  11  13
ATOM     12  N   UNL     1       5.530   5.680  18.007  0.00  0.00    +0.000 N 
ATOM     13  C   UNL     1       4.779   4.697  18.629  0.00  0.00    +0.000 C 
ATOM     14  O   UNL     1       5.257   3.819  19.345  0.00  0.00    +0.000 OA
ATOM     15  H   UNL     1       5.062   6.322  17.378  0.00  0.00    +0.000 HD
BRANCH  12  17
ATOM     16  C   UNL     1       7.463   5.696  19.562  0.00  0.00    +0.000 C 
ATOM     17  C   UNL     1       6.999   5.776  18.100  0.00  0.00    +0.000 C 
ATOM     18  C   UNL     1       7.497   7.080  17.455  0.00  0.00    +0.000 C 
ATOM     19  C   UNL     1       7.626   4.593  17.338  0.00  0.00    +0.000 C 
ENDBRANCH  12  17
ENDBRANCH  11  13
ENDBRANCH   1  11
TORSDOF 3
ENDMDL
MODEL 6
REMARK VINA RESULT:      -6.8      2.377      5.540
REMARK  Name = 
REMARK  6 active torsions:
REMARK  status: ('A' for Active; 'I' for Inactive)
REMARK    1  A    between atoms: C_1  and  C_2
REMARK    2  A    between atoms: C_2  and  C_3
REMARK    3  A    between atoms: C_2  and  C_4
REMARK    4  A    between atoms: C_2  and  N_5
REMARK    5  A    between atoms: C_6  and  C_8
REMARK    6  A    between atoms: C_8  and  N_9
REMARK                            x       y       z     vdW  Elec       q    Type
REMARK                         _______ _______ _______ _____ _____    ______ ____
ROOT
ATOM      1  N   UNL     1       6.458   5.397  17.884  0.00  0.00    +0.000 N 
ATOM      2  C   UNL     1       7.438   6.296  17.574  0.00  0.00    +0.000 A 
ATOM      3 CL   UNL     1       8.176   7.267  18.764  0.00  0.00    +0.000 Cl
ATOM      4  N   UNL     1       7.723   6.330  16.299  0.00  0.00    +0.000 NA
ATOM      5  C   UNL     1       6.885   5.400  15.737  0.00  0.00    +0.000 A 
ATOM      6  C   UNL     1       6.752   5.024  14.391  0.00  0.00    +0.000 A 
ATOM      7  C   UNL     1       5.814   4.041  14.053  0.00  0.00    +0.000 A 
ATOM      8  C   UNL     1       5.028   3.438  15.036  0.00  0.00    +0.000 A 
ATOM      9  C   UNL     1       5.148   3.795  16.385  0.00  0.00    +0.000 A 
ATOM     10  C   UNL     1       6.083   4.790  16.703  0.00  0.00    +0.000 A 
ENDROOT
BRANCH   1  11
ATOM     11  C   UNL     1       5.873   5.159  19.187  0.00  0.00    +0.000 C 
BRANCH  11  13
ATOM     12  N   UNL     1       3.673   4.153  19.567  0.00  0.00    +0.000 N 
ATOM     13  C   UNL     1       4.367   5.276  19.152  0.00  0.00    +0.000 C 
ATOM     14  O   UNL     1       3.828   6.317  18.780  0.00  0.00    +0.000 OA
ATOM     15  H   UNL     1       4.196   3.314  19.789  0.00  0.00    +0.000 HD
BRANCH  12  17
ATOM     16  C   UNL     1       1.626   4.202  18.166  0.00  0.00    +0.000 C 
ATOM     17  C   UNL     1       2.201   4.053  19.583  0.00  0.00    +0.000 C 
ATOM     18  C   UNL     1       1.598   5.115  20.517  0.00  0.00    +0.000 C 
ATOM     19  C   UNL     1       1.800   2.663  20.113  0.00  0.00    +0.000 C 
ENDBRANCH  12  17
ENDBRANCH  11  13
ENDBRANCH   1  11
TORSDOF 3
ENDMDL
MODEL 7
REMARK VINA RESULT:      -6.8      2.731      5.921
REMARK  Name = 
REMARK  6 active torsions:
REMARK  status: ('A' for Active; 'I' for Inactive)
REMARK    1  A    between atoms: C_1  and  C_2
REMARK    2  A    between atoms: C_2  and  C_3
REMARK    3  A    between atoms: C_2  and  C_4
REMARK    4  A    between atoms: C_2  and  N_5
REMARK    5  A    between atoms: C_6  and  C_8
REMARK    6  A    between atoms: C_8  and  N_9
REMARK                            x       y       z     vdW  Elec       q    Type
REMARK                         _______ _______ _______ _____ _____    ______ ____
ROOT
ATOM      1  N   UNL     1       6.070   5.013  18.157  0.00  0.00    +0.000 N 
ATOM      2  C   UNL     1       7.430   5.026  18.283  0.00  0.00    +0.000 A 
ATOM      3 CL   UNL     1       8.192   5.342  19.773  0.00  0.00    +0.000 Cl
ATOM      4  N   UNL     1       8.054   4.788  17.159  0.00  0.00    +0.000 NA
ATOM      5  C   UNL     1       7.050   4.606  16.242  0.00  0.00    +0.000 A 
ATOM      6  C   UNL     1       7.141   4.330  14.869  0.00  0.00    +0.000 A 
ATOM      7  C   UNL     1       5.962   4.188  14.128  0.00  0.00    +0.000 A 
ATOM      8  C   UNL     1       4.715   4.311  14.743  0.00  0.00    +0.000 A 
ATOM      9  C   UNL     1       4.601   4.581  16.113  0.00  0.00    +0.000 A 
ATOM     10  C   UNL     1       5.792   4.733  16.836  0.00  0.00    +0.000 A 
ENDROOT
BRANCH   1  11
ATOM     11  C   UNL     1       5.097   5.297  19.191  0.00  0.00    +0.000 C 
BRANCH  11  13
ATOM     12  N   UNL     1       2.964   4.221  19.734  0.00  0.00    +0.000 N 
ATOM     13  C   UNL     1       4.331   4.057  19.592  0.00  0.00    +0.000 C 
ATOM     14  O   UNL     1       4.915   2.988  19.765  0.00  0.00    +0.000 OA
ATOM     15  H   UNL     1       2.576   5.153  19.641  0.00  0.00    +0.000 HD
BRANCH  12  17
ATOM     16  C   UNL     1       2.144   1.944  19.190  0.00  0.00    +0.000 C 
ATOM     17  C   UNL     1       2.043   3.144  20.143  0.00  0.00    +0.000 C 
ATOM     18  C   UNL     1       0.596   3.662  20.195  0.00  0.00    +0.000 C 
ATOM     19  C   UNL     1       2.433   2.663  21.554  0.00  0.00    +0.000 C 
ENDBRANCH  12  17
ENDBRANCH  11  13
ENDBRANCH   1  11
TORSDOF 3
ENDMDL
MODEL 8
REMARK VINA RESULT:      -6.8      4.001      5.390
REMARK  Name = 
REMARK  6 active torsions:
REMARK  status: ('A' for Active; 'I' for Inactive)
REMARK    1  A    between atoms: C_1  and  C_2
REMARK    2  A    between atoms: C_2  and  C_3
REMARK    3  A    between atoms: C_2  and  C_4
REMARK    4  A    between atoms: C_2  and  N_5
REMARK    5  A    between atoms: C_6  and  C_8
REMARK    6  A    between atoms: C_8  and  N_9
REMARK                            x       y       z     vdW  Elec       q    Type
REMARK                         _______ _______ _______ _____ _____    ______ ____
ROOT
ATOM      1  N   UNL     1       2.712   5.460  19.311  0.00  0.00    +0.000 N 
ATOM      2  C   UNL     1       2.188   5.233  20.551  0.00  0.00    +0.000 A 
ATOM      3 CL   UNL     1       2.310   3.714  21.314  0.00  0.00    +0.000 Cl
ATOM      4  N   UNL     1       1.593   6.279  21.060  0.00  0.00    +0.000 NA
ATOM      5  C   UNL     1       1.733   7.251  20.101  0.00  0.00    +0.000 A 
ATOM      6  C   UNL     1       1.276   8.578  20.110  0.00  0.00    +0.000 A 
ATOM      7  C   UNL     1       1.539   9.391  19.001  0.00  0.00    +0.000 A 
ATOM      8  C   UNL     1       2.252   8.896  17.908  0.00  0.00    +0.000 A 
ATOM      9  C   UNL     1       2.722   7.577  17.882  0.00  0.00    +0.000 A 
ATOM     10  C   UNL     1       2.437   6.774  18.994  0.00  0.00    +0.000 A 
ENDROOT
BRANCH   1  11
ATOM     11  C   UNL     1       3.378   4.499  18.456  0.00  0.00    +0.000 C 
BRANCH  11  13
ATOM     12  N   UNL     1       5.558   5.530  18.026  0.00  0.00    +0.000 N 
ATOM     13  C   UNL     1       4.875   4.510  18.665  0.00  0.00    +0.000 C 
ATOM     14  O   UNL     1       5.415   3.657  19.367  0.00  0.00    +0.000 OA
ATOM     15  H   UNL     1       5.042   6.146  17.409  0.00  0.00    +0.000 HD
BRANCH  12  17
ATOM     16  C   UNL     1       7.442   7.036  17.445  0.00  0.00    +0.000 C 
ATOM     17  C   UNL     1       7.022   5.701  18.080  0.00  0.00    +0.000 C 
ATOM     18  C   UNL     1       7.729   4.532  17.377  0.00  0.00    +0.000 C 
ATOM     19  C   UNL     1       7.469   5.717  19.555  0.00  0.00    +0.000 C 
ENDBRANCH  12  17
ENDBRANCH  11  13
ENDBRANCH   1  11
TORSDOF 3
ENDMDL
MODEL 9
REMARK VINA RESULT:      -6.8      2.364      5.534
REMARK  Name = 
REMARK  6 active torsions:
REMARK  status: ('A' for Active; 'I' for Inactive)
REMARK    1  A    between atoms: C_1  and  C_2
REMARK    2  A    between atoms: C_2  and  C_3
REMARK    3  A    between atoms: C_2  and  C_4
REMARK    4  A    between atoms: C_2  and  N_5
REMARK    5  A    between atoms: C_6  and  C_8
REMARK    6  A    between atoms: C_8  and  N_9
REMARK                            x       y       z     vdW  Elec       q    Type
REMARK                         _______ _______ _______ _____ _____    ______ ____
ROOT
ATOM      1  N   UNL     1       6.488   5.434  17.854  0.00  0.00    +0.000 N 
ATOM      2  C   UNL     1       7.432   6.362  17.521  0.00  0.00    +0.000 A 
ATOM      3 CL   UNL     1       8.135   7.388  18.686  0.00  0.00    +0.000 Cl
ATOM      4  N   UNL     1       7.714   6.377  16.245  0.00  0.00    +0.000 NA
ATOM      5  C   UNL     1       6.911   5.404  15.706  0.00  0.00    +0.000 A 
ATOM      6  C   UNL     1       6.791   4.991  14.370  0.00  0.00    +0.000 A 
ATOM      7  C   UNL     1       5.889   3.967  14.057  0.00  0.00    +0.000 A 
ATOM      8  C   UNL     1       5.128   3.358  15.056  0.00  0.00    +0.000 A 
ATOM      9  C   UNL     1       5.237   3.750  16.396  0.00  0.00    +0.000 A 
ATOM     10  C   UNL     1       6.134   4.787  16.689  0.00  0.00    +0.000 A 
ENDROOT
BRANCH   1  11
ATOM     11  C   UNL     1       5.914   5.205  19.164  0.00  0.00    +0.000 C 
BRANCH  11  13
ATOM     12  N   UNL     1       3.723   4.202  19.603  0.00  0.00    +0.000 N 
ATOM     13  C   UNL     1       4.407   5.313  19.139  0.00  0.00    +0.000 C 
ATOM     14  O   UNL     1       3.858   6.335  18.732  0.00  0.00    +0.000 OA
ATOM     15  H   UNL     1       4.254   3.376  19.853  0.00  0.00    +0.000 HD
BRANCH  12  17
ATOM     16  C   UNL     1       1.814   2.745  20.226  0.00  0.00    +0.000 C 
ATOM     17  C   UNL     1       2.252   4.095  19.638  0.00  0.00    +0.000 C 
ATOM     18  C   UNL     1       1.665   4.278  18.229  0.00  0.00    +0.000 C 
ATOM     19  C   UNL     1       1.691   5.210  20.542  0.00  0.00    +0.000 C 
ENDBRANCH  12  17
ENDBRANCH  11  13
ENDBRANCH   1  11
TORSDOF 3
ENDMDL
