MODEL 1
REMARK VINA RESULT:      -7.3      0.000      0.000
REMARK  Name = 
REMARK  8 active torsions:
REMARK  status: ('A' for Active; 'I' for Inactive)
REMARK    1  A    between atoms: C_1  and  C_2
REMARK    2  A    between atoms: C_2  and  O_3
REMARK    3  A    between atoms: O_3  and  C_4
REMARK    4  A    between atoms: C_4  and  C_6
REMARK    5  A    between atoms: C_10  and  O_11
REMARK    6  A    between atoms: C_17  and  C_18
REMARK    7  A    between atoms: C_21  and  O_22
REMARK    8  A    between atoms: O_22  and  C_23
REMARK                            x       y       z     vdW  Elec       q    Type
REMARK                         _______ _______ _______ _____ _____    ______ ____
ROOT
ATOM      1  C   UNL     1       2.124   6.356  20.096  0.00  0.00    +0.000 A 
ATOM      2  O   UNL     1       1.335   7.180  20.898  0.00  0.00    +0.000 OA
ATOM      3  C   UNL     1       1.010   8.432  20.458  0.00  0.00    +0.000 A 
ATOM      4  C   UNL     1       0.193   9.207  21.283  0.00  0.00    +0.000 A 
ATOM      5  C   UNL     1      -0.150  10.496  20.883  0.00  0.00    +0.000 A 
ATOM      6  C   UNL     1       0.300  11.013  19.672  0.00  0.00    +0.000 A 
ATOM      7  C   UNL     1       1.110  10.233  18.847  0.00  0.00    +0.000 A 
ATOM      8  C   UNL     1       1.464   8.940  19.249  0.00  0.00    +0.000 A 
ATOM      9  C   UNL     1       2.326   8.096  18.411  0.00  0.00    +0.000 A 
ATOM     10  O   UNL     1       2.766   8.532  17.348  0.00  0.00    +0.000 OA
ATOM     11  C   UNL     1       2.633   6.724  18.899  0.00  0.00    +0.000 A 
ENDROOT
BRANCH  11  12
ATOM     12  C   UNL     1       3.475   5.860  18.054  0.00  0.00    +0.000 A 
ATOM     13  C   UNL     1       4.817   6.182  17.819  0.00  0.00    +0.000 A 
ATOM     14  C   UNL     1       5.603   5.363  17.005  0.00  0.00    +0.000 A 
ATOM     15  C   UNL     1       5.068   4.203  16.442  0.00  0.00    +0.000 A 
ATOM     16  C   UNL     1       3.725   3.889  16.657  0.00  0.00    +0.000 A 
ATOM     17  C   UNL     1       2.932   4.714  17.459  0.00  0.00    +0.000 A 
BRANCH  15  18
ATOM     18  O   UNL     1       5.928   3.475  15.666  0.00  0.00    +0.000 OA
ATOM     19  C   UNL     1       6.206   4.032  14.386  0.00  0.00    +0.000 C 
ENDBRANCH  15  18
ENDBRANCH  11  12
BRANCH   1  20
ATOM     20  C   UNL     1       2.331   4.970  20.628  0.00  0.00    +0.000 C 
ATOM     21  O   UNL     1       3.403   4.428  20.840  0.00  0.00    +0.000 OA
BRANCH  20  22
ATOM     22  O   UNL     1       1.121   4.351  20.705  0.00  0.00    +0.000 OA
BRANCH  22  24
ATOM     23  C   UNL     1       0.766   2.549  19.191  0.00  0.00    +0.000 C 
ATOM     24  C   UNL     1       1.186   2.923  20.602  0.00  0.00    +0.000 C 
ENDBRANCH  22  24
ENDBRANCH  20  22
ENDBRANCH   1  20
BRANCH   5  25
ATOM     25  O   UNL     1      -0.932  11.299  21.660  0.00  0.00    +0.000 OA
ATOM     26  H   UNL     1      -1.416  11.922  21.094  0.00  0.00    +0.000 HD
ENDBRANCH   5  25
TORSDOF 6
ENDMDL
MODEL 2
REMARK VINA RESULT:      -7.3      1.409      1.993
REMARK  Name = 
REMARK  8 active torsions:
REMARK  status: ('A' for Active; 'I' for Inactive)
REMARK    1  A    between atoms: C_1  and  C_2
REMARK    2  A    between atoms: C_2  and  O_3
REMARK    3  A    between atoms: O_3  and  C_4
REMARK    4  A    between atoms: C_4  and  C_6
REMARK    5  A    between atoms: C_10  and  O_11
REMARK    6  A    between atoms: C_17  and  C_18
REMARK    7  A    between atoms: C_21  and  O_22
REMARK    8  A    between atoms: O_22  and  C_23
REMARK                            x       y       z     vdW  Elec       q    Type
REMARK                         _______ _______ _______ _____ _____    ______ ____
ROOT
ATOM      1  C   UNL     1       3.510   5.638  19.336  0.00  0.00    +0.000 A 
ATOM      2  O   UNL     1       2.666   6.128  20.332  0.00  0.00    +0.000 OA
ATOM      3  C   UNL     1       1.997   7.301  20.126  0.00  0.00    +0.000 A 
ATOM      4  C   UNL     1       1.140   7.735  21.140  0.00  0.00    +0.000 A 
ATOM      5  C   UNL     1       0.451   8.934  20.981  0.00  0.00    +0.000 A 
ATOM      6  C   UNL     1       0.597   9.696  19.826  0.00  0.00    +0.000 A 
ATOM      7  C   UNL     1       1.448   9.256  18.812  0.00  0.00    +0.000 A 
ATOM      8  C   UNL     1       2.149   8.056  18.971  0.00  0.00    +0.000 A 
ATOM      9  C   UNL     1       3.064   7.569  17.929  0.00  0.00    +0.000 A 
ATOM     10  O   UNL     1       3.239   8.231  16.908  0.00  0.00    +0.000 OA
ATOM     11  C   UNL     1       3.750   6.269  18.165  0.00  0.00    +0.000 A 
ENDROOT
BRANCH  11  12
ATOM     12  C   UNL     1       4.649   5.759  17.115  0.00  0.00    +0.000 A 
ATOM     13  C   UNL     1       4.234   4.731  16.261  0.00  0.00    +0.000 A 
ATOM     14  C   UNL     1       5.100   4.246  15.277  0.00  0.00    +0.000 A 
ATOM     15  C   UNL     1       6.372   4.799  15.119  0.00  0.00    +0.000 A 
ATOM     16  C   UNL     1       6.796   5.810  15.982  0.00  0.00    +0.000 A 
ATOM     17  C   UNL     1       5.938   6.288  16.977  0.00  0.00    +0.000 A 
BRANCH  15  18
ATOM     18  O   UNL     1       7.132   4.249  14.123  0.00  0.00    +0.000 OA
ATOM     19  C   UNL     1       6.397   3.705  13.031  0.00  0.00    +0.000 C 
ENDBRANCH  15  18
ENDBRANCH  11  12
BRANCH   1  20
ATOM     20  C   UNL     1       4.109   4.295  19.623  0.00  0.00    +0.000 C 
ATOM     21  O   UNL     1       5.298   4.029  19.685  0.00  0.00    +0.000 OA
BRANCH  20  22
ATOM     22  O   UNL     1       3.107   3.373  19.664  0.00  0.00    +0.000 OA
BRANCH  22  24
ATOM     23  C   UNL     1       1.709   2.965  21.546  0.00  0.00    +0.000 C 
ATOM     24  C   UNL     1       3.039   2.636  20.891  0.00  0.00    +0.000 C 
ENDBRANCH  22  24
ENDBRANCH  20  22
ENDBRANCH   1  20
BRANCH   5  25
ATOM     25  O   UNL     1      -0.384   9.410  21.948  0.00  0.00    +0.000 OA
ATOM     26  H   UNL     1      -0.905   8.676  22.314  0.00  0.00    +0.000 HD
ENDBRANCH   5  25
TORSDOF 6
ENDMDL
MODEL 3
REMARK VINA RESULT:      -7.2      3.558      6.427
REMARK  Name = 
REMARK  8 active torsions:
REMARK  status: ('A' for Active; 'I' for Inactive)
REMARK    1  A    between atoms: C_1  and  C_2
REMARK    2  A    between atoms: C_2  and  O_3
REMARK    3  A    between atoms: O_3  and  C_4
REMARK    4  A    between atoms: C_4  and  C_6
REMARK    5  A    between atoms: C_10  and  O_11
REMARK    6  A    between atoms: C_17  and  C_18
REMARK    7  A    between atoms: C_21  and  O_22
REMARK    8  A    between atoms: O_22  and  C_23
REMARK                            x       y       z     vdW  Elec       q    Type
REMARK                         _______ _______ _______ _____ _____    ______ ____
ROOT
ATOM      1  C   UNL     1       5.377   4.193  17.126  0.00  0.00    +0.000 A 
ATOM      2  O   UNL     1       4.434   3.167  17.092  0.00  0.00    +0.000 OA
ATOM      3  C   UNL     1       3.326   3.247  17.886  0.00  0.00    +0.000 A 
ATOM      4  C   UNL     1       2.396   2.209  17.793  0.00  0.00    +0.000 A 
ATOM      5  C   UNL     1       1.260   2.241  18.596  0.00  0.00    +0.000 A 
ATOM      6  C   UNL     1       1.035   3.293  19.478  0.00  0.00    +0.000 A 
ATOM      7  C   UNL     1       1.963   4.332  19.563  0.00  0.00    +0.000 A 
ATOM      8  C   UNL     1       3.111   4.301  18.764  0.00  0.00    +0.000 A 
ATOM      9  C   UNL     1       4.114   5.371  18.837  0.00  0.00    +0.000 A 
ATOM     10  O   UNL     1       3.963   6.301  19.625  0.00  0.00    +0.000 OA
ATOM     11  C   UNL     1       5.293   5.275  17.933  0.00  0.00    +0.000 A 
ENDROOT
BRANCH  11  12
ATOM     12  C   UNL     1       6.292   6.356  17.979  0.00  0.00    +0.000 A 
ATOM     13  C   UNL     1       6.148   7.494  17.177  0.00  0.00    +0.000 A 
ATOM     14  C   UNL     1       7.109   8.507  17.219  0.00  0.00    +0.000 A 
ATOM     15  C   UNL     1       8.203   8.409  18.080  0.00  0.00    +0.000 A 
ATOM     16  C   UNL     1       8.361   7.267  18.866  0.00  0.00    +0.000 A 
ATOM     17  C   UNL     1       7.409   6.244  18.816  0.00  0.00    +0.000 A 
BRANCH  15  18
ATOM     18  O   UNL     1       9.079   9.461  18.041  0.00  0.00    +0.000 OA
ATOM     19  C   UNL     1       9.310  10.101  19.291  0.00  0.00    +0.000 C 
ENDBRANCH  15  18
ENDBRANCH  11  12
BRANCH   1  20
ATOM     20  C   UNL     1       6.497   4.054  16.140  0.00  0.00    +0.000 C 
ATOM     21  O   UNL     1       7.660   4.377  16.313  0.00  0.00    +0.000 OA
BRANCH  20  22
ATOM     22  O   UNL     1       5.979   3.635  14.952  0.00  0.00    +0.000 OA
BRANCH  22  24
ATOM     23  C   UNL     1       6.068   3.501  12.578  0.00  0.00    +0.000 C 
ATOM     24  C   UNL     1       6.592   4.231  13.802  0.00  0.00    +0.000 C 
ENDBRANCH  22  24
ENDBRANCH  20  22
ENDBRANCH   1  20
BRANCH   5  25
ATOM     25  O   UNL     1       0.330   1.244  18.555  0.00  0.00    +0.000 OA
ATOM     26  H   UNL     1       0.247   0.844  19.437  0.00  0.00    +0.000 HD
ENDBRANCH   5  25
TORSDOF 6
ENDMDL
MODEL 4
REMARK VINA RESULT:      -7.1      1.349      1.729
REMARK  Name = 
REMARK  8 active torsions:
REMARK  status: ('A' for Active; 'I' for Inactive)
REMARK    1  A    between atoms: C_1  and  C_2
REMARK    2  A    between atoms: C_2  and  O_3
REMARK    3  A    between atoms: O_3  and  C_4
REMARK    4  A    between atoms: C_4  and  C_6
REMARK    5  A    between atoms: C_10  and  O_11
REMARK    6  A    between atoms: C_17  and  C_18
REMARK    7  A    between atoms: C_21  and  O_22
REMARK    8  A    between atoms: O_22  and  C_23
REMARK                            x       y       z     vdW  Elec       q    Type
REMARK                         _______ _______ _______ _____ _____    ______ ____
ROOT
ATOM      1  C   UNL     1       3.485   5.465  19.353  0.00  0.00    +0.000 A 
ATOM      2  O   UNL     1       2.643   5.958  20.349  0.00  0.00    +0.000 OA
ATOM      3  C   UNL     1       2.000   7.148  20.155  0.00  0.00    +0.000 A 
ATOM      4  C   UNL     1       1.145   7.585  21.168  0.00  0.00    +0.000 A 
ATOM      5  C   UNL     1       0.482   8.800  21.021  0.00  0.00    +0.000 A 
ATOM      6  C   UNL     1       0.653   9.575  19.878  0.00  0.00    +0.000 A 
ATOM      7  C   UNL     1       1.503   9.132  18.865  0.00  0.00    +0.000 A 
ATOM      8  C   UNL     1       2.177   7.915  19.011  0.00  0.00    +0.000 A 
ATOM      9  C   UNL     1       3.090   7.424  17.970  0.00  0.00    +0.000 A 
ATOM     10  O   UNL     1       3.287   8.097  16.960  0.00  0.00    +0.000 OA
ATOM     11  C   UNL     1       3.747   6.107  18.193  0.00  0.00    +0.000 A 
ENDROOT
BRANCH  11  12
ATOM     12  C   UNL     1       4.643   5.594  17.143  0.00  0.00    +0.000 A 
ATOM     13  C   UNL     1       5.930   6.122  16.983  0.00  0.00    +0.000 A 
ATOM     14  C   UNL     1       6.767   5.637  15.976  0.00  0.00    +0.000 A 
ATOM     15  C   UNL     1       6.341   4.604  15.139  0.00  0.00    +0.000 A 
ATOM     16  C   UNL     1       5.052   4.089  15.281  0.00  0.00    +0.000 A 
ATOM     17  C   UNL     1       4.206   4.582  16.279  0.00  0.00    +0.000 A 
BRANCH  15  18
ATOM     18  O   UNL     1       7.244   4.205  14.190  0.00  0.00    +0.000 OA
ATOM     19  C   UNL     1       6.689   3.921  12.910  0.00  0.00    +0.000 C 
ENDBRANCH  15  18
ENDBRANCH  11  12
BRANCH   1  20
ATOM     20  C   UNL     1       4.054   4.105  19.625  0.00  0.00    +0.000 C 
ATOM     21  O   UNL     1       5.222   3.773  19.517  0.00  0.00    +0.000 OA
BRANCH  20  22
ATOM     22  O   UNL     1       3.026   3.248  19.879  0.00  0.00    +0.000 OA
BRANCH  22  24
ATOM     23  C   UNL     1       0.927   2.593  18.969  0.00  0.00    +0.000 C 
ATOM     24  C   UNL     1       2.419   2.696  18.704  0.00  0.00    +0.000 C 
ENDBRANCH  22  24
ENDBRANCH  20  22
ENDBRANCH   1  20
BRANCH   5  25
ATOM     25  O   UNL     1      -0.351   9.279  21.989  0.00  0.00    +0.000 OA
ATOM     26  H   UNL     1      -0.433   8.621  22.698  0.00  0.00    +0.000 HD
ENDBRANCH   5  25
TORSDOF 6
ENDMDL
MODEL 5
REMARK VINA RESULT:      -7.0      3.596      6.430
REMARK  Name = 
REMARK  8 active torsions:
REMARK  status: ('A' for Active; 'I' for Inactive)
REMARK    1  A    between atoms: C_1  and  C_2
REMARK    2  A    between atoms: C_2  and  O_3
REMARK    3  A    between atoms: O_3  and  C_4
REMARK    4  A    between atoms: C_4  and  C_6
REMARK    5  A    between atoms: C_10  and  O_11
REMARK    6  A    between atoms: C_17  and  C_18
REMARK    7  A    between atoms: C_21  and  O_22
REMARK    8  A    between atoms: O_22  and  C_23
REMARK                            x       y       z     vdW  Elec       q    Type
REMARK                         _______ _______ _______ _____ _____    ______ ____
ROOT
ATOM      1  C   UNL     1       5.386   4.211  17.092  0.00  0.00    +0.000 A 
ATOM      2  O   UNL     1       4.427   3.201  17.025  0.00  0.00    +0.000 OA
ATOM      3  C   UNL     1       3.331   3.263  17.837  0.00  0.00    +0.000 A 
ATOM      4  C   UNL     1       2.384   2.244  17.711  0.00  0.00    +0.000 A 
ATOM      5  C   UNL     1       1.259   2.257  18.531  0.00  0.00    +0.000 A 
ATOM      6  C   UNL     1       1.061   3.272  19.461  0.00  0.00    +0.000 A 
ATOM      7  C   UNL     1       2.005   4.292  19.578  0.00  0.00    +0.000 A 
ATOM      8  C   UNL     1       3.142   4.280  18.763  0.00  0.00    +0.000 A 
ATOM      9  C   UNL     1       4.163   5.331  18.869  0.00  0.00    +0.000 A 
ATOM     10  O   UNL     1       4.035   6.229  19.700  0.00  0.00    +0.000 OA
ATOM     11  C   UNL     1       5.328   5.258  17.946  0.00  0.00    +0.000 A 
ENDROOT
BRANCH  11  12
ATOM     12  C   UNL     1       6.344   6.322  18.026  0.00  0.00    +0.000 A 
ATOM     13  C   UNL     1       7.455   6.184  18.867  0.00  0.00    +0.000 A 
ATOM     14  C   UNL     1       8.405   7.205  18.945  0.00  0.00    +0.000 A 
ATOM     15  C   UNL     1       8.273   8.356  18.168  0.00  0.00    +0.000 A 
ATOM     16  C   UNL     1       7.156   8.506  17.344  0.00  0.00    +0.000 A 
ATOM     17  C   UNL     1       6.195   7.493  17.274  0.00  0.00    +0.000 A 
BRANCH  15  18
ATOM     18  O   UNL     1       9.263   9.288  18.323  0.00  0.00    +0.000 OA
ATOM     19  C   UNL     1       8.856  10.639  18.136  0.00  0.00    +0.000 C 
ENDBRANCH  15  18
ENDBRANCH  11  12
BRANCH   1  20
ATOM     20  C   UNL     1       6.491   4.100  16.086  0.00  0.00    +0.000 C 
ATOM     21  O   UNL     1       7.670   4.349  16.273  0.00  0.00    +0.000 OA
BRANCH  20  22
ATOM     22  O   UNL     1       5.944   3.809  14.873  0.00  0.00    +0.000 OA
BRANCH  22  24
ATOM     23  C   UNL     1       6.218   3.565  12.521  0.00  0.00    +0.000 C 
ATOM     24  C   UNL     1       6.691   4.310  13.758  0.00  0.00    +0.000 C 
ENDBRANCH  22  24
ENDBRANCH  20  22
ENDBRANCH   1  20
BRANCH   5  25
ATOM     25  O   UNL     1       0.314   1.276  18.459  0.00  0.00    +0.000 OA
ATOM     26  H   UNL     1      -0.438   1.592  17.931  0.00  0.00    +0.000 HD
ENDBRANCH   5  25
TORSDOF 6
ENDMDL
MODEL 6
REMARK VINA RESULT:      -7.0      0.606      1.092
REMARK  Name = 
REMARK  8 active torsions:
REMARK  status: ('A' for Active; 'I' for Inactive)
REMARK    1  A    between atoms: C_1  and  C_2
REMARK    2  A    between atoms: C_2  and  O_3
REMARK    3  A    between atoms: O_3  and  C_4
REMARK    4  A    between atoms: C_4  and  C_6
REMARK    5  A    between atoms: C_10  and  O_11
REMARK    6  A    between atoms: C_17  and  C_18
REMARK    7  A    between atoms: C_21  and  O_22
REMARK    8  A    between atoms: O_22  and  C_23
REMARK                            x       y       z     vdW  Elec       q    Type
REMARK                         _______ _______ _______ _____ _____    ______ ____
ROOT
ATOM      1  C   UNL     1       1.894   6.129  20.456  0.00  0.00    +0.000 A 
ATOM      2  O   UNL     1       1.045   6.903  21.245  0.00  0.00    +0.000 OA
ATOM      3  C   UNL     1       0.788   8.196  20.886  0.00  0.00    +0.000 A 
ATOM      4  C   UNL     1      -0.093   8.920  21.692  0.00  0.00    +0.000 A 
ATOM      5  C   UNL     1      -0.370  10.247  21.374  0.00  0.00    +0.000 A 
ATOM      6  C   UNL     1       0.207  10.853  20.262  0.00  0.00    +0.000 A 
ATOM      7  C   UNL     1       1.081  10.124  19.456  0.00  0.00    +0.000 A 
ATOM      8  C   UNL     1       1.370   8.792  19.776  0.00  0.00    +0.000 A 
ATOM      9  C   UNL     1       2.295   7.999  18.956  0.00  0.00    +0.000 A 
ATOM     10  O   UNL     1       2.846   8.511  17.983  0.00  0.00    +0.000 OA
ATOM     11  C   UNL     1       2.527   6.583  19.350  0.00  0.00    +0.000 A 
ENDROOT
BRANCH  11  12
ATOM     12  C   UNL     1       3.432   5.771  18.520  0.00  0.00    +0.000 A 
ATOM     13  C   UNL     1       2.929   4.981  17.479  0.00  0.00    +0.000 A 
ATOM     14  C   UNL     1       3.796   4.205  16.706  0.00  0.00    +0.000 A 
ATOM     15  C   UNL     1       5.171   4.230  16.944  0.00  0.00    +0.000 A 
ATOM     16  C   UNL     1       5.674   5.000  17.993  0.00  0.00    +0.000 A 
ATOM     17  C   UNL     1       4.809   5.767  18.778  0.00  0.00    +0.000 A 
BRANCH  15  18
ATOM     18  O   UNL     1       5.924   3.434  16.124  0.00  0.00    +0.000 OA
ATOM     19  C   UNL     1       5.877   3.773  14.742  0.00  0.00    +0.000 C 
ENDBRANCH  15  18
ENDBRANCH  11  12
BRANCH   1  20
ATOM     20  C   UNL     1       2.022   4.698  20.882  0.00  0.00    +0.000 C 
ATOM     21  O   UNL     1       2.983   4.188  21.432  0.00  0.00    +0.000 OA
BRANCH  20  22
ATOM     22  O   UNL     1       0.937   4.012  20.427  0.00  0.00    +0.000 OA
BRANCH  22  24
ATOM     23  C   UNL     1       1.481   2.160  19.035  0.00  0.00    +0.000 C 
ATOM     24  C   UNL     1       1.096   2.588  20.440  0.00  0.00    +0.000 C 
ENDBRANCH  22  24
ENDBRANCH  20  22
ENDBRANCH   1  20
BRANCH   5  25
ATOM     25  O   UNL     1      -1.210  11.002  22.137  0.00  0.00    +0.000 OA
ATOM     26  H   UNL     1      -0.712  11.733  22.538  0.00  0.00    +0.000 HD
ENDBRANCH   5  25
TORSDOF 6
ENDMDL
MODEL 7
REMARK VINA RESULT:      -6.9      1.981      6.970
REMARK  Name = 
REMARK  8 active torsions:
REMARK  status: ('A' for Active; 'I' for Inactive)
REMARK    1  A    between atoms: C_1  and  C_2
REMARK    2  A    between atoms: C_2  and  O_3
REMARK    3  A    between atoms: O_3  and  C_4
REMARK    4  A    between atoms: C_4  and  C_6
REMARK    5  A    between atoms: C_10  and  O_11
REMARK    6  A    between atoms: C_17  and  C_18
REMARK    7  A    between atoms: C_21  and  O_22
REMARK    8  A    between atoms: O_22  and  C_23
REMARK                            x       y       z     vdW  Elec       q    Type
REMARK                         _______ _______ _______ _____ _____    ______ ____
ROOT
ATOM      1  C   UNL     1       1.329   7.829  20.271  0.00  0.00    +0.000 A 
ATOM      2  O   UNL     1       1.983   6.608  20.433  0.00  0.00    +0.000 OA
ATOM      3  C   UNL     1       2.905   6.213  19.506  0.00  0.00    +0.000 A 
ATOM      4  C   UNL     1       3.554   4.997  19.728  0.00  0.00    +0.000 A 
ATOM      5  C   UNL     1       4.489   4.546  18.800  0.00  0.00    +0.000 A 
ATOM      6  C   UNL     1       4.789   5.292  17.665  0.00  0.00    +0.000 A 
ATOM      7  C   UNL     1       4.143   6.510  17.450  0.00  0.00    +0.000 A 
ATOM      8  C   UNL     1       3.197   6.964  18.376  0.00  0.00    +0.000 A 
ATOM      9  C   UNL     1       2.489   8.235  18.174  0.00  0.00    +0.000 A 
ATOM     10  O   UNL     1       2.709   8.907  17.168  0.00  0.00    +0.000 OA
ATOM     11  C   UNL     1       1.518   8.658  19.220  0.00  0.00    +0.000 A 
ENDROOT
BRANCH  11  12
ATOM     12  C   UNL     1       0.822   9.944  19.040  0.00  0.00    +0.000 A 
ATOM     13  C   UNL     1       1.430  11.143  19.429  0.00  0.00    +0.000 A 
ATOM     14  C   UNL     1       0.755  12.356  19.266  0.00  0.00    +0.000 A 
ATOM     15  C   UNL     1      -0.516  12.386  18.691  0.00  0.00    +0.000 A 
ATOM     16  C   UNL     1      -1.134  11.191  18.321  0.00  0.00    +0.000 A 
ATOM     17  C   UNL     1      -0.467   9.974  18.496  0.00  0.00    +0.000 A 
BRANCH  15  18
ATOM     18  O   UNL     1      -1.081  13.628  18.577  0.00  0.00    +0.000 OA
ATOM     19  C   UNL     1      -0.267  14.706  19.027  0.00  0.00    +0.000 C 
ENDBRANCH  15  18
ENDBRANCH  11  12
BRANCH   1  20
ATOM     20  C   UNL     1       0.419   8.212  21.399  0.00  0.00    +0.000 C 
ATOM     21  O   UNL     1      -0.756   7.908  21.518  0.00  0.00    +0.000 OA
BRANCH  20  22
ATOM     22  O   UNL     1       1.080   9.082  22.212  0.00  0.00    +0.000 OA
BRANCH  22  24
ATOM     23  C   UNL     1      -0.482  10.830  22.623  0.00  0.00    +0.000 C 
ATOM     24  C   UNL     1       0.264   9.659  23.239  0.00  0.00    +0.000 C 
ENDBRANCH  22  24
ENDBRANCH  20  22
ENDBRANCH   1  20
BRANCH   5  25
ATOM     25  O   UNL     1       5.138   3.358  18.963  0.00  0.00    +0.000 OA
ATOM     26  H   UNL     1       5.467   3.050  18.102  0.00  0.00    +0.000 HD
ENDBRANCH   5  25
TORSDOF 6
ENDMDL
MODEL 8
REMARK VINA RESULT:      -6.8      1.003      1.250
REMARK  Name = 
REMARK  8 active torsions:
REMARK  status: ('A' for Active; 'I' for Inactive)
REMARK    1  A    between atoms: C_1  and  C_2
REMARK    2  A    between atoms: C_2  and  O_3
REMARK    3  A    between atoms: O_3  and  C_4
REMARK    4  A    between atoms: C_4  and  C_6
REMARK    5  A    between atoms: C_10  and  O_11
REMARK    6  A    between atoms: C_17  and  C_18
REMARK    7  A    between atoms: C_21  and  O_22
REMARK    8  A    between atoms: O_22  and  C_23
REMARK                            x       y       z     vdW  Elec       q    Type
REMARK                         _______ _______ _______ _____ _____    ______ ____
ROOT
ATOM      1  C   UNL     1       1.635   5.948  20.392  0.00  0.00    +0.000 A 
ATOM      2  O   UNL     1       0.861   6.715  21.261  0.00  0.00    +0.000 OA
ATOM      3  C   UNL     1       0.722   8.055  21.030  0.00  0.00    +0.000 A 
ATOM      4  C   UNL     1      -0.088   8.774  21.911  0.00  0.00    +0.000 A 
ATOM      5  C   UNL     1      -0.244  10.145  21.725  0.00  0.00    +0.000 A 
ATOM      6  C   UNL     1       0.385  10.801  20.671  0.00  0.00    +0.000 A 
ATOM      7  C   UNL     1       1.188  10.078  19.789  0.00  0.00    +0.000 A 
ATOM      8  C   UNL     1       1.355   8.701  19.977  0.00  0.00    +0.000 A 
ATOM      9  C   UNL     1       2.203   7.911  19.075  0.00  0.00    +0.000 A 
ATOM     10  O   UNL     1       2.797   8.462  18.151  0.00  0.00    +0.000 OA
ATOM     11  C   UNL     1       2.305   6.448  19.329  0.00  0.00    +0.000 A 
ENDROOT
BRANCH  11  12
ATOM     12  C   UNL     1       3.132   5.641  18.415  0.00  0.00    +0.000 A 
ATOM     13  C   UNL     1       4.514   5.851  18.333  0.00  0.00    +0.000 A 
ATOM     14  C   UNL     1       5.287   5.090  17.452  0.00  0.00    +0.000 A 
ATOM     15  C   UNL     1       4.696   4.097  16.669  0.00  0.00    +0.000 A 
ATOM     16  C   UNL     1       3.317   3.899  16.734  0.00  0.00    +0.000 A 
ATOM     17  C   UNL     1       2.537   4.669  17.603  0.00  0.00    +0.000 A 
BRANCH  15  18
ATOM     18  O   UNL     1       5.549   3.411  15.847  0.00  0.00    +0.000 OA
ATOM     19  C   UNL     1       6.590   4.192  15.270  0.00  0.00    +0.000 C 
ENDBRANCH  15  18
ENDBRANCH  11  12
BRANCH   1  20
ATOM     20  C   UNL     1       1.633   4.477  20.677  0.00  0.00    +0.000 C 
ATOM     21  O   UNL     1       0.695   3.711  20.530  0.00  0.00    +0.000 OA
BRANCH  20  22
ATOM     22  O   UNL     1       2.815   4.148  21.270  0.00  0.00    +0.000 OA
BRANCH  22  24
ATOM     23  C   UNL     1       4.092   2.485  20.145  0.00  0.00    +0.000 C 
ATOM     24  C   UNL     1       3.101   2.745  21.267  0.00  0.00    +0.000 C 
ENDBRANCH  22  24
ENDBRANCH  20  22
ENDBRANCH   1  20
BRANCH   5  25
ATOM     25  O   UNL     1      -1.011  10.896  22.566  0.00  0.00    +0.000 OA
ATOM     26  H   UNL     1      -0.439  11.337  23.215  0.00  0.00    +0.000 HD
ENDBRANCH   5  25
TORSDOF 6
ENDMDL
MODEL 9
REMARK VINA RESULT:      -6.8      2.054      7.278
REMARK  Name = 
REMARK  8 active torsions:
REMARK  status: ('A' for Active; 'I' for Inactive)
REMARK    1  A    between atoms: C_1  and  C_2
REMARK    2  A    between atoms: C_2  and  O_3
REMARK    3  A    between atoms: O_3  and  C_4
REMARK    4  A    between atoms: C_4  and  C_6
REMARK    5  A    between atoms: C_10  and  O_11
REMARK    6  A    between atoms: C_17  and  C_18
REMARK    7  A    between atoms: C_21  and  O_22
REMARK    8  A    between atoms: O_22  and  C_23
REMARK                            x       y       z     vdW  Elec       q    Type
REMARK                         _______ _______ _______ _____ _____    ______ ____
ROOT
ATOM      1  C   UNL     1       1.220   8.742  20.884  0.00  0.00    +0.000 A 
ATOM      2  O   UNL     1       1.674   7.432  21.037  0.00  0.00    +0.000 OA
ATOM      3  C   UNL     1       2.209   6.778  19.963  0.00  0.00    +0.000 A 
ATOM      4  C   UNL     1       2.677   5.480  20.174  0.00  0.00    +0.000 A 
ATOM      5  C   UNL     1       3.214   4.769  19.105  0.00  0.00    +0.000 A 
ATOM      6  C   UNL     1       3.299   5.337  17.837  0.00  0.00    +0.000 A 
ATOM      7  C   UNL     1       2.836   6.637  17.632  0.00  0.00    +0.000 A 
ATOM      8  C   UNL     1       2.288   7.353  18.702  0.00  0.00    +0.000 A 
ATOM      9  C   UNL     1       1.780   8.719  18.519  0.00  0.00    +0.000 A 
ATOM     10  O   UNL     1       1.813   9.242  17.407  0.00  0.00    +0.000 OA
ATOM     11  C   UNL     1       1.238   9.420  19.715  0.00  0.00    +0.000 A 
ENDROOT
BRANCH  11  12
ATOM     12  C   UNL     1       0.750  10.799  19.547  0.00  0.00    +0.000 A 
ATOM     13  C   UNL     1       1.545  11.887  19.927  0.00  0.00    +0.000 A 
ATOM     14  C   UNL     1       1.066  13.191  19.776  0.00  0.00    +0.000 A 
ATOM     15  C   UNL     1      -0.193  13.423  19.221  0.00  0.00    +0.000 A 
ATOM     16  C   UNL     1      -0.996  12.341  18.860  0.00  0.00    +0.000 A 
ATOM     17  C   UNL     1      -0.527  11.034  19.023  0.00  0.00    +0.000 A 
BRANCH  15  18
ATOM     18  O   UNL     1      -0.557  14.738  19.117  0.00  0.00    +0.000 OA
ATOM     19  C   UNL     1       0.507  15.673  19.261  0.00  0.00    +0.000 C 
ENDBRANCH  15  18
ENDBRANCH  11  12
BRANCH   1  20
ATOM     20  C   UNL     1       0.752   9.398  22.147  0.00  0.00    +0.000 C 
ATOM     21  O   UNL     1       1.427   9.633  23.135  0.00  0.00    +0.000 OA
BRANCH  20  22
ATOM     22  O   UNL     1      -0.598   9.567  22.074  0.00  0.00    +0.000 OA
BRANCH  22  24
ATOM     23  C   UNL     1      -1.281  11.790  22.577  0.00  0.00    +0.000 C 
ATOM     24  C   UNL     1      -1.145  10.378  23.120  0.00  0.00    +0.000 C 
ENDBRANCH  22  24
ENDBRANCH  20  22
ENDBRANCH   1  20
BRANCH   5  25
ATOM     25  O   UNL     1       3.670   3.492  19.255  0.00  0.00    +0.000 OA
ATOM     26  H   UNL     1       3.363   3.138  20.105  0.00  0.00    +0.000 HD
ENDBRANCH   5  25
TORSDOF 6
ENDMDL
