MODEL 1
REMARK VINA RESULT:      -8.8      0.000      0.000
REMARK  Name = 
REMARK  4 active torsions:
REMARK  status: ('A' for Active; 'I' for Inactive)
REMARK    1  A    between atoms: C_7  and  C_8
REMARK    2  A    between atoms: C_11  and  O_12
REMARK    3  A    between atoms: O_12  and  C_13
REMARK    4  A    between atoms: C_17  and  C_19
REMARK                            x       y       z     vdW  Elec       q    Type
REMARK                         _______ _______ _______ _____ _____    ______ ____
ROOT
ATOM      1  C   UNL     1       2.649   7.211  19.327  0.00  0.00    +0.000 A 
ATOM      2  C   UNL     1       1.912   7.473  20.486  0.00  0.00    +0.000 A 
ATOM      3  C   UNL     1       0.951   8.499  20.500  0.00  0.00    +0.000 A 
ATOM      4  C   UNL     1       0.721   9.285  19.367  0.00  0.00    +0.000 A 
ATOM      5  C   UNL     1       1.424   8.981  18.197  0.00  0.00    +0.000 A 
ATOM      6  C   UNL     1       2.383   7.957  18.179  0.00  0.00    +0.000 A 
ENDROOT
BRANCH   1  13
ATOM      7  O   UNL     1       3.841   0.891  18.564  0.00  0.00    +0.000 OA
ATOM      8  C   UNL     1       3.801   2.106  18.727  0.00  0.00    +0.000 C 
ATOM      9  N   UNL     1       4.931   2.835  18.940  0.00  0.00    +0.000 N 
ATOM     10  C   UNL     1       5.004   4.183  19.152  0.00  0.00    +0.000 C 
ATOM     11  O   UNL     1       6.083   4.730  19.342  0.00  0.00    +0.000 OA
ATOM     12  C   UNL     1       3.702   4.907  19.127  0.00  0.00    +0.000 C 
ATOM     13  C   UNL     1       3.750   6.239  19.333  0.00  0.00    +0.000 C 
ATOM     14  C   UNL     1       2.456   4.139  18.880  0.00  0.00    +0.000 C 
ATOM     15  O   UNL     1       1.335   4.630  18.824  0.00  0.00    +0.000 OA
ATOM     16  N   UNL     1       2.627   2.791  18.712  0.00  0.00    +0.000 N 
ATOM     17  H   UNL     1       5.801   2.325  18.948  0.00  0.00    +0.000 HD
ATOM     18  H   UNL     1       1.790   2.248  18.554  0.00  0.00    +0.000 HD
ENDBRANCH   1  13
BRANCH   4  19
ATOM     19  O   UNL     1      -0.189  10.310  19.519  0.00  0.00    +0.000 OA
BRANCH  19  20
ATOM     20  C   UNL     1      -0.537  11.074  18.350  0.00  0.00    +0.000 C 
ATOM     21  C   UNL     1      -1.138  12.423  18.724  0.00  0.00    +0.000 C 
ATOM     22  C   UNL     1      -2.519  12.285  19.339  0.00  0.00    +0.000 C 
ATOM     23  N   UNL     1      -3.463  11.486  18.561  0.00  0.00    +0.000 N 
ATOM     24  C   UNL     1      -4.862  11.557  18.787  0.00  0.00    +0.000 C 
ATOM     25  O   UNL     1      -5.672  10.863  18.164  0.00  0.00    +0.000 OA
ATOM     26  C   UNL     1      -2.956  10.235  18.006  0.00  0.00    +0.000 C 
ATOM     27  C   UNL     1      -1.531  10.314  17.461  0.00  0.00    +0.000 C 
BRANCH  24  28
ATOM     28  C   UNL     1      -5.405  12.527  19.813  0.00  0.00    +0.000 A 
ATOM     29  C   UNL     1      -5.858  13.786  19.428  0.00  0.00    +0.000 A 
ATOM     30  C   UNL     1      -6.230  14.694  20.426  0.00  0.00    +0.000 A 
ATOM     31  C   UNL     1      -6.145  14.318  21.763  0.00  0.00    +0.000 A 
ATOM     32 CL   UNL     1      -6.507  15.424  23.023  0.00  0.00    +0.000 Cl
ATOM     33  C   UNL     1      -5.744  13.028  22.055  0.00  0.00    +0.000 A 
ATOM     34  N   UNL     1      -5.402  12.124  21.112  0.00  0.00    +0.000 NA
ENDBRANCH  24  28
ENDBRANCH  19  20
ENDBRANCH   4  19
TORSDOF 4
ENDMDL
MODEL 2
REMARK VINA RESULT:      -8.6      2.584      3.387
REMARK  Name = 
REMARK  4 active torsions:
REMARK  status: ('A' for Active; 'I' for Inactive)
REMARK    1  A    between atoms: C_7  and  C_8
REMARK    2  A    between atoms: C_11  and  O_12
REMARK    3  A    between atoms: O_12  and  C_13
REMARK    4  A    between atoms: C_17  and  C_19
REMARK                            x       y       z     vdW  Elec       q    Type
REMARK                         _______ _______ _______ _____ _____    ______ ____
ROOT
ATOM      1  C   UNL     1       2.493   6.955  18.497  0.00  0.00    +0.000 A 
ATOM      2  C   UNL     1       2.141   7.962  17.594  0.00  0.00    +0.000 A 
ATOM      3  C   UNL     1       1.484   9.121  18.042  0.00  0.00    +0.000 A 
ATOM      4  C   UNL     1       1.157   9.287  19.391  0.00  0.00    +0.000 A 
ATOM      5  C   UNL     1       1.561   8.299  20.295  0.00  0.00    +0.000 A 
ATOM      6  C   UNL     1       2.217   7.142  19.851  0.00  0.00    +0.000 A 
ENDROOT
BRANCH   1  13
ATOM      7  O   UNL     1       7.940   4.373  16.128  0.00  0.00    +0.000 OA
ATOM      8  C   UNL     1       6.840   4.688  16.570  0.00  0.00    +0.000 C 
ATOM      9  N   UNL     1       5.850   3.769  16.741  0.00  0.00    +0.000 N 
ATOM     10  C   UNL     1       4.588   4.007  17.205  0.00  0.00    +0.000 C 
ATOM     11  O   UNL     1       3.775   3.096  17.309  0.00  0.00    +0.000 OA
ATOM     12  C   UNL     1       4.294   5.422  17.568  0.00  0.00    +0.000 C 
ATOM     13  C   UNL     1       3.054   5.681  18.030  0.00  0.00    +0.000 C 
ATOM     14  C   UNL     1       5.361   6.442  17.407  0.00  0.00    +0.000 C 
ATOM     15  O   UNL     1       5.237   7.628  17.687  0.00  0.00    +0.000 OA
ATOM     16  N   UNL     1       6.545   5.972  16.906  0.00  0.00    +0.000 N 
ATOM     17  H   UNL     1       6.073   2.817  16.493  0.00  0.00    +0.000 HD
ATOM     18  H   UNL     1       7.281   6.652  16.778  0.00  0.00    +0.000 HD
ENDBRANCH   1  13
BRANCH   4  19
ATOM     19  O   UNL     1       0.447  10.426  19.704  0.00  0.00    +0.000 OA
BRANCH  19  20
ATOM     20  C   UNL     1       0.856  11.172  20.864  0.00  0.00    +0.000 C 
ATOM     21  C   UNL     1      -0.143  11.024  22.005  0.00  0.00    +0.000 C 
ATOM     22  C   UNL     1      -1.452  11.735  21.715  0.00  0.00    +0.000 C 
ATOM     23  N   UNL     1      -1.319  13.132  21.310  0.00  0.00    +0.000 N 
ATOM     24  C   UNL     1      -2.417  14.030  21.359  0.00  0.00    +0.000 C 
ATOM     25  O   UNL     1      -2.332  15.205  20.988  0.00  0.00    +0.000 OA
ATOM     26  C   UNL     1      -0.277  13.431  20.333  0.00  0.00    +0.000 C 
ATOM     27  C   UNL     1       1.026  12.662  20.540  0.00  0.00    +0.000 C 
BRANCH  24  28
ATOM     28  C   UNL     1      -3.747  13.555  21.903  0.00  0.00    +0.000 A 
ATOM     29  C   UNL     1      -4.707  13.013  21.053  0.00  0.00    +0.000 A 
ATOM     30  C   UNL     1      -5.967  12.708  21.580  0.00  0.00    +0.000 A 
ATOM     31  C   UNL     1      -6.224  12.947  22.927  0.00  0.00    +0.000 A 
ATOM     32 CL   UNL     1      -7.778  12.671  23.598  0.00  0.00    +0.000 Cl
ATOM     33  C   UNL     1      -5.196  13.430  23.713  0.00  0.00    +0.000 A 
ATOM     34  N   UNL     1      -3.964  13.711  23.237  0.00  0.00    +0.000 NA
ENDBRANCH  24  28
ENDBRANCH  19  20
ENDBRANCH   4  19
TORSDOF 4
ENDMDL
MODEL 3
REMARK VINA RESULT:      -8.5      3.769      4.885
REMARK  Name = 
REMARK  4 active torsions:
REMARK  status: ('A' for Active; 'I' for Inactive)
REMARK    1  A    between atoms: C_7  and  C_8
REMARK    2  A    between atoms: C_11  and  O_12
REMARK    3  A    between atoms: O_12  and  C_13
REMARK    4  A    between atoms: C_17  and  C_19
REMARK                            x       y       z     vdW  Elec       q    Type
REMARK                         _______ _______ _______ _____ _____    ______ ____
ROOT
ATOM      1  C   UNL     1       2.339   6.747  18.535  0.00  0.00    +0.000 A 
ATOM      2  C   UNL     1       2.127   6.977  19.898  0.00  0.00    +0.000 A 
ATOM      3  C   UNL     1       1.659   8.226  20.343  0.00  0.00    +0.000 A 
ATOM      4  C   UNL     1       1.410   9.265  19.441  0.00  0.00    +0.000 A 
ATOM      5  C   UNL     1       1.574   9.008  18.076  0.00  0.00    +0.000 A 
ATOM      6  C   UNL     1       2.040   7.763  17.628  0.00  0.00    +0.000 A 
ENDROOT
BRANCH   1  13
ATOM      7  O   UNL     1       7.867   4.435  16.076  0.00  0.00    +0.000 OA
ATOM      8  C   UNL     1       6.760   4.695  16.537  0.00  0.00    +0.000 C 
ATOM      9  N   UNL     1       5.823   3.728  16.733  0.00  0.00    +0.000 N 
ATOM     10  C   UNL     1       4.559   3.903  17.219  0.00  0.00    +0.000 C 
ATOM     11  O   UNL     1       3.797   2.952  17.344  0.00  0.00    +0.000 OA
ATOM     12  C   UNL     1       4.199   5.303  17.580  0.00  0.00    +0.000 C 
ATOM     13  C   UNL     1       2.956   5.500  18.065  0.00  0.00    +0.000 C 
ATOM     14  C   UNL     1       5.208   6.376  17.394  0.00  0.00    +0.000 C 
ATOM     15  O   UNL     1       5.029   7.556  17.669  0.00  0.00    +0.000 OA
ATOM     16  N   UNL     1       6.406   5.965  16.872  0.00  0.00    +0.000 N 
ATOM     17  H   UNL     1       6.090   2.787  16.486  0.00  0.00    +0.000 HD
ATOM     18  H   UNL     1       7.103   6.681  16.727  0.00  0.00    +0.000 HD
ENDBRANCH   1  13
BRANCH   4  19
ATOM     19  O   UNL     1       1.028  10.467  19.996  0.00  0.00    +0.000 OA
BRANCH  19  20
ATOM     20  C   UNL     1      -0.381  10.746  20.082  0.00  0.00    +0.000 C 
ATOM     21  C   UNL     1      -0.817  11.751  19.022  0.00  0.00    +0.000 C 
ATOM     22  C   UNL     1      -0.280  13.143  19.299  0.00  0.00    +0.000 C 
ATOM     23  N   UNL     1      -0.543  13.650  20.643  0.00  0.00    +0.000 N 
ATOM     24  C   UNL     1      -0.448  15.032  20.951  0.00  0.00    +0.000 C 
ATOM     25  O   UNL     1      -0.632  15.474  22.090  0.00  0.00    +0.000 OA
ATOM     26  C   UNL     1      -0.317  12.721  21.746  0.00  0.00    +0.000 C 
ATOM     27  C   UNL     1      -0.761  11.286  21.467  0.00  0.00    +0.000 C 
BRANCH  24  28
ATOM     28  C   UNL     1      -0.128  16.022  19.852  0.00  0.00    +0.000 A 
ATOM     29  C   UNL     1      -1.149  16.666  19.159  0.00  0.00    +0.000 A 
ATOM     30  C   UNL     1      -0.807  17.473  18.068  0.00  0.00    +0.000 A 
ATOM     31  C   UNL     1       0.531  17.615  17.711  0.00  0.00    +0.000 A 
ATOM     32 CL   UNL     1       0.991  18.522  16.331  0.00  0.00    +0.000 Cl
ATOM     33  C   UNL     1       1.485  16.990  18.490  0.00  0.00    +0.000 A 
ATOM     34  N   UNL     1       1.186  16.225  19.562  0.00  0.00    +0.000 NA
ENDBRANCH  24  28
ENDBRANCH  19  20
ENDBRANCH   4  19
TORSDOF 4
ENDMDL
MODEL 4
REMARK VINA RESULT:      -8.2      2.080      2.492
REMARK  Name = 
REMARK  4 active torsions:
REMARK  status: ('A' for Active; 'I' for Inactive)
REMARK    1  A    between atoms: C_7  and  C_8
REMARK    2  A    between atoms: C_11  and  O_12
REMARK    3  A    between atoms: O_12  and  C_13
REMARK    4  A    between atoms: C_17  and  C_19
REMARK                            x       y       z     vdW  Elec       q    Type
REMARK                         _______ _______ _______ _____ _____    ______ ____
ROOT
ATOM      1  C   UNL     1       2.686   7.365  18.659  0.00  0.00    +0.000 A 
ATOM      2  C   UNL     1       2.182   7.505  19.956  0.00  0.00    +0.000 A 
ATOM      3  C   UNL     1       1.289   8.547  20.263  0.00  0.00    +0.000 A 
ATOM      4  C   UNL     1       0.897   9.469  19.288  0.00  0.00    +0.000 A 
ATOM      5  C   UNL     1       1.365   9.290  17.982  0.00  0.00    +0.000 A 
ATOM      6  C   UNL     1       2.255   8.251  17.672  0.00  0.00    +0.000 A 
ENDROOT
BRANCH   1  13
ATOM      7  O   UNL     1       3.658   0.968  18.383  0.00  0.00    +0.000 OA
ATOM      8  C   UNL     1       3.650   2.195  18.374  0.00  0.00    +0.000 C 
ATOM      9  N   UNL     1       4.745   2.912  18.001  0.00  0.00    +0.000 N 
ATOM     10  C   UNL     1       4.857   4.273  17.970  0.00  0.00    +0.000 C 
ATOM     11  O   UNL     1       5.902   4.809  17.622  0.00  0.00    +0.000 OA
ATOM     12  C   UNL     1       3.637   5.026  18.377  0.00  0.00    +0.000 C 
ATOM     13  C   UNL     1       3.723   6.371  18.353  0.00  0.00    +0.000 C 
ATOM     14  C   UNL     1       2.423   4.268  18.773  0.00  0.00    +0.000 C 
ATOM     15  O   UNL     1       1.362   4.780  19.110  0.00  0.00    +0.000 OA
ATOM     16  N   UNL     1       2.552   2.905  18.743  0.00  0.00    +0.000 N 
ATOM     17  H   UNL     1       5.558   2.382  17.725  0.00  0.00    +0.000 HD
ATOM     18  H   UNL     1       1.740   2.371  19.020  0.00  0.00    +0.000 HD
ENDBRANCH   1  13
BRANCH   4  19
ATOM     19  O   UNL     1       0.079  10.492  19.719  0.00  0.00    +0.000 OA
BRANCH  19  20
ATOM     20  C   UNL     1       0.558  11.325  20.791  0.00  0.00    +0.000 C 
ATOM     21  C   UNL     1      -0.397  11.311  21.978  0.00  0.00    +0.000 C 
ATOM     22  C   UNL     1      -1.696  12.035  21.676  0.00  0.00    +0.000 C 
ATOM     23  N   UNL     1      -1.540  13.385  21.141  0.00  0.00    +0.000 N 
ATOM     24  C   UNL     1      -2.608  14.320  21.152  0.00  0.00    +0.000 C 
ATOM     25  O   UNL     1      -2.504  15.454  20.673  0.00  0.00    +0.000 OA
ATOM     26  C   UNL     1      -0.531  13.563  20.102  0.00  0.00    +0.000 C 
ATOM     27  C   UNL     1       0.757  12.773  20.327  0.00  0.00    +0.000 C 
BRANCH  24  28
ATOM     28  C   UNL     1      -3.928  13.939  21.787  0.00  0.00    +0.000 A 
ATOM     29  C   UNL     1      -4.192  14.256  23.117  0.00  0.00    +0.000 A 
ATOM     30  C   UNL     1      -5.371  13.771  23.695  0.00  0.00    +0.000 A 
ATOM     31  C   UNL     1      -6.242  12.997  22.934  0.00  0.00    +0.000 A 
ATOM     32 CL   UNL     1      -7.653  12.308  23.623  0.00  0.00    +0.000 Cl
ATOM     33  C   UNL     1      -5.932  12.781  21.605  0.00  0.00    +0.000 A 
ATOM     34  N   UNL     1      -4.815  13.256  21.014  0.00  0.00    +0.000 NA
ENDBRANCH  24  28
ENDBRANCH  19  20
ENDBRANCH   4  19
TORSDOF 4
ENDMDL
MODEL 5
REMARK VINA RESULT:      -8.2      2.132      2.779
REMARK  Name = 
REMARK  4 active torsions:
REMARK  status: ('A' for Active; 'I' for Inactive)
REMARK    1  A    between atoms: C_7  and  C_8
REMARK    2  A    between atoms: C_11  and  O_12
REMARK    3  A    between atoms: O_12  and  C_13
REMARK    4  A    between atoms: C_17  and  C_19
REMARK                            x       y       z     vdW  Elec       q    Type
REMARK                         _______ _______ _______ _____ _____    ______ ____
ROOT
ATOM      1  C   UNL     1       2.488   6.915  18.606  0.00  0.00    +0.000 A 
ATOM      2  C   UNL     1       2.174   7.978  17.754  0.00  0.00    +0.000 A 
ATOM      3  C   UNL     1       1.528   9.122  18.254  0.00  0.00    +0.000 A 
ATOM      4  C   UNL     1       1.173   9.217  19.603  0.00  0.00    +0.000 A 
ATOM      5  C   UNL     1       1.538   8.172  20.457  0.00  0.00    +0.000 A 
ATOM      6  C   UNL     1       2.184   7.029  19.962  0.00  0.00    +0.000 A 
ENDROOT
BRANCH   1  13
ATOM      7  O   UNL     1       7.868   4.428  15.995  0.00  0.00    +0.000 OA
ATOM      8  C   UNL     1       6.780   4.725  16.479  0.00  0.00    +0.000 C 
ATOM      9  N   UNL     1       5.797   3.799  16.646  0.00  0.00    +0.000 N 
ATOM     10  C   UNL     1       4.548   4.018  17.153  0.00  0.00    +0.000 C 
ATOM     11  O   UNL     1       3.740   3.102  17.248  0.00  0.00    +0.000 OA
ATOM     12  C   UNL     1       4.263   5.418  17.573  0.00  0.00    +0.000 C 
ATOM     13  C   UNL     1       3.036   5.658  18.079  0.00  0.00    +0.000 C 
ATOM     14  C   UNL     1       5.324   6.446  17.418  0.00  0.00    +0.000 C 
ATOM     15  O   UNL     1       5.207   7.621  17.743  0.00  0.00    +0.000 OA
ATOM     16  N   UNL     1       6.494   5.996  16.868  0.00  0.00    +0.000 N 
ATOM     17  H   UNL     1       6.014   2.856  16.359  0.00  0.00    +0.000 HD
ATOM     18  H   UNL     1       7.225   6.682  16.743  0.00  0.00    +0.000 HD
ENDBRANCH   1  13
BRANCH   4  19
ATOM     19  O   UNL     1       0.476  10.350  19.965  0.00  0.00    +0.000 OA
BRANCH  19  20
ATOM     20  C   UNL     1       0.163  11.301  18.932  0.00  0.00    +0.000 C 
ATOM     21  C   UNL     1      -0.062  12.695  19.506  0.00  0.00    +0.000 C 
ATOM     22  C   UNL     1      -1.347  12.783  20.308  0.00  0.00    +0.000 C 
ATOM     23  N   UNL     1      -2.540  12.299  19.617  0.00  0.00    +0.000 N 
ATOM     24  C   UNL     1      -3.846  12.639  20.056  0.00  0.00    +0.000 C 
ATOM     25  O   UNL     1      -4.866  12.211  19.506  0.00  0.00    +0.000 OA
ATOM     26  C   UNL     1      -2.406  11.043  18.887  0.00  0.00    +0.000 C 
ATOM     27  C   UNL     1      -1.083  10.880  18.142  0.00  0.00    +0.000 C 
BRANCH  24  28
ATOM     28  C   UNL     1      -4.018  13.577  21.232  0.00  0.00    +0.000 A 
ATOM     29  C   UNL     1      -4.055  14.955  21.040  0.00  0.00    +0.000 A 
ATOM     30  C   UNL     1      -4.086  15.784  22.167  0.00  0.00    +0.000 A 
ATOM     31  C   UNL     1      -4.085  15.216  23.437  0.00  0.00    +0.000 A 
ATOM     32 CL   UNL     1      -4.034  16.191  24.847  0.00  0.00    +0.000 Cl
ATOM     33  C   UNL     1      -4.109  13.838  23.538  0.00  0.00    +0.000 A 
ATOM     34  N   UNL     1      -4.104  13.015  22.468  0.00  0.00    +0.000 NA
ENDBRANCH  24  28
ENDBRANCH  19  20
ENDBRANCH   4  19
TORSDOF 4
ENDMDL
MODEL 6
REMARK VINA RESULT:      -8.2      0.592      1.028
REMARK  Name = 
REMARK  4 active torsions:
REMARK  status: ('A' for Active; 'I' for Inactive)
REMARK    1  A    between atoms: C_7  and  C_8
REMARK    2  A    between atoms: C_11  and  O_12
REMARK    3  A    between atoms: O_12  and  C_13
REMARK    4  A    between atoms: C_17  and  C_19
REMARK                            x       y       z     vdW  Elec       q    Type
REMARK                         _______ _______ _______ _____ _____    ______ ____
ROOT
ATOM      1  C   UNL     1       2.683   7.606  18.821  0.00  0.00    +0.000 A 
ATOM      2  C   UNL     1       2.191   8.438  17.811  0.00  0.00    +0.000 A 
ATOM      3  C   UNL     1       1.093   9.280  18.056  0.00  0.00    +0.000 A 
ATOM      4  C   UNL     1       0.461   9.295  19.303  0.00  0.00    +0.000 A 
ATOM      5  C   UNL     1       0.993   8.499  20.323  0.00  0.00    +0.000 A 
ATOM      6  C   UNL     1       2.090   7.658  20.083  0.00  0.00    +0.000 A 
ENDROOT
BRANCH   1  13
ATOM      7  O   UNL     1       3.635   1.230  18.197  0.00  0.00    +0.000 OA
ATOM      8  C   UNL     1       3.637   2.455  18.272  0.00  0.00    +0.000 C 
ATOM      9  N   UNL     1       4.767   3.182  18.054  0.00  0.00    +0.000 N 
ATOM     10  C   UNL     1       4.889   4.540  18.128  0.00  0.00    +0.000 C 
ATOM     11  O   UNL     1       5.966   5.085  17.918  0.00  0.00    +0.000 OA
ATOM     12  C   UNL     1       3.641   5.279  18.469  0.00  0.00    +0.000 C 
ATOM     13  C   UNL     1       3.738   6.622  18.546  0.00  0.00    +0.000 C 
ATOM     14  C   UNL     1       2.390   4.512  18.695  0.00  0.00    +0.000 C 
ATOM     15  O   UNL     1       1.306   5.013  18.965  0.00  0.00    +0.000 OA
ATOM     16  N   UNL     1       2.513   3.153  18.584  0.00  0.00    +0.000 N 
ATOM     17  H   UNL     1       5.598   2.661  17.821  0.00  0.00    +0.000 HD
ATOM     18  H   UNL     1       1.675   2.611  18.746  0.00  0.00    +0.000 HD
ENDBRANCH   1  13
BRANCH   4  19
ATOM     19  O   UNL     1      -0.651  10.102  19.406  0.00  0.00    +0.000 OA
BRANCH  19  20
ATOM     20  C   UNL     1      -0.945  10.981  18.305  0.00  0.00    +0.000 C 
ATOM     21  C   UNL     1      -1.492  12.318  18.788  0.00  0.00    +0.000 C 
ATOM     22  C   UNL     1      -2.888  12.190  19.368  0.00  0.00    +0.000 C 
ATOM     23  N   UNL     1      -3.852  11.506  18.510  0.00  0.00    +0.000 N 
ATOM     24  C   UNL     1      -5.251  11.621  18.721  0.00  0.00    +0.000 C 
ATOM     25  O   UNL     1      -6.079  11.022  18.027  0.00  0.00    +0.000 OA
ATOM     26  C   UNL     1      -3.391  10.287  17.854  0.00  0.00    +0.000 C 
ATOM     27  C   UNL     1      -1.954  10.348  17.338  0.00  0.00    +0.000 C 
BRANCH  24  28
ATOM     28  C   UNL     1      -5.769  12.522  19.821  0.00  0.00    +0.000 A 
ATOM     29  C   UNL     1      -6.003  13.872  19.580  0.00  0.00    +0.000 A 
ATOM     30  C   UNL     1      -6.359  14.690  20.659  0.00  0.00    +0.000 A 
ATOM     31  C   UNL     1      -6.473  14.137  21.931  0.00  0.00    +0.000 A 
ATOM     32 CL   UNL     1      -6.820  15.114  23.297  0.00  0.00    +0.000 Cl
ATOM     33  C   UNL     1      -6.283  12.776  22.072  0.00  0.00    +0.000 A 
ATOM     34  N   UNL     1      -5.963  11.959  21.045  0.00  0.00    +0.000 NA
ENDBRANCH  24  28
ENDBRANCH  19  20
ENDBRANCH   4  19
TORSDOF 4
ENDMDL
MODEL 7
REMARK VINA RESULT:      -8.2      1.378      1.667
REMARK  Name = 
REMARK  4 active torsions:
REMARK  status: ('A' for Active; 'I' for Inactive)
REMARK    1  A    between atoms: C_7  and  C_8
REMARK    2  A    between atoms: C_11  and  O_12
REMARK    3  A    between atoms: O_12  and  C_13
REMARK    4  A    between atoms: C_17  and  C_19
REMARK                            x       y       z     vdW  Elec       q    Type
REMARK                         _______ _______ _______ _____ _____    ______ ____
ROOT
ATOM      1  C   UNL     1       2.631   7.170  19.466  0.00  0.00    +0.000 A 
ATOM      2  C   UNL     1       1.905   7.313  20.652  0.00  0.00    +0.000 A 
ATOM      3  C   UNL     1       0.941   8.329  20.777  0.00  0.00    +0.000 A 
ATOM      4  C   UNL     1       0.697   9.222  19.730  0.00  0.00    +0.000 A 
ATOM      5  C   UNL     1       1.391   9.039  18.530  0.00  0.00    +0.000 A 
ATOM      6  C   UNL     1       2.352   8.026  18.401  0.00  0.00    +0.000 A 
ENDROOT
BRANCH   1  13
ATOM      7  O   UNL     1       3.798   0.869  18.526  0.00  0.00    +0.000 OA
ATOM      8  C   UNL     1       3.763   2.082  18.707  0.00  0.00    +0.000 C 
ATOM      9  N   UNL     1       4.902   2.818  18.831  0.00  0.00    +0.000 N 
ATOM     10  C   UNL     1       4.984   4.163  19.052  0.00  0.00    +0.000 C 
ATOM     11  O   UNL     1       6.071   4.717  19.155  0.00  0.00    +0.000 OA
ATOM     12  C   UNL     1       3.680   4.877  19.149  0.00  0.00    +0.000 C 
ATOM     13  C   UNL     1       3.736   6.207  19.365  0.00  0.00    +0.000 C 
ATOM     14  C   UNL     1       2.422   4.102  19.000  0.00  0.00    +0.000 C 
ATOM     15  O   UNL     1       1.297   4.585  19.046  0.00  0.00    +0.000 OA
ATOM     16  N   UNL     1       2.587   2.758  18.801  0.00  0.00    +0.000 N 
ATOM     17  H   UNL     1       5.773   2.314  18.758  0.00  0.00    +0.000 HD
ATOM     18  H   UNL     1       1.743   2.210  18.709  0.00  0.00    +0.000 HD
ENDBRANCH   1  13
BRANCH   4  19
ATOM     19  O   UNL     1      -0.214  10.223  19.991  0.00  0.00    +0.000 OA
BRANCH  19  20
ATOM     20  C   UNL     1      -0.345  11.279  19.023  0.00  0.00    +0.000 C 
ATOM     21  C   UNL     1      -0.401  12.647  19.692  0.00  0.00    +0.000 C 
ATOM     22  C   UNL     1      -1.697  12.860  20.452  0.00  0.00    +0.000 C 
ATOM     23  N   UNL     1      -2.912  12.599  19.684  0.00  0.00    +0.000 N 
ATOM     24  C   UNL     1      -4.177  13.088  20.101  0.00  0.00    +0.000 C 
ATOM     25  O   UNL     1      -5.220  12.848  19.483  0.00  0.00    +0.000 OA
ATOM     26  C   UNL     1      -2.920  11.390  18.866  0.00  0.00    +0.000 C 
ATOM     27  C   UNL     1      -1.599  11.094  18.159  0.00  0.00    +0.000 C 
BRANCH  24  28
ATOM     28  C   UNL     1      -4.272  13.957  21.337  0.00  0.00    +0.000 A 
ATOM     29  C   UNL     1      -4.543  13.393  22.580  0.00  0.00    +0.000 A 
ATOM     30  C   UNL     1      -4.749  14.248  23.669  0.00  0.00    +0.000 A 
ATOM     31  C   UNL     1      -4.671  15.625  23.485  0.00  0.00    +0.000 A 
ATOM     32 CL   UNL     1      -5.001  16.714  24.768  0.00  0.00    +0.000 Cl
ATOM     33  C   UNL     1      -4.337  16.099  22.231  0.00  0.00    +0.000 A 
ATOM     34  N   UNL     1      -4.110  15.297  21.168  0.00  0.00    +0.000 NA
ENDBRANCH  24  28
ENDBRANCH  19  20
ENDBRANCH   4  19
TORSDOF 4
ENDMDL
MODEL 8
REMARK VINA RESULT:      -8.0      0.966      1.179
REMARK  Name = 
REMARK  4 active torsions:
REMARK  status: ('A' for Active; 'I' for Inactive)
REMARK    1  A    between atoms: C_7  and  C_8
REMARK    2  A    between atoms: C_11  and  O_12
REMARK    3  A    between atoms: O_12  and  C_13
REMARK    4  A    between atoms: C_17  and  C_19
REMARK                            x       y       z     vdW  Elec       q    Type
REMARK                         _______ _______ _______ _____ _____    ______ ____
ROOT
ATOM      1  C   UNL     1       2.542   7.627  18.992  0.00  0.00    +0.000 A 
ATOM      2  C   UNL     1       1.946   7.896  20.227  0.00  0.00    +0.000 A 
ATOM      3  C   UNL     1       0.858   8.782  20.314  0.00  0.00    +0.000 A 
ATOM      4  C   UNL     1       0.358   9.421  19.175  0.00  0.00    +0.000 A 
ATOM      5  C   UNL     1       0.926   9.105  17.937  0.00  0.00    +0.000 A 
ATOM      6  C   UNL     1       2.011   8.221  17.847  0.00  0.00    +0.000 A 
ENDROOT
BRANCH   1  13
ATOM      7  O   UNL     1       4.714   1.604  19.970  0.00  0.00    +0.000 OA
ATOM      8  C   UNL     1       4.477   2.783  19.724  0.00  0.00    +0.000 C 
ATOM      9  N   UNL     1       5.435   3.618  19.238  0.00  0.00    +0.000 N 
ATOM     10  C   UNL     1       5.290   4.944  18.947  0.00  0.00    +0.000 C 
ATOM     11  O   UNL     1       6.232   5.600  18.520  0.00  0.00    +0.000 OA
ATOM     12  C   UNL     1       3.930   5.507  19.181  0.00  0.00    +0.000 C 
ATOM     13  C   UNL     1       3.762   6.815  18.900  0.00  0.00    +0.000 C 
ATOM     14  C   UNL     1       2.861   4.614  19.695  0.00  0.00    +0.000 C 
ATOM     15  O   UNL     1       1.706   4.963  19.910  0.00  0.00    +0.000 OA
ATOM     16  N   UNL     1       3.246   3.321  19.931  0.00  0.00    +0.000 N 
ATOM     17  H   UNL     1       6.346   3.214  19.083  0.00  0.00    +0.000 HD
ATOM     18  H   UNL     1       2.536   2.700  20.292  0.00  0.00    +0.000 HD
ENDBRANCH   1  13
BRANCH   4  19
ATOM     19  O   UNL     1      -0.660  10.325  19.389  0.00  0.00    +0.000 OA
BRANCH  19  20
ATOM     20  C   UNL     1      -0.960  11.257  18.335  0.00  0.00    +0.000 C 
ATOM     21  C   UNL     1      -1.539  12.555  18.885  0.00  0.00    +0.000 C 
ATOM     22  C   UNL     1      -2.938  12.368  19.442  0.00  0.00    +0.000 C 
ATOM     23  N   UNL     1      -3.879  11.714  18.537  0.00  0.00    +0.000 N 
ATOM     24  C   UNL     1      -5.282  11.789  18.739  0.00  0.00    +0.000 C 
ATOM     25  O   UNL     1      -6.091  11.213  18.004  0.00  0.00    +0.000 OA
ATOM     26  C   UNL     1      -3.387  10.542  17.819  0.00  0.00    +0.000 C 
ATOM     27  C   UNL     1      -1.947  10.660  17.324  0.00  0.00    +0.000 C 
BRANCH  24  28
ATOM     28  C   UNL     1      -5.829  12.617  19.881  0.00  0.00    +0.000 A 
ATOM     29  C   UNL     1      -6.191  12.015  21.083  0.00  0.00    +0.000 A 
ATOM     30  C   UNL     1      -6.811  12.801  22.061  0.00  0.00    +0.000 A 
ATOM     31  C   UNL     1      -7.042  14.151  21.813  0.00  0.00    +0.000 A 
ATOM     32 CL   UNL     1      -7.876  15.134  22.944  0.00  0.00    +0.000 Cl
ATOM     33  C   UNL     1      -6.596  14.682  20.618  0.00  0.00    +0.000 A 
ATOM     34  N   UNL     1      -5.974  13.953  19.666  0.00  0.00    +0.000 NA
ENDBRANCH  24  28
ENDBRANCH  19  20
ENDBRANCH   4  19
TORSDOF 4
ENDMDL
MODEL 9
REMARK VINA RESULT:      -7.9      3.203      3.884
REMARK  Name = 
REMARK  4 active torsions:
REMARK  status: ('A' for Active; 'I' for Inactive)
REMARK    1  A    between atoms: C_7  and  C_8
REMARK    2  A    between atoms: C_11  and  O_12
REMARK    3  A    between atoms: O_12  and  C_13
REMARK    4  A    between atoms: C_17  and  C_19
REMARK                            x       y       z     vdW  Elec       q    Type
REMARK                         _______ _______ _______ _____ _____    ______ ____
ROOT
ATOM      1  C   UNL     1       2.447   6.836  18.567  0.00  0.00    +0.000 A 
ATOM      2  C   UNL     1       2.079   7.914  17.757  0.00  0.00    +0.000 A 
ATOM      3  C   UNL     1       1.447   9.039  18.315  0.00  0.00    +0.000 A 
ATOM      4  C   UNL     1       1.162   9.100  19.682  0.00  0.00    +0.000 A 
ATOM      5  C   UNL     1       1.582   8.040  20.492  0.00  0.00    +0.000 A 
ATOM      6  C   UNL     1       2.213   6.917  19.939  0.00  0.00    +0.000 A 
ENDROOT
BRANCH   1  13
ATOM      7  O   UNL     1       7.829   4.376  15.934  0.00  0.00    +0.000 OA
ATOM      8  C   UNL     1       6.737   4.670  16.411  0.00  0.00    +0.000 C 
ATOM      9  N   UNL     1       5.732   3.758  16.508  0.00  0.00    +0.000 N 
ATOM     10  C   UNL     1       4.477   3.976  17.001  0.00  0.00    +0.000 C 
ATOM     11  O   UNL     1       3.648   3.075  17.031  0.00  0.00    +0.000 OA
ATOM     12  C   UNL     1       4.213   5.358  17.491  0.00  0.00    +0.000 C 
ATOM     13  C   UNL     1       2.981   5.598  17.984  0.00  0.00    +0.000 C 
ATOM     14  C   UNL     1       5.298   6.369  17.413  0.00  0.00    +0.000 C 
ATOM     15  O   UNL     1       5.198   7.528  17.798  0.00  0.00    +0.000 OA
ATOM     16  N   UNL     1       6.469   5.924  16.862  0.00  0.00    +0.000 N 
ATOM     17  H   UNL     1       5.935   2.827  16.175  0.00  0.00    +0.000 HD
ATOM     18  H   UNL     1       7.217   6.599  16.789  0.00  0.00    +0.000 HD
ENDBRANCH   1  13
BRANCH   4  19
ATOM     19  O   UNL     1       0.474  10.217  20.105  0.00  0.00    +0.000 OA
BRANCH  19  20
ATOM     20  C   UNL     1       0.481  11.372  19.248  0.00  0.00    +0.000 C 
ATOM     21  C   UNL     1       0.920  12.623  20.000  0.00  0.00    +0.000 C 
ATOM     22  C   UNL     1      -0.119  13.080  21.006  0.00  0.00    +0.000 C 
ATOM     23  N   UNL     1      -1.470  13.234  20.471  0.00  0.00    +0.000 N 
ATOM     24  C   UNL     1      -2.460  13.988  21.153  0.00  0.00    +0.000 C 
ATOM     25  O   UNL     1      -3.617  14.100  20.734  0.00  0.00    +0.000 OA
ATOM     26  C   UNL     1      -1.950  12.170  19.596  0.00  0.00    +0.000 C 
ATOM     27  C   UNL     1      -0.902  11.620  18.631  0.00  0.00    +0.000 C 
BRANCH  24  28
ATOM     28  C   UNL     1      -2.101  14.706  22.437  0.00  0.00    +0.000 A 
ATOM     29  C   UNL     1      -2.321  14.102  23.672  0.00  0.00    +0.000 A 
ATOM     30  C   UNL     1      -2.094  14.854  24.830  0.00  0.00    +0.000 A 
ATOM     31  C   UNL     1      -1.652  16.169  24.720  0.00  0.00    +0.000 A 
ATOM     32 CL   UNL     1      -1.444  17.157  26.106  0.00  0.00    +0.000 Cl
ATOM     33  C   UNL     1      -1.401  16.671  23.457  0.00  0.00    +0.000 A 
ATOM     34  N   UNL     1      -1.588  15.961  22.324  0.00  0.00    +0.000 NA
ENDBRANCH  24  28
ENDBRANCH  19  20
ENDBRANCH   4  19
TORSDOF 4
ENDMDL
