MODEL 1
REMARK VINA RESULT:      -8.6      0.000      0.000
REMARK  Name = 
REMARK  6 active torsions:
REMARK  status: ('A' for Active; 'I' for Inactive)
REMARK    1  A    between atoms: C_1  and  C_2
REMARK    2  A    between atoms: C_12  and  O_13
REMARK    3  A    between atoms: C_15  and  C_16
REMARK    4  A    between atoms: C_16  and  N_17
REMARK    5  A    between atoms: C_21  and  C_22
REMARK    6  A    between atoms: C_21  and  C_23
REMARK                            x       y       z     vdW  Elec       q    Type
REMARK                         _______ _______ _______ _____ _____    ______ ____
ROOT
ATOM      1  C   UNL     1       0.801  12.634  18.548  0.00  0.00    +0.000 C 
ATOM      2  C   UNL     1       0.971  11.234  19.069  0.00  0.00    +0.000 A 
ATOM      3  C   UNL     1       0.281  10.714  20.156  0.00  0.00    +0.000 A 
ATOM      4  C   UNL     1       0.487   9.359  20.558  0.00  0.00    +0.000 A 
ATOM      5  C   UNL     1       1.338   8.470  19.873  0.00  0.00    +0.000 A 
ATOM      6  N   UNL     1       1.569   7.156  20.228  0.00  0.00    +0.000 NA
ATOM      7  C   UNL     1       2.428   6.366  19.503  0.00  0.00    +0.000 A 
ATOM      8  N   UNL     1       2.727   5.094  19.966  0.00  0.00    +0.000 N 
ATOM      9  C   UNL     1       4.069   4.505  20.049  0.00  0.00    +0.000 C 
ATOM     10  C   UNL     1       4.070   3.192  19.258  0.00  0.00    +0.000 C 
ATOM     11  C   UNL     1       3.015   2.242  19.837  0.00  0.00    +0.000 C 
ATOM     12  C   UNL     1       1.641   2.923  19.982  0.00  0.00    +0.000 C 
ATOM     13  C   UNL     1       1.722   4.306  20.684  0.00  0.00    +0.000 C 
ATOM     14  C   UNL     1       2.996   6.870  18.331  0.00  0.00    +0.000 A 
ATOM     15  C   UNL     1       2.800   8.232  18.030  0.00  0.00    +0.000 A 
ATOM     16  C   UNL     1       1.996   9.043  18.797  0.00  0.00    +0.000 A 
ATOM     17  C   UNL     1       1.838  10.394  18.399  0.00  0.00    +0.000 A 
ENDROOT
BRANCH  12  18
ATOM     18  O   UNL     1       1.091   3.093  18.669  0.00  0.00    +0.000 OA
ATOM     19  H   UNL     1       0.691   3.987  18.674  0.00  0.00    +0.000 HD
ENDBRANCH  12  18
BRANCH  14  20
ATOM     20  C   UNL     1       3.972   6.180  17.438  0.00  0.00    +0.000 C 
BRANCH  20  21
ATOM     21  N   UNL     1       5.394   6.508  17.266  0.00  0.00    +0.000 NA
ATOM     22  C   UNL     1       6.551   5.939  17.986  0.00  0.00    +0.000 C 
ATOM     23  C   UNL     1       7.476   4.835  17.307  0.00  0.00    +0.000 C 
ATOM     24  O   UNL     1       7.252   4.558  15.897  0.00  0.00    +0.000 OA
ATOM     25  C   UNL     1       5.862   4.722  15.603  0.00  0.00    +0.000 C 
ATOM     26  C   UNL     1       5.137   3.602  16.401  0.00  0.00    +0.000 C 
ATOM     27  C   UNL     1       5.480   4.497  14.139  0.00  0.00    +0.000 C 
ATOM     28  C   UNL     1       5.630   6.245  15.845  0.00  0.00    +0.000 C 
ENDBRANCH  20  21
ENDBRANCH  14  20
TORSDOF 3
ENDMDL
MODEL 2
REMARK VINA RESULT:      -8.3      1.375      4.548
REMARK  Name = 
REMARK  6 active torsions:
REMARK  status: ('A' for Active; 'I' for Inactive)
REMARK    1  A    between atoms: C_1  and  C_2
REMARK    2  A    between atoms: C_12  and  O_13
REMARK    3  A    between atoms: C_15  and  C_16
REMARK    4  A    between atoms: C_16  and  N_17
REMARK    5  A    between atoms: C_21  and  C_22
REMARK    6  A    between atoms: C_21  and  C_23
REMARK                            x       y       z     vdW  Elec       q    Type
REMARK                         _______ _______ _______ _____ _____    ______ ____
ROOT
ATOM      1  C   UNL     1      -0.676  10.687  20.703  0.00  0.00    +0.000 C 
ATOM      2  C   UNL     1       0.343  10.054  19.797  0.00  0.00    +0.000 A 
ATOM      3  C   UNL     1       0.867  10.660  18.663  0.00  0.00    +0.000 A 
ATOM      4  C   UNL     1       1.856   9.991  17.880  0.00  0.00    +0.000 A 
ATOM      5  C   UNL     1       2.389   8.732  18.220  0.00  0.00    +0.000 A 
ATOM      6  N   UNL     1       3.342   8.048  17.492  0.00  0.00    +0.000 NA
ATOM      7  C   UNL     1       3.795   6.816  17.897  0.00  0.00    +0.000 A 
ATOM      8  N   UNL     1       4.658   6.111  17.072  0.00  0.00    +0.000 N 
ATOM      9  C   UNL     1       4.541   4.689  16.725  0.00  0.00    +0.000 C 
ATOM     10  C   UNL     1       5.848   3.989  17.111  0.00  0.00    +0.000 C 
ATOM     11  C   UNL     1       7.020   4.642  16.369  0.00  0.00    +0.000 C 
ATOM     12  C   UNL     1       7.022   6.175  16.526  0.00  0.00    +0.000 C 
ATOM     13  C   UNL     1       5.636   6.814  16.240  0.00  0.00    +0.000 C 
ATOM     14  C   UNL     1       3.359   6.295  19.117  0.00  0.00    +0.000 A 
ATOM     15  C   UNL     1       2.337   6.978  19.804  0.00  0.00    +0.000 A 
ATOM     16  C   UNL     1       1.832   8.178  19.361  0.00  0.00    +0.000 A 
ATOM     17  C   UNL     1       0.823   8.804  20.135  0.00  0.00    +0.000 A 
ENDROOT
BRANCH  12  18
ATOM     18  O   UNL     1       7.411   6.480  17.872  0.00  0.00    +0.000 OA
ATOM     19  H   UNL     1       8.365   6.695  17.818  0.00  0.00    +0.000 HD
ENDBRANCH  12  18
BRANCH  14  20
ATOM     20  C   UNL     1       3.710   4.968  19.702  0.00  0.00    +0.000 C 
BRANCH  20  21
ATOM     21  N   UNL     1       2.868   4.141  20.578  0.00  0.00    +0.000 NA
ATOM     22  C   UNL     1       1.393   4.085  20.631  0.00  0.00    +0.000 C 
ATOM     23  C   UNL     1       0.595   2.885  19.953  0.00  0.00    +0.000 C 
ATOM     24  O   UNL     1       1.377   1.765  19.457  0.00  0.00    +0.000 OA
ATOM     25  C   UNL     1       2.640   2.246  18.987  0.00  0.00    +0.000 C 
ATOM     26  C   UNL     1       2.309   3.140  17.760  0.00  0.00    +0.000 C 
ATOM     27  C   UNL     1       3.590   1.166  18.466  0.00  0.00    +0.000 C 
ATOM     28  C   UNL     1       3.317   2.778  20.287  0.00  0.00    +0.000 C 
ENDBRANCH  20  21
ENDBRANCH  14  20
TORSDOF 3
ENDMDL
MODEL 3
REMARK VINA RESULT:      -8.3      1.064      1.263
REMARK  Name = 
REMARK  6 active torsions:
REMARK  status: ('A' for Active; 'I' for Inactive)
REMARK    1  A    between atoms: C_1  and  C_2
REMARK    2  A    between atoms: C_12  and  O_13
REMARK    3  A    between atoms: C_15  and  C_16
REMARK    4  A    between atoms: C_16  and  N_17
REMARK    5  A    between atoms: C_21  and  C_22
REMARK    6  A    between atoms: C_21  and  C_23
REMARK                            x       y       z     vdW  Elec       q    Type
REMARK                         _______ _______ _______ _____ _____    ______ ____
ROOT
ATOM      1  C   UNL     1       0.410  11.852  20.279  0.00  0.00    +0.000 C 
ATOM      2  C   UNL     1       0.645  10.377  20.446  0.00  0.00    +0.000 A 
ATOM      3  C   UNL     1      -0.011   9.579  21.374  0.00  0.00    +0.000 A 
ATOM      4  C   UNL     1       0.257   8.177  21.436  0.00  0.00    +0.000 A 
ATOM      5  C   UNL     1       1.139   7.519  20.557  0.00  0.00    +0.000 A 
ATOM      6  N   UNL     1       1.430   6.170  20.584  0.00  0.00    +0.000 NA
ATOM      7  C   UNL     1       2.315   5.617  19.690  0.00  0.00    +0.000 A 
ATOM      8  N   UNL     1       2.672   4.285  19.831  0.00  0.00    +0.000 N 
ATOM      9  C   UNL     1       4.039   3.753  19.770  0.00  0.00    +0.000 C 
ATOM     10  C   UNL     1       4.089   2.672  18.685  0.00  0.00    +0.000 C 
ATOM     11  C   UNL     1       3.082   1.565  19.016  0.00  0.00    +0.000 C 
ATOM     12  C   UNL     1       1.681   2.130  19.320  0.00  0.00    +0.000 C 
ATOM     13  C   UNL     1       1.709   3.304  20.336  0.00  0.00    +0.000 C 
ATOM     14  C   UNL     1       2.849   6.414  18.675  0.00  0.00    +0.000 A 
ATOM     15  C   UNL     1       2.591   7.799  18.713  0.00  0.00    +0.000 A 
ATOM     16  C   UNL     1       1.761   8.364  19.653  0.00  0.00    +0.000 A 
ATOM     17  C   UNL     1       1.541   9.763  19.593  0.00  0.00    +0.000 A 
ENDROOT
BRANCH  12  18
ATOM     18  O   UNL     1       1.112   2.588  18.086  0.00  0.00    +0.000 OA
ATOM     19  H   UNL     1       0.567   1.841  17.764  0.00  0.00    +0.000 HD
ENDBRANCH  12  18
BRANCH  14  20
ATOM     20  C   UNL     1       3.845   6.004  17.642  0.00  0.00    +0.000 C 
BRANCH  20  21
ATOM     21  N   UNL     1       4.730   6.889  16.871  0.00  0.00    +0.000 NA
ATOM     22  C   UNL     1       5.943   7.591  17.337  0.00  0.00    +0.000 C 
ATOM     23  C   UNL     1       7.394   7.039  16.983  0.00  0.00    +0.000 C 
ATOM     24  O   UNL     1       7.473   5.942  16.032  0.00  0.00    +0.000 OA
ATOM     25  C   UNL     1       6.320   5.109  16.181  0.00  0.00    +0.000 C 
ATOM     26  C   UNL     1       6.445   4.483  17.599  0.00  0.00    +0.000 C 
ATOM     27  C   UNL     1       6.248   3.926  15.214  0.00  0.00    +0.000 C 
ATOM     28  C   UNL     1       5.152   6.047  15.750  0.00  0.00    +0.000 C 
ENDBRANCH  20  21
ENDBRANCH  14  20
TORSDOF 3
ENDMDL
MODEL 4
REMARK VINA RESULT:      -7.3      0.960      1.579
REMARK  Name = 
REMARK  6 active torsions:
REMARK  status: ('A' for Active; 'I' for Inactive)
REMARK    1  A    between atoms: C_1  and  C_2
REMARK    2  A    between atoms: C_12  and  O_13
REMARK    3  A    between atoms: C_15  and  C_16
REMARK    4  A    between atoms: C_16  and  N_17
REMARK    5  A    between atoms: C_21  and  C_22
REMARK    6  A    between atoms: C_21  and  C_23
REMARK                            x       y       z     vdW  Elec       q    Type
REMARK                         _______ _______ _______ _____ _____    ______ ____
ROOT
ATOM      1  C   UNL     1       1.512  12.244  18.199  0.00  0.00    +0.000 C 
ATOM      2  C   UNL     1       1.541  10.877  18.823  0.00  0.00    +0.000 A 
ATOM      3  C   UNL     1       0.916  10.548  20.018  0.00  0.00    +0.000 A 
ATOM      4  C   UNL     1       0.972   9.211  20.517  0.00  0.00    +0.000 A 
ATOM      5  C   UNL     1       1.603   8.156  19.830  0.00  0.00    +0.000 A 
ATOM      6  N   UNL     1       1.684   6.852  20.276  0.00  0.00    +0.000 NA
ATOM      7  C   UNL     1       2.332   5.889  19.539  0.00  0.00    +0.000 A 
ATOM      8  N   UNL     1       2.498   4.624  20.081  0.00  0.00    +0.000 N 
ATOM      9  C   UNL     1       3.743   3.846  20.076  0.00  0.00    +0.000 C 
ATOM     10  C   UNL     1       3.465   2.494  19.411  0.00  0.00    +0.000 C 
ATOM     11  C   UNL     1       2.360   1.760  20.180  0.00  0.00    +0.000 C 
ATOM     12  C   UNL     1       1.123   2.650  20.406  0.00  0.00    +0.000 C 
ATOM     13  C   UNL     1       1.481   4.053  20.968  0.00  0.00    +0.000 C 
ATOM     14  C   UNL     1       2.825   6.214  18.274  0.00  0.00    +0.000 A 
ATOM     15  C   UNL     1       2.791   7.564  17.874  0.00  0.00    +0.000 A 
ATOM     16  C   UNL     1       2.205   8.542  18.644  0.00  0.00    +0.000 A 
ATOM     17  C   UNL     1       2.196   9.868  18.144  0.00  0.00    +0.000 A 
ENDROOT
BRANCH  12  18
ATOM     18  O   UNL     1       0.454   2.805  19.147  0.00  0.00    +0.000 OA
ATOM     19  H   UNL     1      -0.138   2.028  19.076  0.00  0.00    +0.000 HD
ENDBRANCH  12  18
BRANCH  14  20
ATOM     20  C   UNL     1       3.582   5.320  17.350  0.00  0.00    +0.000 C 
BRANCH  20  21
ATOM     21  N   UNL     1       4.894   4.704  17.597  0.00  0.00    +0.000 NA
ATOM     22  C   UNL     1       5.705   3.893  16.667  0.00  0.00    +0.000 C 
ATOM     23  C   UNL     1       6.959   4.523  15.912  0.00  0.00    +0.000 C 
ATOM     24  O   UNL     1       7.379   5.853  16.321  0.00  0.00    +0.000 OA
ATOM     25  C   UNL     1       6.230   6.606  16.720  0.00  0.00    +0.000 C 
ATOM     26  C   UNL     1       5.384   6.780  15.427  0.00  0.00    +0.000 C 
ATOM     27  C   UNL     1       6.526   8.024  17.213  0.00  0.00    +0.000 C 
ATOM     28  C   UNL     1       5.731   5.841  17.983  0.00  0.00    +0.000 C 
ENDBRANCH  20  21
ENDBRANCH  14  20
TORSDOF 3
ENDMDL
MODEL 5
REMARK VINA RESULT:      -7.1      1.537      4.623
REMARK  Name = 
REMARK  6 active torsions:
REMARK  status: ('A' for Active; 'I' for Inactive)
REMARK    1  A    between atoms: C_1  and  C_2
REMARK    2  A    between atoms: C_12  and  O_13
REMARK    3  A    between atoms: C_15  and  C_16
REMARK    4  A    between atoms: C_16  and  N_17
REMARK    5  A    between atoms: C_21  and  C_22
REMARK    6  A    between atoms: C_21  and  C_23
REMARK                            x       y       z     vdW  Elec       q    Type
REMARK                         _______ _______ _______ _____ _____    ______ ____
ROOT
ATOM      1  C   UNL     1      -0.865  11.651  19.753  0.00  0.00    +0.000 C 
ATOM      2  C   UNL     1       0.304  10.955  19.112  0.00  0.00    +0.000 A 
ATOM      3  C   UNL     1       1.282  11.595  18.363  0.00  0.00    +0.000 A 
ATOM      4  C   UNL     1       2.374  10.852  17.820  0.00  0.00    +0.000 A 
ATOM      5  C   UNL     1       2.556   9.473  18.040  0.00  0.00    +0.000 A 
ATOM      6  N   UNL     1       3.593   8.716  17.531  0.00  0.00    +0.000 NA
ATOM      7  C   UNL     1       3.683   7.370  17.792  0.00  0.00    +0.000 A 
ATOM      8  N   UNL     1       4.667   6.626  17.161  0.00  0.00    +0.000 N 
ATOM      9  C   UNL     1       4.472   5.328  16.503  0.00  0.00    +0.000 C 
ATOM     10  C   UNL     1       5.435   4.316  17.133  0.00  0.00    +0.000 C 
ATOM     11  C   UNL     1       6.878   4.807  16.965  0.00  0.00    +0.000 C 
ATOM     12  C   UNL     1       7.051   6.264  17.434  0.00  0.00    +0.000 C 
ATOM     13  C   UNL     1       5.971   7.219  16.857  0.00  0.00    +0.000 C 
ATOM     14  C   UNL     1       2.767   6.780  18.667  0.00  0.00    +0.000 A 
ATOM     15  C   UNL     1       1.681   7.558  19.114  0.00  0.00    +0.000 A 
ATOM     16  C   UNL     1       1.553   8.890  18.795  0.00  0.00    +0.000 A 
ATOM     17  C   UNL     1       0.439   9.595  19.316  0.00  0.00    +0.000 A 
ENDROOT
BRANCH  12  18
ATOM     18  O   UNL     1       6.976   6.279  18.866  0.00  0.00    +0.000 OA
ATOM     19  H   UNL     1       7.004   5.337  19.133  0.00  0.00    +0.000 HD
ENDBRANCH  12  18
BRANCH  14  20
ATOM     20  C   UNL     1       2.684   5.338  19.040  0.00  0.00    +0.000 C 
BRANCH  20  21
ATOM     21  N   UNL     1       1.722   4.350  18.530  0.00  0.00    +0.000 NA
ATOM     22  C   UNL     1       1.986   3.204  17.636  0.00  0.00    +0.000 C 
ATOM     23  C   UNL     1       2.090   1.723  18.213  0.00  0.00    +0.000 C 
ATOM     24  O   UNL     1       1.726   1.527  19.606  0.00  0.00    +0.000 OA
ATOM     25  C   UNL     1       2.076   2.697  20.351  0.00  0.00    +0.000 C 
ATOM     26  C   UNL     1       3.628   2.769  20.298  0.00  0.00    +0.000 C 
ATOM     27  C   UNL     1       1.717   2.649  21.837  0.00  0.00    +0.000 C 
ATOM     28  C   UNL     1       1.139   3.789  19.750  0.00  0.00    +0.000 C 
ENDBRANCH  20  21
ENDBRANCH  14  20
TORSDOF 3
ENDMDL
MODEL 6
REMARK VINA RESULT:      -6.8      1.528      4.734
REMARK  Name = 
REMARK  6 active torsions:
REMARK  status: ('A' for Active; 'I' for Inactive)
REMARK    1  A    between atoms: C_1  and  C_2
REMARK    2  A    between atoms: C_12  and  O_13
REMARK    3  A    between atoms: C_15  and  C_16
REMARK    4  A    between atoms: C_16  and  N_17
REMARK    5  A    between atoms: C_21  and  C_22
REMARK    6  A    between atoms: C_21  and  C_23
REMARK                            x       y       z     vdW  Elec       q    Type
REMARK                         _______ _______ _______ _____ _____    ______ ____
ROOT
ATOM      1  C   UNL     1      -0.345  10.308  20.960  0.00  0.00    +0.000 C 
ATOM      2  C   UNL     1       0.531   9.681  19.912  0.00  0.00    +0.000 A 
ATOM      3  C   UNL     1       0.742  10.213  18.647  0.00  0.00    +0.000 A 
ATOM      4  C   UNL     1       1.619   9.560  17.728  0.00  0.00    +0.000 A 
ATOM      5  C   UNL     1       2.347   8.397  18.048  0.00  0.00    +0.000 A 
ATOM      6  N   UNL     1       3.201   7.732  17.191  0.00  0.00    +0.000 NA
ATOM      7  C   UNL     1       3.861   6.595  17.589  0.00  0.00    +0.000 A 
ATOM      8  N   UNL     1       4.611   5.891  16.659  0.00  0.00    +0.000 N 
ATOM      9  C   UNL     1       4.585   4.436  16.462  0.00  0.00    +0.000 C 
ATOM     10  C   UNL     1       6.013   3.902  16.615  0.00  0.00    +0.000 C 
ATOM     11  C   UNL     1       6.928   4.580  15.590  0.00  0.00    +0.000 C 
ATOM     12  C   UNL     1       6.792   6.115  15.618  0.00  0.00    +0.000 C 
ATOM     13  C   UNL     1       5.314   6.591  15.583  0.00  0.00    +0.000 C 
ATOM     14  C   UNL     1       3.744   6.164  18.912  0.00  0.00    +0.000 A 
ATOM     15  C   UNL     1       2.814   6.818  19.744  0.00  0.00    +0.000 A 
ATOM     16  C   UNL     1       2.099   7.915  19.322  0.00  0.00    +0.000 A 
ATOM     17  C   UNL     1       1.206   8.521  20.240  0.00  0.00    +0.000 A 
ENDROOT
BRANCH  12  18
ATOM     18  O   UNL     1       7.411   6.591  16.820  0.00  0.00    +0.000 OA
ATOM     19  H   UNL     1       7.114   7.519  16.909  0.00  0.00    +0.000 HD
ENDBRANCH  12  18
BRANCH  14  20
ATOM     20  C   UNL     1       4.352   4.942  19.515  0.00  0.00    +0.000 C 
BRANCH  20  21
ATOM     21  N   UNL     1       4.039   3.545  19.180  0.00  0.00    +0.000 NA
ATOM     22  C   UNL     1       4.374   2.330  19.951  0.00  0.00    +0.000 C 
ATOM     23  C   UNL     1       3.276   1.597  20.842  0.00  0.00    +0.000 C 
ATOM     24  O   UNL     1       1.903   2.056  20.711  0.00  0.00    +0.000 OA
ATOM     25  C   UNL     1       1.901   3.461  20.443  0.00  0.00    +0.000 C 
ATOM     26  C   UNL     1       2.476   4.125  21.725  0.00  0.00    +0.000 C 
ATOM     27  C   UNL     1       0.516   4.079  20.245  0.00  0.00    +0.000 C 
ATOM     28  C   UNL     1       2.582   3.551  19.043  0.00  0.00    +0.000 C 
ENDBRANCH  20  21
ENDBRANCH  14  20
TORSDOF 3
ENDMDL
MODEL 7
REMARK VINA RESULT:      -6.6      7.213      9.517
REMARK  Name = 
REMARK  6 active torsions:
REMARK  status: ('A' for Active; 'I' for Inactive)
REMARK    1  A    between atoms: C_1  and  C_2
REMARK    2  A    between atoms: C_12  and  O_13
REMARK    3  A    between atoms: C_15  and  C_16
REMARK    4  A    between atoms: C_16  and  N_17
REMARK    5  A    between atoms: C_21  and  C_22
REMARK    6  A    between atoms: C_21  and  C_23
REMARK                            x       y       z     vdW  Elec       q    Type
REMARK                         _______ _______ _______ _____ _____    ______ ____
ROOT
ATOM      1  C   UNL     1      -3.042   9.975  14.624  0.00  0.00    +0.000 C 
ATOM      2  C   UNL     1      -3.348  10.692  15.909  0.00  0.00    +0.000 A 
ATOM      3  C   UNL     1      -4.620  11.083  16.304  0.00  0.00    +0.000 A 
ATOM      4  C   UNL     1      -4.817  11.732  17.561  0.00  0.00    +0.000 A 
ATOM      5  C   UNL     1      -3.775  11.970  18.479  0.00  0.00    +0.000 A 
ATOM      6  N   UNL     1      -3.920  12.596  19.701  0.00  0.00    +0.000 NA
ATOM      7  C   UNL     1      -2.840  12.794  20.528  0.00  0.00    +0.000 A 
ATOM      8  N   UNL     1      -3.007  13.536  21.687  0.00  0.00    +0.000 N 
ATOM      9  C   UNL     1      -2.117  14.606  22.155  0.00  0.00    +0.000 C 
ATOM     10  C   UNL     1      -1.645  14.258  23.571  0.00  0.00    +0.000 C 
ATOM     11  C   UNL     1      -2.859  14.108  24.495  0.00  0.00    +0.000 C 
ATOM     12  C   UNL     1      -3.923  13.164  23.903  0.00  0.00    +0.000 C 
ATOM     13  C   UNL     1      -4.270  13.492  22.426  0.00  0.00    +0.000 C 
ATOM     14  C   UNL     1      -1.599  12.262  20.172  0.00  0.00    +0.000 A 
ATOM     15  C   UNL     1      -1.464  11.690  18.891  0.00  0.00    +0.000 A 
ATOM     16  C   UNL     1      -2.531  11.557  18.033  0.00  0.00    +0.000 A 
ATOM     17  C   UNL     1      -2.302  10.943  16.776  0.00  0.00    +0.000 A 
ENDROOT
BRANCH  12  18
ATOM     18  O   UNL     1      -3.416  11.824  23.981  0.00  0.00    +0.000 OA
ATOM     19  H   UNL     1      -2.526  11.865  23.577  0.00  0.00    +0.000 HD
ENDBRANCH  12  18
BRANCH  14  20
ATOM     20  C   UNL     1      -0.315  12.403  20.918  0.00  0.00    +0.000 C 
BRANCH  20  21
ATOM     21  N   UNL     1       1.033  12.100  20.417  0.00  0.00    +0.000 NA
ATOM     22  C   UNL     1       1.458  11.902  19.016  0.00  0.00    +0.000 C 
ATOM     23  C   UNL     1       2.215  13.055  18.220  0.00  0.00    +0.000 C 
ATOM     24  O   UNL     1       2.636  14.220  18.981  0.00  0.00    +0.000 OA
ATOM     25  C   UNL     1       1.690  14.464  20.026  0.00  0.00    +0.000 C 
ATOM     26  C   UNL     1       0.370  14.853  19.304  0.00  0.00    +0.000 C 
ATOM     27  C   UNL     1       2.025  15.647  20.937  0.00  0.00    +0.000 C 
ATOM     28  C   UNL     1       1.841  13.206  20.935  0.00  0.00    +0.000 C 
ENDBRANCH  20  21
ENDBRANCH  14  20
TORSDOF 3
ENDMDL
MODEL 8
REMARK VINA RESULT:      -6.6      6.844     11.764
REMARK  Name = 
REMARK  6 active torsions:
REMARK  status: ('A' for Active; 'I' for Inactive)
REMARK    1  A    between atoms: C_1  and  C_2
REMARK    2  A    between atoms: C_12  and  O_13
REMARK    3  A    between atoms: C_15  and  C_16
REMARK    4  A    between atoms: C_16  and  N_17
REMARK    5  A    between atoms: C_21  and  C_22
REMARK    6  A    between atoms: C_21  and  C_23
REMARK                            x       y       z     vdW  Elec       q    Type
REMARK                         _______ _______ _______ _____ _____    ______ ____
ROOT
ATOM      1  C   UNL     1       1.748   9.685  18.258  0.00  0.00    +0.000 C 
ATOM      2  C   UNL     1       0.324  10.163  18.323  0.00  0.00    +0.000 A 
ATOM      3  C   UNL     1      -0.696   9.697  17.505  0.00  0.00    +0.000 A 
ATOM      4  C   UNL     1      -2.028  10.190  17.663  0.00  0.00    +0.000 A 
ATOM      5  C   UNL     1      -2.396  11.115  18.659  0.00  0.00    +0.000 A 
ATOM      6  N   UNL     1      -3.668  11.620  18.844  0.00  0.00    +0.000 NA
ATOM      7  C   UNL     1      -3.931  12.530  19.839  0.00  0.00    +0.000 A 
ATOM      8  N   UNL     1      -5.191  13.104  19.911  0.00  0.00    +0.000 N 
ATOM      9  C   UNL     1      -5.472  14.533  20.096  0.00  0.00    +0.000 C 
ATOM     10  C   UNL     1      -6.364  14.695  21.332  0.00  0.00    +0.000 C 
ATOM     11  C   UNL     1      -7.659  13.899  21.139  0.00  0.00    +0.000 C 
ATOM     12  C   UNL     1      -7.386  12.445  20.708  0.00  0.00    +0.000 C 
ATOM     13  C   UNL     1      -6.382  12.342  19.529  0.00  0.00    +0.000 C 
ATOM     14  C   UNL     1      -2.919  12.871  20.739  0.00  0.00    +0.000 A 
ATOM     15  C   UNL     1      -1.617  12.397  20.486  0.00  0.00    +0.000 A 
ATOM     16  C   UNL     1      -1.339  11.541  19.445  0.00  0.00    +0.000 A 
ATOM     17  C   UNL     1      -0.003  11.096  19.287  0.00  0.00    +0.000 A 
ENDROOT
BRANCH  12  18
ATOM     18  O   UNL     1      -6.858  11.741  21.840  0.00  0.00    +0.000 OA
ATOM     19  H   UNL     1      -7.641  11.482  22.367  0.00  0.00    +0.000 HD
ENDBRANCH  12  18
BRANCH  14  20
ATOM     20  C   UNL     1      -3.005  13.860  21.853  0.00  0.00    +0.000 C 
BRANCH  20  21
ATOM     21  N   UNL     1      -2.540  13.673  23.235  0.00  0.00    +0.000 NA
ATOM     22  C   UNL     1      -1.316  14.213  23.862  0.00  0.00    +0.000 C 
ATOM     23  C   UNL     1      -1.382  15.477  24.829  0.00  0.00    +0.000 C 
ATOM     24  O   UNL     1      -2.702  15.948  25.216  0.00  0.00    +0.000 OA
ATOM     25  C   UNL     1      -3.615  15.723  24.138  0.00  0.00    +0.000 C 
ATOM     26  C   UNL     1      -3.128  16.648  22.987  0.00  0.00    +0.000 C 
ATOM     27  C   UNL     1      -5.060  16.139  24.418  0.00  0.00    +0.000 C 
ATOM     28  C   UNL     1      -3.660  14.168  24.037  0.00  0.00    +0.000 C 
ENDBRANCH  20  21
ENDBRANCH  14  20
TORSDOF 3
ENDMDL
MODEL 9
REMARK VINA RESULT:      -6.5      8.008      9.899
REMARK  Name = 
REMARK  6 active torsions:
REMARK  status: ('A' for Active; 'I' for Inactive)
REMARK    1  A    between atoms: C_1  and  C_2
REMARK    2  A    between atoms: C_12  and  O_13
REMARK    3  A    between atoms: C_15  and  C_16
REMARK    4  A    between atoms: C_16  and  N_17
REMARK    5  A    between atoms: C_21  and  C_22
REMARK    6  A    between atoms: C_21  and  C_23
REMARK                            x       y       z     vdW  Elec       q    Type
REMARK                         _______ _______ _______ _____ _____    ______ ____
ROOT
ATOM      1  C   UNL     1      -2.823  10.121  14.827  0.00  0.00    +0.000 C 
ATOM      2  C   UNL     1      -3.306  10.753  16.102  0.00  0.00    +0.000 A 
ATOM      3  C   UNL     1      -4.640  10.843  16.476  0.00  0.00    +0.000 A 
ATOM      4  C   UNL     1      -5.000  11.434  17.726  0.00  0.00    +0.000 A 
ATOM      5  C   UNL     1      -4.055  11.908  18.657  0.00  0.00    +0.000 A 
ATOM      6  N   UNL     1      -4.358  12.489  19.872  0.00  0.00    +0.000 NA
ATOM      7  C   UNL     1      -3.366  12.932  20.713  0.00  0.00    +0.000 A 
ATOM      8  N   UNL     1      -3.717  13.620  21.864  0.00  0.00    +0.000 N 
ATOM      9  C   UNL     1      -3.104  14.868  22.337  0.00  0.00    +0.000 C 
ATOM     10  C   UNL     1      -2.587  14.643  23.762  0.00  0.00    +0.000 C 
ATOM     11  C   UNL     1      -3.748  14.222  24.670  0.00  0.00    +0.000 C 
ATOM     12  C   UNL     1      -4.557  13.056  24.070  0.00  0.00    +0.000 C 
ATOM     13  C   UNL     1      -4.948  13.290  22.586  0.00  0.00    +0.000 C 
ATOM     14  C   UNL     1      -2.030  12.699  20.378  0.00  0.00    +0.000 A 
ATOM     15  C   UNL     1      -1.748  12.168  19.104  0.00  0.00    +0.000 A 
ATOM     16  C   UNL     1      -2.742  11.790  18.231  0.00  0.00    +0.000 A 
ATOM     17  C   UNL     1      -2.359  11.241  16.982  0.00  0.00    +0.000 A 
ENDROOT
BRANCH  12  18
ATOM     18  O   UNL     1      -3.758  11.869  24.164  0.00  0.00    +0.000 OA
ATOM     19  H   UNL     1      -4.218  11.303  24.818  0.00  0.00    +0.000 HD
ENDBRANCH  12  18
BRANCH  14  20
ATOM     20  C   UNL     1      -0.825  13.134  21.142  0.00  0.00    +0.000 C 
BRANCH  20  21
ATOM     21  N   UNL     1      -0.198  14.463  21.116  0.00  0.00    +0.000 NA
ATOM     22  C   UNL     1       0.839  14.995  22.023  0.00  0.00    +0.000 C 
ATOM     23  C   UNL     1       2.364  15.072  21.567  0.00  0.00    +0.000 C 
ATOM     24  O   UNL     1       2.654  14.783  20.173  0.00  0.00    +0.000 OA
ATOM     25  C   UNL     1       1.730  13.801  19.695  0.00  0.00    +0.000 C 
ATOM     26  C   UNL     1       2.051  12.509  20.498  0.00  0.00    +0.000 C 
ATOM     27  C   UNL     1       1.893  13.422  18.222  0.00  0.00    +0.000 C 
ATOM     28  C   UNL     1       0.361  14.545  19.766  0.00  0.00    +0.000 C 
ENDBRANCH  20  21
ENDBRANCH  14  20
TORSDOF 3
ENDMDL
