MODEL 1
REMARK VINA RESULT:      -8.6      0.000      0.000
REMARK  Name = 
REMARK  5 active torsions:
REMARK  status: ('A' for Active; 'I' for Inactive)
REMARK    1  A    between atoms: C_2  and  C_20
REMARK    2  A    between atoms: N_3  and  C_4
REMARK    3  A    between atoms: C_4  and  C_5
REMARK    4  A    between atoms: C_8  and  C_9
REMARK    5  A    between atoms: C_14  and  O_15
REMARK                            x       y       z     vdW  Elec       q    Type
REMARK                         _______ _______ _______ _____ _____    ______ ____
ROOT
ATOM      1  C   UNL     1       5.309   4.672  18.835  0.00  0.00    +0.000 A 
ATOM      2  N   UNL     1       4.559   5.743  18.780  0.00  0.00    +0.000 NA
ATOM      3  N   UNL     1       3.414   5.416  19.455  0.00  0.00    +0.000 N 
ATOM      4  C   UNL     1       2.265   6.097  19.787  0.00  0.00    +0.000 A 
ATOM      5  N   UNL     1       1.492   5.250  20.470  0.00  0.00    +0.000 NA
ATOM      6  N   UNL     1       2.142   4.025  20.592  0.00  0.00    +0.000 NA
ATOM      7  C   UNL     1       3.277   4.178  19.980  0.00  0.00    +0.000 A 
ATOM      8  S   UNL     1       4.666   3.238  19.669  0.00  0.00    +0.000 S 
ENDROOT
BRANCH   4   9
ATOM      9  C   UNL     1       1.975   7.494  19.445  0.00  0.00    +0.000 A 
ATOM     10  C   UNL     1       2.136   7.955  18.126  0.00  0.00    +0.000 A 
ATOM     11  C   UNL     1       1.845   9.278  17.782  0.00  0.00    +0.000 A 
ATOM     12  C   UNL     1       1.375  10.162  18.747  0.00  0.00    +0.000 A 
ATOM     13  C   UNL     1       1.207   9.730  20.061  0.00  0.00    +0.000 A 
ATOM     14  C   UNL     1       1.513   8.409  20.405  0.00  0.00    +0.000 A 
BRANCH  14  15
ATOM     15  O   UNL     1       1.390   8.024  21.713  0.00  0.00    +0.000 OA
ATOM     16  H   UNL     1       0.924   7.175  21.764  0.00  0.00    +0.000 HD
ENDBRANCH  14  15
ENDBRANCH   4   9
BRANCH   1  17
ATOM     17  C   UNL     1       6.684   4.600  18.215  0.00  0.00    +0.000 C 
BRANCH  17  20
ATOM     18  O   UNL     1       7.486   6.273  16.118  0.00  0.00    +0.000 OA
ATOM     19  C   UNL     1       7.008   5.180  15.845  0.00  0.00    +0.000 C 
ATOM     20  N   UNL     1       6.595   4.278  16.803  0.00  0.00    +0.000 N 
ATOM     21  H   UNL     1       6.398   3.322  16.538  0.00  0.00    +0.000 HD
BRANCH  19  22
ATOM     22  C   UNL     1       6.875   4.748  14.429  0.00  0.00    +0.000 A 
ATOM     23  C   UNL     1       5.895   3.800  14.107  0.00  0.00    +0.000 A 
ATOM     24  C   UNL     1       5.758   3.359  12.791  0.00  0.00    +0.000 A 
ATOM     25  C   UNL     1       6.605   3.851  11.798  0.00  0.00    +0.000 A 
ATOM     26  C   UNL     1       7.593   4.781  12.118  0.00  0.00    +0.000 A 
ATOM     27  C   UNL     1       7.732   5.231  13.433  0.00  0.00    +0.000 A 
ENDBRANCH  19  22
ENDBRANCH  17  20
ENDBRANCH   1  17
TORSDOF 5
ENDMDL
MODEL 2
REMARK VINA RESULT:      -8.1      2.702      3.924
REMARK  Name = 
REMARK  5 active torsions:
REMARK  status: ('A' for Active; 'I' for Inactive)
REMARK    1  A    between atoms: C_2  and  C_20
REMARK    2  A    between atoms: N_3  and  C_4
REMARK    3  A    between atoms: C_4  and  C_5
REMARK    4  A    between atoms: C_8  and  C_9
REMARK    5  A    between atoms: C_14  and  O_15
REMARK                            x       y       z     vdW  Elec       q    Type
REMARK                         _______ _______ _______ _____ _____    ______ ____
ROOT
ATOM      1  C   UNL     1       5.733   5.293  16.890  0.00  0.00    +0.000 A 
ATOM      2  N   UNL     1       4.877   4.756  17.722  0.00  0.00    +0.000 NA
ATOM      3  N   UNL     1       4.003   5.760  18.038  0.00  0.00    +0.000 N 
ATOM      4  C   UNL     1       2.871   5.841  18.816  0.00  0.00    +0.000 A 
ATOM      5  N   UNL     1       2.430   7.099  18.736  0.00  0.00    +0.000 NA
ATOM      6  N   UNL     1       3.266   7.830  17.898  0.00  0.00    +0.000 NA
ATOM      7  C   UNL     1       4.177   6.991  17.508  0.00  0.00    +0.000 A 
ATOM      8  S   UNL     1       5.539   7.013  16.481  0.00  0.00    +0.000 S 
ENDROOT
BRANCH   4   9
ATOM      9  C   UNL     1       2.280   4.734  19.576  0.00  0.00    +0.000 A 
ATOM     10  C   UNL     1       2.579   4.563  20.940  0.00  0.00    +0.000 A 
ATOM     11  C   UNL     1       2.009   3.524  21.681  0.00  0.00    +0.000 A 
ATOM     12  C   UNL     1       1.117   2.645  21.076  0.00  0.00    +0.000 A 
ATOM     13  C   UNL     1       0.803   2.793  19.727  0.00  0.00    +0.000 A 
ATOM     14  C   UNL     1       1.388   3.825  18.985  0.00  0.00    +0.000 A 
BRANCH  14  15
ATOM     15  O   UNL     1       1.104   3.917  17.649  0.00  0.00    +0.000 OA
ATOM     16  H   UNL     1       1.928   3.947  17.138  0.00  0.00    +0.000 HD
ENDBRANCH  14  15
ENDBRANCH   4   9
BRANCH   1  17
ATOM     17  C   UNL     1       6.877   4.521  16.278  0.00  0.00    +0.000 C 
BRANCH  17  20
ATOM     18  O   UNL     1       7.227   5.360  13.630  0.00  0.00    +0.000 OA
ATOM     19  C   UNL     1       6.648   4.301  13.837  0.00  0.00    +0.000 C 
ATOM     20  N   UNL     1       6.437   3.794  15.102  0.00  0.00    +0.000 N 
ATOM     21  H   UNL     1       6.139   2.834  15.213  0.00  0.00    +0.000 HD
BRANCH  19  22
ATOM     22  C   UNL     1       6.160   3.475  12.703  0.00  0.00    +0.000 A 
ATOM     23  C   UNL     1       4.827   3.619  12.295  0.00  0.00    +0.000 A 
ATOM     24  C   UNL     1       4.332   2.843  11.247  0.00  0.00    +0.000 A 
ATOM     25  C   UNL     1       5.158   1.914  10.614  0.00  0.00    +0.000 A 
ATOM     26  C   UNL     1       6.480   1.757  11.029  0.00  0.00    +0.000 A 
ATOM     27  C   UNL     1       6.983   2.533  12.075  0.00  0.00    +0.000 A 
ENDBRANCH  19  22
ENDBRANCH  17  20
ENDBRANCH   1  17
TORSDOF 5
ENDMDL
MODEL 3
REMARK VINA RESULT:      -8.1      0.966      1.695
REMARK  Name = 
REMARK  5 active torsions:
REMARK  status: ('A' for Active; 'I' for Inactive)
REMARK    1  A    between atoms: C_2  and  C_20
REMARK    2  A    between atoms: N_3  and  C_4
REMARK    3  A    between atoms: C_4  and  C_5
REMARK    4  A    between atoms: C_8  and  C_9
REMARK    5  A    between atoms: C_14  and  O_15
REMARK                            x       y       z     vdW  Elec       q    Type
REMARK                         _______ _______ _______ _____ _____    ______ ____
ROOT
ATOM      1  C   UNL     1       5.113   4.627  18.996  0.00  0.00    +0.000 A 
ATOM      2  N   UNL     1       4.335   5.669  19.143  0.00  0.00    +0.000 NA
ATOM      3  N   UNL     1       3.198   5.190  19.733  0.00  0.00    +0.000 N 
ATOM      4  C   UNL     1       2.031   5.764  20.181  0.00  0.00    +0.000 A 
ATOM      5  N   UNL     1       1.278   4.782  20.681  0.00  0.00    +0.000 NA
ATOM      6  N   UNL     1       1.959   3.573  20.570  0.00  0.00    +0.000 NA
ATOM      7  C   UNL     1       3.091   3.870  20.007  0.00  0.00    +0.000 A 
ATOM      8  S   UNL     1       4.505   3.043  19.531  0.00  0.00    +0.000 S 
ENDROOT
BRANCH   4   9
ATOM      9  C   UNL     1       1.705   7.193  20.114  0.00  0.00    +0.000 A 
ATOM     10  C   UNL     1       1.234   7.874  21.251  0.00  0.00    +0.000 A 
ATOM     11  C   UNL     1       0.938   9.239  21.207  0.00  0.00    +0.000 A 
ATOM     12  C   UNL     1       1.122   9.953  20.027  0.00  0.00    +0.000 A 
ATOM     13  C   UNL     1       1.588   9.303  18.887  0.00  0.00    +0.000 A 
ATOM     14  C   UNL     1       1.869   7.933  18.931  0.00  0.00    +0.000 A 
BRANCH  14  15
ATOM     15  O   UNL     1       2.275   7.307  17.784  0.00  0.00    +0.000 OA
ATOM     16  H   UNL     1       1.767   7.642  17.029  0.00  0.00    +0.000 HD
ENDBRANCH  14  15
ENDBRANCH   4   9
BRANCH   1  17
ATOM     17  C   UNL     1       6.491   4.711  18.385  0.00  0.00    +0.000 C 
BRANCH  17  20
ATOM     18  O   UNL     1       7.481   6.283  16.290  0.00  0.00    +0.000 OA
ATOM     19  C   UNL     1       6.959   5.209  16.020  0.00  0.00    +0.000 C 
ATOM     20  N   UNL     1       6.452   4.356  16.978  0.00  0.00    +0.000 N 
ATOM     21  H   UNL     1       6.217   3.405  16.727  0.00  0.00    +0.000 HD
BRANCH  19  22
ATOM     22  C   UNL     1       6.870   4.747  14.610  0.00  0.00    +0.000 A 
ATOM     23  C   UNL     1       7.732   5.315  13.664  0.00  0.00    +0.000 A 
ATOM     24  C   UNL     1       7.661   4.918  12.329  0.00  0.00    +0.000 A 
ATOM     25  C   UNL     1       6.721   3.966  11.933  0.00  0.00    +0.000 A 
ATOM     26  C   UNL     1       5.850   3.411  12.869  0.00  0.00    +0.000 A 
ATOM     27  C   UNL     1       5.919   3.801  14.208  0.00  0.00    +0.000 A 
ENDBRANCH  19  22
ENDBRANCH  17  20
ENDBRANCH   1  17
TORSDOF 5
ENDMDL
MODEL 4
REMARK VINA RESULT:      -8.0      2.572      3.741
REMARK  Name = 
REMARK  5 active torsions:
REMARK  status: ('A' for Active; 'I' for Inactive)
REMARK    1  A    between atoms: C_2  and  C_20
REMARK    2  A    between atoms: N_3  and  C_4
REMARK    3  A    between atoms: C_4  and  C_5
REMARK    4  A    between atoms: C_8  and  C_9
REMARK    5  A    between atoms: C_14  and  O_15
REMARK                            x       y       z     vdW  Elec       q    Type
REMARK                         _______ _______ _______ _____ _____    ______ ____
ROOT
ATOM      1  C   UNL     1       5.805   5.241  16.816  0.00  0.00    +0.000 A 
ATOM      2  N   UNL     1       4.833   4.679  17.489  0.00  0.00    +0.000 NA
ATOM      3  N   UNL     1       4.004   5.705  17.850  0.00  0.00    +0.000 N 
ATOM      4  C   UNL     1       2.807   5.784  18.523  0.00  0.00    +0.000 A 
ATOM      5  N   UNL     1       2.465   7.074  18.566  0.00  0.00    +0.000 NA
ATOM      6  N   UNL     1       3.432   7.831  17.910  0.00  0.00    +0.000 NA
ATOM      7  C   UNL     1       4.317   6.973  17.501  0.00  0.00    +0.000 A 
ATOM      8  S   UNL     1       5.775   7.008  16.616  0.00  0.00    +0.000 S 
ENDROOT
BRANCH   4   9
ATOM      9  C   UNL     1       2.065   4.645  19.076  0.00  0.00    +0.000 A 
ATOM     10  C   UNL     1       1.473   3.696  18.223  0.00  0.00    +0.000 A 
ATOM     11  C   UNL     1       0.780   2.595  18.735  0.00  0.00    +0.000 A 
ATOM     12  C   UNL     1       0.678   2.415  20.111  0.00  0.00    +0.000 A 
ATOM     13  C   UNL     1       1.255   3.341  20.977  0.00  0.00    +0.000 A 
ATOM     14  C   UNL     1       1.935   4.449  20.461  0.00  0.00    +0.000 A 
BRANCH  14  15
ATOM     15  O   UNL     1       2.448   5.371  21.333  0.00  0.00    +0.000 OA
ATOM     16  H   UNL     1       1.823   5.522  22.058  0.00  0.00    +0.000 HD
ENDBRANCH  14  15
ENDBRANCH   4   9
BRANCH   1  17
ATOM     17  C   UNL     1       6.949   4.458  16.218  0.00  0.00    +0.000 C 
BRANCH  17  20
ATOM     18  O   UNL     1       7.151   5.360  13.575  0.00  0.00    +0.000 OA
ATOM     19  C   UNL     1       6.647   4.263  13.783  0.00  0.00    +0.000 C 
ATOM     20  N   UNL     1       6.513   3.724  15.045  0.00  0.00    +0.000 N 
ATOM     21  H   UNL     1       6.279   2.745  15.149  0.00  0.00    +0.000 HD
BRANCH  19  22
ATOM     22  C   UNL     1       6.170   3.426  12.652  0.00  0.00    +0.000 A 
ATOM     23  C   UNL     1       4.838   3.557  12.236  0.00  0.00    +0.000 A 
ATOM     24  C   UNL     1       4.354   2.772  11.190  0.00  0.00    +0.000 A 
ATOM     25  C   UNL     1       5.190   1.846  10.567  0.00  0.00    +0.000 A 
ATOM     26  C   UNL     1       6.511   1.701  10.989  0.00  0.00    +0.000 A 
ATOM     27  C   UNL     1       7.004   2.488  12.033  0.00  0.00    +0.000 A 
ENDBRANCH  19  22
ENDBRANCH  17  20
ENDBRANCH   1  17
TORSDOF 5
ENDMDL
MODEL 5
REMARK VINA RESULT:      -8.0      3.150      8.148
REMARK  Name = 
REMARK  5 active torsions:
REMARK  status: ('A' for Active; 'I' for Inactive)
REMARK    1  A    between atoms: C_2  and  C_20
REMARK    2  A    between atoms: N_3  and  C_4
REMARK    3  A    between atoms: C_4  and  C_5
REMARK    4  A    between atoms: C_8  and  C_9
REMARK    5  A    between atoms: C_14  and  O_15
REMARK                            x       y       z     vdW  Elec       q    Type
REMARK                         _______ _______ _______ _____ _____    ______ ____
ROOT
ATOM      1  C   UNL     1       2.396   8.278  18.580  0.00  0.00    +0.000 A 
ATOM      2  N   UNL     1       3.303   7.511  18.033  0.00  0.00    +0.000 NA
ATOM      3  N   UNL     1       3.310   6.368  18.784  0.00  0.00    +0.000 N 
ATOM      4  C   UNL     1       3.994   5.175  18.716  0.00  0.00    +0.000 A 
ATOM      5  N   UNL     1       3.570   4.422  19.734  0.00  0.00    +0.000 NA
ATOM      6  N   UNL     1       2.605   5.119  20.455  0.00  0.00    +0.000 NA
ATOM      7  C   UNL     1       2.485   6.262  19.850  0.00  0.00    +0.000 A 
ATOM      8  S   UNL     1       1.544   7.674  20.021  0.00  0.00    +0.000 S 
ENDROOT
BRANCH   4   9
ATOM      9  C   UNL     1       4.991   4.823  17.699  0.00  0.00    +0.000 A 
ATOM     10  C   UNL     1       4.595   4.520  16.384  0.00  0.00    +0.000 A 
ATOM     11  C   UNL     1       5.535   4.202  15.400  0.00  0.00    +0.000 A 
ATOM     12  C   UNL     1       6.892   4.195  15.709  0.00  0.00    +0.000 A 
ATOM     13  C   UNL     1       7.310   4.492  17.004  0.00  0.00    +0.000 A 
ATOM     14  C   UNL     1       6.365   4.795  17.990  0.00  0.00    +0.000 A 
BRANCH  14  15
ATOM     15  O   UNL     1       6.798   5.032  19.267  0.00  0.00    +0.000 OA
ATOM     16  H   UNL     1       7.630   4.560  19.425  0.00  0.00    +0.000 HD
ENDBRANCH  14  15
ENDBRANCH   4   9
BRANCH   1  17
ATOM     17  C   UNL     1       2.053   9.651  18.052  0.00  0.00    +0.000 C 
BRANCH  17  20
ATOM     18  O   UNL     1       0.362  11.569  19.193  0.00  0.00    +0.000 OA
ATOM     19  C   UNL     1      -0.121  10.743  18.428  0.00  0.00    +0.000 C 
ATOM     20  N   UNL     1       0.628   9.766  17.805  0.00  0.00    +0.000 N 
ATOM     21  H   UNL     1       0.228   9.241  17.039  0.00  0.00    +0.000 HD
BRANCH  19  22
ATOM     22  C   UNL     1      -1.570  10.773  18.103  0.00  0.00    +0.000 A 
ATOM     23  C   UNL     1      -2.404  11.626  18.837  0.00  0.00    +0.000 A 
ATOM     24  C   UNL     1      -3.772  11.663  18.570  0.00  0.00    +0.000 A 
ATOM     25  C   UNL     1      -4.314  10.841  17.582  0.00  0.00    +0.000 A 
ATOM     26  C   UNL     1      -3.490   9.978  16.861  0.00  0.00    +0.000 A 
ATOM     27  C   UNL     1      -2.117   9.939  17.120  0.00  0.00    +0.000 A 
ENDBRANCH  19  22
ENDBRANCH  17  20
ENDBRANCH   1  17
TORSDOF 5
ENDMDL
MODEL 6
REMARK VINA RESULT:      -7.9      3.244      8.096
REMARK  Name = 
REMARK  5 active torsions:
REMARK  status: ('A' for Active; 'I' for Inactive)
REMARK    1  A    between atoms: C_2  and  C_20
REMARK    2  A    between atoms: N_3  and  C_4
REMARK    3  A    between atoms: C_4  and  C_5
REMARK    4  A    between atoms: C_8  and  C_9
REMARK    5  A    between atoms: C_14  and  O_15
REMARK                            x       y       z     vdW  Elec       q    Type
REMARK                         _______ _______ _______ _____ _____    ______ ____
ROOT
ATOM      1  C   UNL     1       2.233   8.378  18.738  0.00  0.00    +0.000 A 
ATOM      2  N   UNL     1       3.170   7.612  18.238  0.00  0.00    +0.000 NA
ATOM      3  N   UNL     1       3.139   6.468  18.987  0.00  0.00    +0.000 N 
ATOM      4  C   UNL     1       3.826   5.276  18.954  0.00  0.00    +0.000 A 
ATOM      5  N   UNL     1       3.350   4.522  19.947  0.00  0.00    +0.000 NA
ATOM      6  N   UNL     1       2.347   5.216  20.617  0.00  0.00    +0.000 NA
ATOM      7  C   UNL     1       2.257   6.359  20.007  0.00  0.00    +0.000 A 
ATOM      8  S   UNL     1       1.307   7.770  20.130  0.00  0.00    +0.000 S 
ENDROOT
BRANCH   4   9
ATOM      9  C   UNL     1       4.877   4.928  17.992  0.00  0.00    +0.000 A 
ATOM     10  C   UNL     1       4.552   4.616  16.659  0.00  0.00    +0.000 A 
ATOM     11  C   UNL     1       5.543   4.300  15.727  0.00  0.00    +0.000 A 
ATOM     12  C   UNL     1       6.882   4.304  16.105  0.00  0.00    +0.000 A 
ATOM     13  C   UNL     1       7.231   4.610  17.419  0.00  0.00    +0.000 A 
ATOM     14  C   UNL     1       6.234   4.911  18.353  0.00  0.00    +0.000 A 
BRANCH  14  15
ATOM     15  O   UNL     1       6.600   5.156  19.649  0.00  0.00    +0.000 OA
ATOM     16  H   UNL     1       5.995   4.698  20.254  0.00  0.00    +0.000 HD
ENDBRANCH  14  15
ENDBRANCH   4   9
BRANCH   1  17
ATOM     17  C   UNL     1       1.918   9.750  18.194  0.00  0.00    +0.000 C 
BRANCH  17  20
ATOM     18  O   UNL     1       0.047  11.500  19.326  0.00  0.00    +0.000 OA
ATOM     19  C   UNL     1      -0.324  10.735  18.444  0.00  0.00    +0.000 C 
ATOM     20  N   UNL     1       0.520   9.845  17.815  0.00  0.00    +0.000 N 
ATOM     21  H   UNL     1       0.219   9.383  16.967  0.00  0.00    +0.000 HD
BRANCH  19  22
ATOM     22  C   UNL     1      -1.735  10.751  17.978  0.00  0.00    +0.000 A 
ATOM     23  C   UNL     1      -2.080   9.981  16.859  0.00  0.00    +0.000 A 
ATOM     24  C   UNL     1      -3.391   9.990  16.384  0.00  0.00    +0.000 A 
ATOM     25  C   UNL     1      -4.356  10.777  17.013  0.00  0.00    +0.000 A 
ATOM     26  C   UNL     1      -4.013  11.558  18.116  0.00  0.00    +0.000 A 
ATOM     27  C   UNL     1      -2.702  11.549  18.600  0.00  0.00    +0.000 A 
ENDBRANCH  19  22
ENDBRANCH  17  20
ENDBRANCH   1  17
TORSDOF 5
ENDMDL
MODEL 7
REMARK VINA RESULT:      -7.9      1.471      8.064
REMARK  Name = 
REMARK  5 active torsions:
REMARK  status: ('A' for Active; 'I' for Inactive)
REMARK    1  A    between atoms: C_2  and  C_20
REMARK    2  A    between atoms: N_3  and  C_4
REMARK    3  A    between atoms: C_4  and  C_5
REMARK    4  A    between atoms: C_8  and  C_9
REMARK    5  A    between atoms: C_14  and  O_15
REMARK                            x       y       z     vdW  Elec       q    Type
REMARK                         _______ _______ _______ _____ _____    ______ ____
ROOT
ATOM      1  C   UNL     1       3.955   4.874  17.876  0.00  0.00    +0.000 A 
ATOM      2  N   UNL     1       4.423   4.738  16.662  0.00  0.00    +0.000 NA
ATOM      3  N   UNL     1       5.780   4.652  16.806  0.00  0.00    +0.000 N 
ATOM      4  C   UNL     1       6.831   4.465  15.936  0.00  0.00    +0.000 A 
ATOM      5  N   UNL     1       7.948   4.460  16.667  0.00  0.00    +0.000 NA
ATOM      6  N   UNL     1       7.623   4.631  18.010  0.00  0.00    +0.000 NA
ATOM      7  C   UNL     1       6.330   4.735  18.038  0.00  0.00    +0.000 A 
ATOM      8  S   UNL     1       5.117   4.929  19.222  0.00  0.00    +0.000 S 
ENDROOT
BRANCH   4   9
ATOM      9  C   UNL     1       6.713   4.300  14.483  0.00  0.00    +0.000 A 
ATOM     10  C   UNL     1       5.744   3.439  13.938  0.00  0.00    +0.000 A 
ATOM     11  C   UNL     1       5.607   3.286  12.555  0.00  0.00    +0.000 A 
ATOM     12  C   UNL     1       6.429   4.002  11.691  0.00  0.00    +0.000 A 
ATOM     13  C   UNL     1       7.397   4.861  12.206  0.00  0.00    +0.000 A 
ATOM     14  C   UNL     1       7.540   5.001  13.590  0.00  0.00    +0.000 A 
BRANCH  14  15
ATOM     15  O   UNL     1       8.534   5.811  14.071  0.00  0.00    +0.000 OA
ATOM     16  H   UNL     1       8.336   6.736  13.859  0.00  0.00    +0.000 HD
ENDBRANCH  14  15
ENDBRANCH   4   9
BRANCH   1  17
ATOM     17  C   UNL     1       2.481   4.996  18.179  0.00  0.00    +0.000 C 
BRANCH  17  20
ATOM     18  O   UNL     1       1.921   5.932  20.758  0.00  0.00    +0.000 OA
ATOM     19  C   UNL     1       1.867   6.722  19.824  0.00  0.00    +0.000 C 
ATOM     20  N   UNL     1       2.137   6.365  18.520  0.00  0.00    +0.000 N 
ATOM     21  H   UNL     1       2.275   7.084  17.822  0.00  0.00    +0.000 HD
BRANCH  19  22
ATOM     22  C   UNL     1       1.529   8.149  20.062  0.00  0.00    +0.000 A 
ATOM     23  C   UNL     1       1.225   8.556  21.368  0.00  0.00    +0.000 A 
ATOM     24  C   UNL     1       0.884   9.885  21.622  0.00  0.00    +0.000 A 
ATOM     25  C   UNL     1       0.830  10.804  20.575  0.00  0.00    +0.000 A 
ATOM     26  C   UNL     1       1.115  10.398  19.272  0.00  0.00    +0.000 A 
ATOM     27  C   UNL     1       1.462   9.071  19.011  0.00  0.00    +0.000 A 
ENDBRANCH  19  22
ENDBRANCH  17  20
ENDBRANCH   1  17
TORSDOF 5
ENDMDL
MODEL 8
REMARK VINA RESULT:      -7.8      0.893      1.124
REMARK  Name = 
REMARK  5 active torsions:
REMARK  status: ('A' for Active; 'I' for Inactive)
REMARK    1  A    between atoms: C_2  and  C_20
REMARK    2  A    between atoms: N_3  and  C_4
REMARK    3  A    between atoms: C_4  and  C_5
REMARK    4  A    between atoms: C_8  and  C_9
REMARK    5  A    between atoms: C_14  and  O_15
REMARK                            x       y       z     vdW  Elec       q    Type
REMARK                         _______ _______ _______ _____ _____    ______ ____
ROOT
ATOM      1  C   UNL     1       5.268   5.026  18.003  0.00  0.00    +0.000 A 
ATOM      2  N   UNL     1       4.462   6.051  18.114  0.00  0.00    +0.000 NA
ATOM      3  N   UNL     1       3.548   5.689  19.065  0.00  0.00    +0.000 N 
ATOM      4  C   UNL     1       2.479   6.319  19.661  0.00  0.00    +0.000 A 
ATOM      5  N   UNL     1       1.957   5.459  20.537  0.00  0.00    +0.000 NA
ATOM      6  N   UNL     1       2.692   4.276  20.520  0.00  0.00    +0.000 NA
ATOM      7  C   UNL     1       3.624   4.467  19.637  0.00  0.00    +0.000 A 
ATOM      8  S   UNL     1       4.946   3.592  19.006  0.00  0.00    +0.000 S 
ENDROOT
BRANCH   4   9
ATOM      9  C   UNL     1       2.026   7.684  19.370  0.00  0.00    +0.000 A 
ATOM     10  C   UNL     1       2.074   8.189  18.059  0.00  0.00    +0.000 A 
ATOM     11  C   UNL     1       1.628   9.480  17.764  0.00  0.00    +0.000 A 
ATOM     12  C   UNL     1       1.112  10.287  18.773  0.00  0.00    +0.000 A 
ATOM     13  C   UNL     1       1.053   9.810  20.080  0.00  0.00    +0.000 A 
ATOM     14  C   UNL     1       1.514   8.523  20.374  0.00  0.00    +0.000 A 
BRANCH  14  15
ATOM     15  O   UNL     1       1.494   8.097  21.676  0.00  0.00    +0.000 OA
ATOM     16  H   UNL     1       0.704   8.438  22.121  0.00  0.00    +0.000 HD
ENDBRANCH  14  15
ENDBRANCH   4   9
BRANCH   1  17
ATOM     17  C   UNL     1       6.444   5.004  17.056  0.00  0.00    +0.000 C 
BRANCH  17  20
ATOM     18  O   UNL     1       7.622   5.520  14.569  0.00  0.00    +0.000 OA
ATOM     19  C   UNL     1       6.723   4.690  14.631  0.00  0.00    +0.000 C 
ATOM     20  N   UNL     1       6.088   4.354  15.808  0.00  0.00    +0.000 N 
ATOM     21  H   UNL     1       5.502   3.531  15.844  0.00  0.00    +0.000 HD
BRANCH  19  22
ATOM     22  C   UNL     1       6.283   3.963  13.412  0.00  0.00    +0.000 A 
ATOM     23  C   UNL     1       4.913   3.897  13.129  0.00  0.00    +0.000 A 
ATOM     24  C   UNL     1       4.466   3.206  12.003  0.00  0.00    +0.000 A 
ATOM     25  C   UNL     1       5.381   2.567  11.167  0.00  0.00    +0.000 A 
ATOM     26  C   UNL     1       6.745   2.616  11.455  0.00  0.00    +0.000 A 
ATOM     27  C   UNL     1       7.199   3.311  12.578  0.00  0.00    +0.000 A 
ENDBRANCH  19  22
ENDBRANCH  17  20
ENDBRANCH   1  17
TORSDOF 5
ENDMDL
MODEL 9
REMARK VINA RESULT:      -7.7      3.605      4.755
REMARK  Name = 
REMARK  5 active torsions:
REMARK  status: ('A' for Active; 'I' for Inactive)
REMARK    1  A    between atoms: C_2  and  C_20
REMARK    2  A    between atoms: N_3  and  C_4
REMARK    3  A    between atoms: C_4  and  C_5
REMARK    4  A    between atoms: C_8  and  C_9
REMARK    5  A    between atoms: C_14  and  O_15
REMARK                            x       y       z     vdW  Elec       q    Type
REMARK                         _______ _______ _______ _____ _____    ______ ____
ROOT
ATOM      1  C   UNL     1       5.772   6.140  17.597  0.00  0.00    +0.000 A 
ATOM      2  N   UNL     1       4.777   6.956  17.835  0.00  0.00    +0.000 NA
ATOM      3  N   UNL     1       3.922   6.256  18.642  0.00  0.00    +0.000 N 
ATOM      4  C   UNL     1       2.732   6.550  19.267  0.00  0.00    +0.000 A 
ATOM      5  N   UNL     1       2.362   5.457  19.939  0.00  0.00    +0.000 NA
ATOM      6  N   UNL     1       3.316   4.458  19.760  0.00  0.00    +0.000 NA
ATOM      7  C   UNL     1       4.220   4.984  18.989  0.00  0.00    +0.000 A 
ATOM      8  S   UNL     1       5.707   4.508  18.303  0.00  0.00    +0.000 S 
ENDROOT
BRANCH   4   9
ATOM      9  C   UNL     1       2.028   7.835  19.196  0.00  0.00    +0.000 A 
ATOM     10  C   UNL     1       1.841   8.480  17.960  0.00  0.00    +0.000 A 
ATOM     11  C   UNL     1       1.156   9.695  17.875  0.00  0.00    +0.000 A 
ATOM     12  C   UNL     1       0.632  10.282  19.022  0.00  0.00    +0.000 A 
ATOM     13  C   UNL     1       0.803   9.663  20.258  0.00  0.00    +0.000 A 
ATOM     14  C   UNL     1       1.502   8.454  20.342  0.00  0.00    +0.000 A 
BRANCH  14  15
ATOM     15  O   UNL     1       1.702   7.894  21.575  0.00  0.00    +0.000 OA
ATOM     16  H   UNL     1       1.056   8.246  22.206  0.00  0.00    +0.000 HD
ENDBRANCH  14  15
ENDBRANCH   4   9
BRANCH   1  17
ATOM     17  C   UNL     1       6.959   6.519  16.744  0.00  0.00    +0.000 C 
BRANCH  17  20
ATOM     18  O   UNL     1       8.551   7.253  18.926  0.00  0.00    +0.000 OA
ATOM     19  C   UNL     1       8.175   8.127  18.155  0.00  0.00    +0.000 C 
ATOM     20  N   UNL     1       7.400   7.868  17.044  0.00  0.00    +0.000 N 
ATOM     21  H   UNL     1       7.284   8.582  16.337  0.00  0.00    +0.000 HD
BRANCH  19  22
ATOM     22  C   UNL     1       8.573   9.543  18.368  0.00  0.00    +0.000 A 
ATOM     23  C   UNL     1       9.343   9.860  19.495  0.00  0.00    +0.000 A 
ATOM     24  C   UNL     1       9.716  11.183  19.735  0.00  0.00    +0.000 A 
ATOM     25  C   UNL     1       9.310  12.192  18.861  0.00  0.00    +0.000 A 
ATOM     26  C   UNL     1       8.529  11.882  17.748  0.00  0.00    +0.000 A 
ATOM     27  C   UNL     1       8.156  10.559  17.500  0.00  0.00    +0.000 A 
ENDBRANCH  19  22
ENDBRANCH  17  20
ENDBRANCH   1  17
TORSDOF 5
ENDMDL
