MODEL 1
REMARK VINA RESULT:      -7.6      0.000      0.000
REMARK  Name = 
REMARK  7 active torsions:
REMARK  status: ('A' for Active; 'I' for Inactive)
REMARK    1  A    between atoms: C_1  and  N_2
REMARK    2  A    between atoms: C_4  and  C_5
REMARK    3  A    between atoms: C_6  and  C_7
REMARK    4  A    between atoms: C_7  and  C_9
REMARK    5  A    between atoms: C_17  and  C_18
REMARK    6  A    between atoms: C_19  and  C_20
REMARK    7  A    between atoms: N_22  and  O_23
REMARK                            x       y       z     vdW  Elec       q    Type
REMARK                         _______ _______ _______ _____ _____    ______ ____
ROOT
ATOM      1  C   UNL     1       3.256   3.722  17.798  0.00  0.00    +0.000 C 
ATOM      2  N   UNL     1       3.338   5.169  17.776  0.00  0.00    +0.000 N 
ATOM      3  C   UNL     1       2.427   5.977  18.419  0.00  0.00    +0.000 A 
ATOM      4  C   UNL     1       2.776   7.288  18.197  0.00  0.00    +0.000 A 
ATOM      5  C   UNL     1       3.940   7.268  17.392  0.00  0.00    +0.000 A 
ATOM      6  C   UNL     1       4.287   5.950  17.136  0.00  0.00    +0.000 A 
ENDROOT
BRANCH   4   7
ATOM      7  C   UNL     1       2.054   8.410  18.705  0.00  0.00    +0.000 C 
ATOM      8  C   UNL     1       1.260   9.199  17.964  0.00  0.00    +0.000 C 
BRANCH   8   9
ATOM      9  C   UNL     1       0.526  10.337  18.577  0.00  0.00    +0.000 C 
ATOM     10  O   UNL     1       1.074  11.154  19.306  0.00  0.00    +0.000 OA
BRANCH   9  11
ATOM     11  C   UNL     1      -0.913  10.477  18.228  0.00  0.00    +0.000 A 
ATOM     12  C   UNL     1      -1.480   9.792  17.141  0.00  0.00    +0.000 A 
ATOM     13  C   UNL     1      -2.833   9.950  16.839  0.00  0.00    +0.000 A 
ATOM     14  C   UNL     1      -3.627  10.784  17.626  0.00  0.00    +0.000 A 
ATOM     15  C   UNL     1      -3.068  11.448  18.718  0.00  0.00    +0.000 A 
ATOM     16 CL   UNL     1      -4.059  12.468  19.686  0.00  0.00    +0.000 Cl
ATOM     17  C   UNL     1      -1.718  11.295  19.028  0.00  0.00    +0.000 A 
ENDBRANCH   9  11
ENDBRANCH   8   9
ENDBRANCH   4   7
BRANCH   6  18
ATOM     18  C   UNL     1       5.356   5.364  16.398  0.00  0.00    +0.000 C 
ATOM     19  C   UNL     1       5.349   5.369  15.053  0.00  0.00    +0.000 C 
BRANCH  19  20
ATOM     20  C   UNL     1       6.464   4.760  14.290  0.00  0.00    +0.000 C 
ATOM     21  O   UNL     1       7.630   5.129  14.379  0.00  0.00    +0.000 OA
ATOM     22  N   UNL     1       6.067   3.738  13.469  0.00  0.00    +0.000 N 
ATOM     23  H   UNL     1       5.119   3.398  13.354  0.00  0.00    +0.000 HD
BRANCH  22  24
ATOM     24  O   UNL     1       7.070   3.105  12.703  0.00  0.00    +0.000 OA
ATOM     25  H   UNL     1       6.998   2.170  12.995  0.00  0.00    +0.000 HD
ENDBRANCH  22  24
ENDBRANCH  19  20
ENDBRANCH   6  18
TORSDOF 6
ENDMDL
MODEL 2
REMARK VINA RESULT:      -7.5      6.902      9.237
REMARK  Name = 
REMARK  7 active torsions:
REMARK  status: ('A' for Active; 'I' for Inactive)
REMARK    1  A    between atoms: C_1  and  N_2
REMARK    2  A    between atoms: C_4  and  C_5
REMARK    3  A    between atoms: C_6  and  C_7
REMARK    4  A    between atoms: C_7  and  C_9
REMARK    5  A    between atoms: C_17  and  C_18
REMARK    6  A    between atoms: C_19  and  C_20
REMARK    7  A    between atoms: N_22  and  O_23
REMARK                            x       y       z     vdW  Elec       q    Type
REMARK                         _______ _______ _______ _____ _____    ______ ____
ROOT
ATOM      1  C   UNL     1       9.944  11.046  20.547  0.00  0.00    +0.000 C 
ATOM      2  N   UNL     1       9.288  10.534  19.361  0.00  0.00    +0.000 N 
ATOM      3  C   UNL     1       8.876   9.225  19.242  0.00  0.00    +0.000 A 
ATOM      4  C   UNL     1       8.304   9.061  18.003  0.00  0.00    +0.000 A 
ATOM      5  C   UNL     1       8.374  10.316  17.352  0.00  0.00    +0.000 A 
ATOM      6  C   UNL     1       8.983  11.229  18.201  0.00  0.00    +0.000 A 
ENDROOT
BRANCH   4   7
ATOM      7  C   UNL     1       7.768   7.829  17.522  0.00  0.00    +0.000 C 
ATOM      8  C   UNL     1       7.675   6.706  18.252  0.00  0.00    +0.000 C 
BRANCH   8   9
ATOM      9  C   UNL     1       7.083   5.468  17.680  0.00  0.00    +0.000 C 
ATOM     10  O   UNL     1       7.769   4.569  17.211  0.00  0.00    +0.000 OA
BRANCH   9  11
ATOM     11  C   UNL     1       5.602   5.339  17.741  0.00  0.00    +0.000 A 
ATOM     12  C   UNL     1       4.765   6.464  17.814  0.00  0.00    +0.000 A 
ATOM     13  C   UNL     1       3.379   6.306  17.875  0.00  0.00    +0.000 A 
ATOM     14  C   UNL     1       2.825   5.027  17.853  0.00  0.00    +0.000 A 
ATOM     15  C   UNL     1       3.656   3.910  17.759  0.00  0.00    +0.000 A 
ATOM     16 CL   UNL     1       2.961   2.337  17.725  0.00  0.00    +0.000 Cl
ATOM     17  C   UNL     1       5.041   4.058  17.696  0.00  0.00    +0.000 A 
ENDBRANCH   9  11
ENDBRANCH   8   9
ENDBRANCH   4   7
BRANCH   6  18
ATOM     18  C   UNL     1       9.295  12.612  18.059  0.00  0.00    +0.000 C 
ATOM     19  C   UNL     1      10.549  13.010  17.782  0.00  0.00    +0.000 C 
BRANCH  19  20
ATOM     20  C   UNL     1      10.869  14.450  17.634  0.00  0.00    +0.000 C 
ATOM     21  O   UNL     1      11.138  15.187  18.577  0.00  0.00    +0.000 OA
ATOM     22  N   UNL     1      10.838  14.884  16.335  0.00  0.00    +0.000 N 
ATOM     23  H   UNL     1      10.617  14.320  15.522  0.00  0.00    +0.000 HD
BRANCH  22  24
ATOM     24  O   UNL     1      11.129  16.246  16.107  0.00  0.00    +0.000 OA
ATOM     25  H   UNL     1      10.235  16.635  15.992  0.00  0.00    +0.000 HD
ENDBRANCH  22  24
ENDBRANCH  19  20
ENDBRANCH   6  18
TORSDOF 6
ENDMDL
MODEL 3
REMARK VINA RESULT:      -7.4      2.559      3.183
REMARK  Name = 
REMARK  7 active torsions:
REMARK  status: ('A' for Active; 'I' for Inactive)
REMARK    1  A    between atoms: C_1  and  N_2
REMARK    2  A    between atoms: C_4  and  C_5
REMARK    3  A    between atoms: C_6  and  C_7
REMARK    4  A    between atoms: C_7  and  C_9
REMARK    5  A    between atoms: C_17  and  C_18
REMARK    6  A    between atoms: C_19  and  C_20
REMARK    7  A    between atoms: N_22  and  O_23
REMARK                            x       y       z     vdW  Elec       q    Type
REMARK                         _______ _______ _______ _____ _____    ______ ____
ROOT
ATOM      1  C   UNL     1       5.585   6.217  16.638  0.00  0.00    +0.000 C 
ATOM      2  N   UNL     1       4.337   6.664  17.225  0.00  0.00    +0.000 N 
ATOM      3  C   UNL     1       3.910   7.972  17.161  0.00  0.00    +0.000 A 
ATOM      4  C   UNL     1       2.705   8.067  17.817  0.00  0.00    +0.000 A 
ATOM      5  C   UNL     1       2.396   6.770  18.291  0.00  0.00    +0.000 A 
ATOM      6  C   UNL     1       3.411   5.901  17.918  0.00  0.00    +0.000 A 
ENDROOT
BRANCH   4   7
ATOM      7  C   UNL     1       1.963   9.277  17.962  0.00  0.00    +0.000 C 
ATOM      8  C   UNL     1       0.724   9.350  18.474  0.00  0.00    +0.000 C 
BRANCH   8   9
ATOM      9  C   UNL     1       0.028  10.657  18.609  0.00  0.00    +0.000 C 
ATOM     10  O   UNL     1       0.592  11.661  19.024  0.00  0.00    +0.000 OA
BRANCH   9  11
ATOM     11  C   UNL     1      -1.392  10.712  18.169  0.00  0.00    +0.000 A 
ATOM     12  C   UNL     1      -1.853   9.975  17.065  0.00  0.00    +0.000 A 
ATOM     13  C   UNL     1      -3.191  10.055  16.677  0.00  0.00    +0.000 A 
ATOM     14  C   UNL     1      -4.075  10.860  17.393  0.00  0.00    +0.000 A 
ATOM     15  C   UNL     1      -3.622  11.576  18.501  0.00  0.00    +0.000 A 
ATOM     16 CL   UNL     1      -4.723  12.562  19.382  0.00  0.00    +0.000 Cl
ATOM     17  C   UNL     1      -2.287  11.502  18.898  0.00  0.00    +0.000 A 
ENDBRANCH   9  11
ENDBRANCH   8   9
ENDBRANCH   4   7
BRANCH   6  18
ATOM     18  C   UNL     1       3.604   4.505  18.124  0.00  0.00    +0.000 C 
ATOM     19  C   UNL     1       4.199   4.048  19.240  0.00  0.00    +0.000 C 
BRANCH  19  20
ATOM     20  C   UNL     1       4.396   2.594  19.451  0.00  0.00    +0.000 C 
ATOM     21  O   UNL     1       4.857   2.113  20.480  0.00  0.00    +0.000 OA
ATOM     22  N   UNL     1       4.011   1.832  18.380  0.00  0.00    +0.000 N 
ATOM     23  H   UNL     1       3.629   2.177  17.507  0.00  0.00    +0.000 HD
BRANCH  22  24
ATOM     24  O   UNL     1       4.168   0.434  18.499  0.00  0.00    +0.000 OA
ATOM     25  H   UNL     1       3.250   0.108  18.379  0.00  0.00    +0.000 HD
ENDBRANCH  22  24
ENDBRANCH  19  20
ENDBRANCH   6  18
TORSDOF 6
ENDMDL
MODEL 4
REMARK VINA RESULT:      -7.4      3.039      3.766
REMARK  Name = 
REMARK  7 active torsions:
REMARK  status: ('A' for Active; 'I' for Inactive)
REMARK    1  A    between atoms: C_1  and  N_2
REMARK    2  A    between atoms: C_4  and  C_5
REMARK    3  A    between atoms: C_6  and  C_7
REMARK    4  A    between atoms: C_7  and  C_9
REMARK    5  A    between atoms: C_17  and  C_18
REMARK    6  A    between atoms: C_19  and  C_20
REMARK    7  A    between atoms: N_22  and  O_23
REMARK                            x       y       z     vdW  Elec       q    Type
REMARK                         _______ _______ _______ _____ _____    ______ ____
ROOT
ATOM      1  C   UNL     1       4.864   6.511  16.781  0.00  0.00    +0.000 C 
ATOM      2  N   UNL     1       3.784   7.007  17.610  0.00  0.00    +0.000 N 
ATOM      3  C   UNL     1       3.194   8.235  17.410  0.00  0.00    +0.000 A 
ATOM      4  C   UNL     1       2.218   8.408  18.363  0.00  0.00    +0.000 A 
ATOM      5  C   UNL     1       2.220   7.242  19.164  0.00  0.00    +0.000 A 
ATOM      6  C   UNL     1       3.192   6.373  18.691  0.00  0.00    +0.000 A 
ENDROOT
BRANCH   4   7
ATOM      7  C   UNL     1       1.399   9.572  18.472  0.00  0.00    +0.000 C 
ATOM      8  C   UNL     1       0.092   9.553  18.777  0.00  0.00    +0.000 C 
BRANCH   8   9
ATOM      9  C   UNL     1      -0.686  10.815  18.891  0.00  0.00    +0.000 C 
ATOM     10  O   UNL     1      -0.322  11.748  19.595  0.00  0.00    +0.000 OA
BRANCH   9  11
ATOM     11  C   UNL     1      -1.919  10.923  18.067  0.00  0.00    +0.000 A 
ATOM     12  C   UNL     1      -3.101  11.486  18.576  0.00  0.00    +0.000 A 
ATOM     13  C   UNL     1      -4.242  11.567  17.776  0.00  0.00    +0.000 A 
ATOM     14  C   UNL     1      -4.206  11.096  16.465  0.00  0.00    +0.000 A 
ATOM     15  C   UNL     1      -3.026  10.556  15.953  0.00  0.00    +0.000 A 
ATOM     16 CL   UNL     1      -2.990   9.984  14.330  0.00  0.00    +0.000 Cl
ATOM     17  C   UNL     1      -1.880  10.472  16.743  0.00  0.00    +0.000 A 
ENDBRANCH   9  11
ENDBRANCH   8   9
ENDBRANCH   4   7
BRANCH   6  18
ATOM     18  C   UNL     1       3.610   5.077  19.112  0.00  0.00    +0.000 C 
ATOM     19  C   UNL     1       3.125   3.971  18.521  0.00  0.00    +0.000 C 
BRANCH  19  20
ATOM     20  C   UNL     1       3.564   2.626  18.962  0.00  0.00    +0.000 C 
ATOM     21  O   UNL     1       2.901   1.607  18.797  0.00  0.00    +0.000 OA
ATOM     22  N   UNL     1       4.790   2.626  19.574  0.00  0.00    +0.000 N 
ATOM     23  H   UNL     1       5.375   3.436  19.739  0.00  0.00    +0.000 HD
BRANCH  22  24
ATOM     24  O   UNL     1       5.280   1.381  20.026  0.00  0.00    +0.000 OA
ATOM     25  H   UNL     1       4.532   0.777  19.827  0.00  0.00    +0.000 HD
ENDBRANCH  22  24
ENDBRANCH  19  20
ENDBRANCH   6  18
TORSDOF 6
ENDMDL
MODEL 5
REMARK VINA RESULT:      -7.4      2.024      2.569
REMARK  Name = 
REMARK  7 active torsions:
REMARK  status: ('A' for Active; 'I' for Inactive)
REMARK    1  A    between atoms: C_1  and  N_2
REMARK    2  A    between atoms: C_4  and  C_5
REMARK    3  A    between atoms: C_6  and  C_7
REMARK    4  A    between atoms: C_7  and  C_9
REMARK    5  A    between atoms: C_17  and  C_18
REMARK    6  A    between atoms: C_19  and  C_20
REMARK    7  A    between atoms: N_22  and  O_23
REMARK                            x       y       z     vdW  Elec       q    Type
REMARK                         _______ _______ _______ _____ _____    ______ ____
ROOT
ATOM      1  C   UNL     1       3.096   5.604  19.793  0.00  0.00    +0.000 C 
ATOM      2  N   UNL     1       2.808   6.804  19.033  0.00  0.00    +0.000 N 
ATOM      3  C   UNL     1       1.863   7.726  19.425  0.00  0.00    +0.000 A 
ATOM      4  C   UNL     1       1.827   8.734  18.490  0.00  0.00    +0.000 A 
ATOM      5  C   UNL     1       2.784   8.406  17.501  0.00  0.00    +0.000 A 
ATOM      6  C   UNL     1       3.394   7.209  17.844  0.00  0.00    +0.000 A 
ENDROOT
BRANCH   4   7
ATOM      7  C   UNL     1       0.957   9.864  18.560  0.00  0.00    +0.000 C 
ATOM      8  C   UNL     1      -0.246   9.860  19.156  0.00  0.00    +0.000 C 
BRANCH   8   9
ATOM      9  C   UNL     1      -1.081  11.088  19.202  0.00  0.00    +0.000 C 
ATOM     10  O   UNL     1      -0.817  12.034  19.933  0.00  0.00    +0.000 OA
BRANCH   9  11
ATOM     11  C   UNL     1      -2.244  11.147  18.276  0.00  0.00    +0.000 A 
ATOM     12  C   UNL     1      -3.472  11.705  18.667  0.00  0.00    +0.000 A 
ATOM     13  C   UNL     1      -4.544  11.739  17.774  0.00  0.00    +0.000 A 
ATOM     14  C   UNL     1      -4.393  11.226  16.487  0.00  0.00    +0.000 A 
ATOM     15  C   UNL     1      -3.166  10.691  16.092  0.00  0.00    +0.000 A 
ATOM     16 CL   UNL     1      -2.988  10.066  14.499  0.00  0.00    +0.000 Cl
ATOM     17  C   UNL     1      -2.089  10.653  16.976  0.00  0.00    +0.000 A 
ENDBRANCH   9  11
ENDBRANCH   8   9
ENDBRANCH   4   7
BRANCH   6  18
ATOM     18  C   UNL     1       4.415   6.437  17.218  0.00  0.00    +0.000 C 
ATOM     19  C   UNL     1       5.713   6.740  17.393  0.00  0.00    +0.000 C 
BRANCH  19  20
ATOM     20  C   UNL     1       6.772   5.933  16.741  0.00  0.00    +0.000 C 
ATOM     21  O   UNL     1       7.655   5.347  17.357  0.00  0.00    +0.000 OA
ATOM     22  N   UNL     1       6.670   5.902  15.375  0.00  0.00    +0.000 N 
ATOM     23  H   UNL     1       5.965   6.371  14.818  0.00  0.00    +0.000 HD
BRANCH  22  24
ATOM     24  O   UNL     1       7.644   5.156  14.677  0.00  0.00    +0.000 OA
ATOM     25  H   UNL     1       8.152   4.740  15.407  0.00  0.00    +0.000 HD
ENDBRANCH  22  24
ENDBRANCH  19  20
ENDBRANCH   6  18
TORSDOF 6
ENDMDL
MODEL 6
REMARK VINA RESULT:      -7.3      1.530      1.896
REMARK  Name = 
REMARK  7 active torsions:
REMARK  status: ('A' for Active; 'I' for Inactive)
REMARK    1  A    between atoms: C_1  and  N_2
REMARK    2  A    between atoms: C_4  and  C_5
REMARK    3  A    between atoms: C_6  and  C_7
REMARK    4  A    between atoms: C_7  and  C_9
REMARK    5  A    between atoms: C_17  and  C_18
REMARK    6  A    between atoms: C_19  and  C_20
REMARK    7  A    between atoms: N_22  and  O_23
REMARK                            x       y       z     vdW  Elec       q    Type
REMARK                         _______ _______ _______ _____ _____    ______ ____
ROOT
ATOM      1  C   UNL     1       3.788   4.576  19.753  0.00  0.00    +0.000 C 
ATOM      2  N   UNL     1       3.303   5.810  19.169  0.00  0.00    +0.000 N 
ATOM      3  C   UNL     1       2.509   6.700  19.858  0.00  0.00    +0.000 A 
ATOM      4  C   UNL     1       2.214   7.754  19.026  0.00  0.00    +0.000 A 
ATOM      5  C   UNL     1       2.854   7.489  17.791  0.00  0.00    +0.000 A 
ATOM      6  C   UNL     1       3.531   6.282  17.886  0.00  0.00    +0.000 A 
ENDROOT
BRANCH   4   7
ATOM      7  C   UNL     1       1.404   8.868  19.397  0.00  0.00    +0.000 C 
ATOM      8  C   UNL     1       1.021   9.841  18.554  0.00  0.00    +0.000 C 
BRANCH   8   9
ATOM      9  C   UNL     1       0.158  10.959  19.019  0.00  0.00    +0.000 C 
ATOM     10  O   UNL     1       0.556  11.815  19.798  0.00  0.00    +0.000 OA
BRANCH   9  11
ATOM     11  C   UNL     1      -1.217  11.027  18.455  0.00  0.00    +0.000 A 
ATOM     12  C   UNL     1      -2.231  11.779  19.070  0.00  0.00    +0.000 A 
ATOM     13  C   UNL     1      -3.512  11.817  18.517  0.00  0.00    +0.000 A 
ATOM     14  C   UNL     1      -3.782  11.114  17.344  0.00  0.00    +0.000 A 
ATOM     15  C   UNL     1      -2.769  10.384  16.721  0.00  0.00    +0.000 A 
ATOM     16 CL   UNL     1      -3.112   9.525  15.270  0.00  0.00    +0.000 Cl
ATOM     17  C   UNL     1      -1.486  10.341  17.266  0.00  0.00    +0.000 A 
ENDBRANCH   9  11
ENDBRANCH   8   9
ENDBRANCH   4   7
BRANCH   6  18
ATOM     18  C   UNL     1       4.332   5.555  16.958  0.00  0.00    +0.000 C 
ATOM     19  C   UNL     1       5.433   6.105  16.419  0.00  0.00    +0.000 C 
BRANCH  19  20
ATOM     20  C   UNL     1       6.264   5.344  15.456  0.00  0.00    +0.000 C 
ATOM     21  O   UNL     1       7.408   5.662  15.146  0.00  0.00    +0.000 OA
ATOM     22  N   UNL     1       5.632   4.244  14.941  0.00  0.00    +0.000 N 
ATOM     23  H   UNL     1       4.690   3.940  15.159  0.00  0.00    +0.000 HD
BRANCH  22  24
ATOM     24  O   UNL     1       6.355   3.465  14.013  0.00  0.00    +0.000 OA
ATOM     25  H   UNL     1       7.283   3.725  14.199  0.00  0.00    +0.000 HD
ENDBRANCH  22  24
ENDBRANCH  19  20
ENDBRANCH   6  18
TORSDOF 6
ENDMDL
MODEL 7
REMARK VINA RESULT:      -7.3      2.133      2.773
REMARK  Name = 
REMARK  7 active torsions:
REMARK  status: ('A' for Active; 'I' for Inactive)
REMARK    1  A    between atoms: C_1  and  N_2
REMARK    2  A    between atoms: C_4  and  C_5
REMARK    3  A    between atoms: C_6  and  C_7
REMARK    4  A    between atoms: C_7  and  C_9
REMARK    5  A    between atoms: C_17  and  C_18
REMARK    6  A    between atoms: C_19  and  C_20
REMARK    7  A    between atoms: N_22  and  O_23
REMARK                            x       y       z     vdW  Elec       q    Type
REMARK                         _______ _______ _______ _____ _____    ______ ____
ROOT
ATOM      1  C   UNL     1       2.543   2.996  18.364  0.00  0.00    +0.000 C 
ATOM      2  N   UNL     1       2.689   4.368  18.808  0.00  0.00    +0.000 N 
ATOM      3  C   UNL     1       1.838   4.950  19.721  0.00  0.00    +0.000 A 
ATOM      4  C   UNL     1       2.237   6.250  19.919  0.00  0.00    +0.000 A 
ATOM      5  C   UNL     1       3.370   6.458  19.097  0.00  0.00    +0.000 A 
ATOM      6  C   UNL     1       3.648   5.285  18.411  0.00  0.00    +0.000 A 
ENDROOT
BRANCH   4   7
ATOM      7  C   UNL     1       1.584   7.167  20.797  0.00  0.00    +0.000 C 
ATOM      8  C   UNL     1       1.532   8.495  20.606  0.00  0.00    +0.000 C 
BRANCH   8   9
ATOM      9  C   UNL     1       0.813   9.378  21.560  0.00  0.00    +0.000 C 
ATOM     10  O   UNL     1       1.043   9.369  22.763  0.00  0.00    +0.000 OA
BRANCH   9  11
ATOM     11  C   UNL     1      -0.183  10.322  20.986  0.00  0.00    +0.000 A 
ATOM     12  C   UNL     1      -0.740  11.362  21.748  0.00  0.00    +0.000 A 
ATOM     13  C   UNL     1      -1.676  12.227  21.178  0.00  0.00    +0.000 A 
ATOM     14  C   UNL     1      -2.050  12.064  19.845  0.00  0.00    +0.000 A 
ATOM     15  C   UNL     1      -1.480  11.044  19.082  0.00  0.00    +0.000 A 
ATOM     16 CL   UNL     1      -1.945  10.856  17.436  0.00  0.00    +0.000 Cl
ATOM     17  C   UNL     1      -0.545  10.176  19.642  0.00  0.00    +0.000 A 
ENDBRANCH   9  11
ENDBRANCH   8   9
ENDBRANCH   4   7
BRANCH   6  18
ATOM     18  C   UNL     1       4.663   4.939  17.472  0.00  0.00    +0.000 C 
ATOM     19  C   UNL     1       5.887   5.491  17.545  0.00  0.00    +0.000 C 
BRANCH  19  20
ATOM     20  C   UNL     1       6.940   5.127  16.568  0.00  0.00    +0.000 C 
ATOM     21  O   UNL     1       7.908   4.426  16.841  0.00  0.00    +0.000 OA
ATOM     22  N   UNL     1       6.728   5.649  15.319  0.00  0.00    +0.000 N 
ATOM     23  H   UNL     1       5.950   6.236  15.041  0.00  0.00    +0.000 HD
BRANCH  22  24
ATOM     24  O   UNL     1       7.689   5.351  14.328  0.00  0.00    +0.000 OA
ATOM     25  H   UNL     1       8.476   5.842  14.646  0.00  0.00    +0.000 HD
ENDBRANCH  22  24
ENDBRANCH  19  20
ENDBRANCH   6  18
TORSDOF 6
ENDMDL
MODEL 8
REMARK VINA RESULT:      -7.3      4.615      9.316
REMARK  Name = 
REMARK  7 active torsions:
REMARK  status: ('A' for Active; 'I' for Inactive)
REMARK    1  A    between atoms: C_1  and  N_2
REMARK    2  A    between atoms: C_4  and  C_5
REMARK    3  A    between atoms: C_6  and  C_7
REMARK    4  A    between atoms: C_7  and  C_9
REMARK    5  A    between atoms: C_17  and  C_18
REMARK    6  A    between atoms: C_19  and  C_20
REMARK    7  A    between atoms: N_22  and  O_23
REMARK                            x       y       z     vdW  Elec       q    Type
REMARK                         _______ _______ _______ _____ _____    ______ ____
ROOT
ATOM      1  C   UNL     1       0.193  13.003  19.514  0.00  0.00    +0.000 C 
ATOM      2  N   UNL     1       0.141  11.707  18.867  0.00  0.00    +0.000 N 
ATOM      3  C   UNL     1       1.239  10.882  18.759  0.00  0.00    +0.000 A 
ATOM      4  C   UNL     1       0.862   9.743  18.089  0.00  0.00    +0.000 A 
ATOM      5  C   UNL     1      -0.512   9.886  17.784  0.00  0.00    +0.000 A 
ATOM      6  C   UNL     1      -0.957  11.105  18.272  0.00  0.00    +0.000 A 
ENDROOT
BRANCH   4   7
ATOM      7  C   UNL     1       1.742   8.661  17.785  0.00  0.00    +0.000 C 
ATOM      8  C   UNL     1       2.101   7.706  18.658  0.00  0.00    +0.000 C 
BRANCH   8   9
ATOM      9  C   UNL     1       3.009   6.601  18.253  0.00  0.00    +0.000 C 
ATOM     10  O   UNL     1       4.078   6.803  17.691  0.00  0.00    +0.000 OA
BRANCH   9  11
ATOM     11  C   UNL     1       2.585   5.219  18.602  0.00  0.00    +0.000 A 
ATOM     12  C   UNL     1       2.256   4.275  17.615  0.00  0.00    +0.000 A 
ATOM     13  C   UNL     1       1.857   2.988  17.979  0.00  0.00    +0.000 A 
ATOM     14  C   UNL     1       1.795   2.635  19.326  0.00  0.00    +0.000 A 
ATOM     15  C   UNL     1       2.142   3.566  20.305  0.00  0.00    +0.000 A 
ATOM     16 CL   UNL     1       2.068   3.118  21.965  0.00  0.00    +0.000 Cl
ATOM     17  C   UNL     1       2.542   4.854  19.952  0.00  0.00    +0.000 A 
ENDBRANCH   9  11
ENDBRANCH   8   9
ENDBRANCH   4   7
BRANCH   6  18
ATOM     18  C   UNL     1      -2.231  11.743  18.248  0.00  0.00    +0.000 C 
ATOM     19  C   UNL     1      -3.362  11.020  18.169  0.00  0.00    +0.000 C 
BRANCH  19  20
ATOM     20  C   UNL     1      -4.685  11.687  18.147  0.00  0.00    +0.000 C 
ATOM     21  O   UNL     1      -5.145  12.316  19.094  0.00  0.00    +0.000 OA
ATOM     22  N   UNL     1      -5.352  11.535  16.959  0.00  0.00    +0.000 N 
ATOM     23  H   UNL     1      -5.021  11.024  16.150  0.00  0.00    +0.000 HD
BRANCH  22  24
ATOM     24  O   UNL     1      -6.624  12.140  16.857  0.00  0.00    +0.000 OA
ATOM     25  H   UNL     1      -7.036  11.636  16.123  0.00  0.00    +0.000 HD
ENDBRANCH  22  24
ENDBRANCH  19  20
ENDBRANCH   6  18
TORSDOF 6
ENDMDL
MODEL 9
REMARK VINA RESULT:      -7.2      4.779      9.184
REMARK  Name = 
REMARK  7 active torsions:
REMARK  status: ('A' for Active; 'I' for Inactive)
REMARK    1  A    between atoms: C_1  and  N_2
REMARK    2  A    between atoms: C_4  and  C_5
REMARK    3  A    between atoms: C_6  and  C_7
REMARK    4  A    between atoms: C_7  and  C_9
REMARK    5  A    between atoms: C_17  and  C_18
REMARK    6  A    between atoms: C_19  and  C_20
REMARK    7  A    between atoms: N_22  and  O_23
REMARK                            x       y       z     vdW  Elec       q    Type
REMARK                         _______ _______ _______ _____ _____    ______ ____
ROOT
ATOM      1  C   UNL     1       0.883   9.328  21.542  0.00  0.00    +0.000 C 
ATOM      2  N   UNL     1       1.364   8.859  20.258  0.00  0.00    +0.000 N 
ATOM      3  C   UNL     1       1.862   7.589  20.066  0.00  0.00    +0.000 A 
ATOM      4  C   UNL     1       2.240   7.465  18.751  0.00  0.00    +0.000 A 
ATOM      5  C   UNL     1       1.959   8.705  18.128  0.00  0.00    +0.000 A 
ATOM      6  C   UNL     1       1.412   9.566  19.067  0.00  0.00    +0.000 A 
ENDROOT
BRANCH   4   7
ATOM      7  C   UNL     1       2.809   6.284  18.186  0.00  0.00    +0.000 C 
ATOM      8  C   UNL     1       3.116   5.181  18.886  0.00  0.00    +0.000 C 
BRANCH   8   9
ATOM      9  C   UNL     1       3.689   3.984  18.215  0.00  0.00    +0.000 C 
ATOM     10  O   UNL     1       3.141   2.890  18.246  0.00  0.00    +0.000 OA
BRANCH   9  11
ATOM     11  C   UNL     1       4.951   4.179  17.453  0.00  0.00    +0.000 A 
ATOM     12  C   UNL     1       6.151   4.539  18.089  0.00  0.00    +0.000 A 
ATOM     13  C   UNL     1       7.316   4.719  17.342  0.00  0.00    +0.000 A 
ATOM     14  C   UNL     1       7.291   4.530  15.961  0.00  0.00    +0.000 A 
ATOM     15  C   UNL     1       6.104   4.151  15.332  0.00  0.00    +0.000 A 
ATOM     16 CL   UNL     1       6.086   3.914  13.628  0.00  0.00    +0.000 Cl
ATOM     17  C   UNL     1       4.936   3.969  16.070  0.00  0.00    +0.000 A 
ENDBRANCH   9  11
ENDBRANCH   8   9
ENDBRANCH   4   7
BRANCH   6  18
ATOM     18  C   UNL     1       0.949  10.911  18.982  0.00  0.00    +0.000 C 
ATOM     19  C   UNL     1       1.762  11.895  18.560  0.00  0.00    +0.000 C 
BRANCH  19  20
ATOM     20  C   UNL     1       1.276  13.292  18.472  0.00  0.00    +0.000 C 
ATOM     21  O   UNL     1       2.016  14.264  18.369  0.00  0.00    +0.000 OA
ATOM     22  N   UNL     1      -0.090  13.397  18.515  0.00  0.00    +0.000 N 
ATOM     23  H   UNL     1      -0.745  12.629  18.603  0.00  0.00    +0.000 HD
BRANCH  22  24
ATOM     24  O   UNL     1      -0.635  14.697  18.438  0.00  0.00    +0.000 OA
ATOM     25  H   UNL     1      -1.595  14.528  18.550  0.00  0.00    +0.000 HD
ENDBRANCH  22  24
ENDBRANCH  19  20
ENDBRANCH   6  18
TORSDOF 6
ENDMDL
