MODEL 1
REMARK VINA RESULT:      -8.8      0.000      0.000
REMARK  Name = 
REMARK  5 active torsions:
REMARK  status: ('A' for Active; 'I' for Inactive)
REMARK    1  A    between atoms: C_1  and  O_2
REMARK    2  A    between atoms: O_2  and  C_3
REMARK    3  A    between atoms: C_12  and  C_13
REMARK    4  A    between atoms: N_16  and  C_17
REMARK    5  A    between atoms: C_17  and  C_18
REMARK                            x       y       z     vdW  Elec       q    Type
REMARK                         _______ _______ _______ _____ _____    ______ ____
ROOT
ATOM      1  C   UNL     1      -3.772  10.820  17.100  0.00  0.00    +0.000 A 
ATOM      2  C   UNL     1      -4.991  11.517  17.059  0.00  0.00    +0.000 A 
ATOM      3  C   UNL     1      -5.332  12.431  18.053  0.00  0.00    +0.000 A 
ATOM      4  C   UNL     1      -4.464  12.659  19.111  0.00  0.00    +0.000 A 
ATOM      5  C   UNL     1      -3.251  11.960  19.190  0.00  0.00    +0.000 A 
ATOM      6  C   UNL     1      -2.892  11.022  18.187  0.00  0.00    +0.000 A 
ATOM      7  C   UNL     1      -1.581  10.263  18.286  0.00  0.00    +0.000 C 
ATOM      8  O   UNL     1      -1.218   9.447  17.451  0.00  0.00    +0.000 OA
ATOM      9  C   UNL     1      -0.760  10.550  19.439  0.00  0.00    +0.000 A 
ATOM     10  C   UNL     1       0.488  10.068  19.943  0.00  0.00    +0.000 A 
ATOM     11  N   UNL     1       0.768  10.659  21.119  0.00  0.00    +0.000 NA
ATOM     12  O   UNL     1      -0.271  11.538  21.380  0.00  0.00    +0.000 OA
ATOM     13  C   UNL     1      -1.169  11.460  20.377  0.00  0.00    +0.000 A 
ATOM     14  C   UNL     1      -2.367  12.232  20.368  0.00  0.00    +0.000 C 
ATOM     15  O   UNL     1      -2.687  13.051  21.216  0.00  0.00    +0.000 OA
ENDROOT
BRANCH  10  16
ATOM     16  C   UNL     1       1.412   9.065  19.400  0.00  0.00    +0.000 A 
ATOM     17  C   UNL     1       1.993   9.211  18.145  0.00  0.00    +0.000 A 
ATOM     18  C   UNL     1       2.777   8.194  17.615  0.00  0.00    +0.000 A 
ATOM     19  N   UNL     1       3.021   7.065  18.317  0.00  0.00    +0.000 N 
ATOM     20  C   UNL     1       2.556   6.940  19.582  0.00  0.00    +0.000 A 
ATOM     21  C   UNL     1       1.740   7.924  20.139  0.00  0.00    +0.000 A 
BRANCH  19  22
ATOM     22  C   UNL     1       3.746   5.938  17.668  0.00  0.00    +0.000 C 
BRANCH  22  23
ATOM     23  C   UNL     1       3.172   4.611  18.081  0.00  0.00    +0.000 A 
ATOM     24  C   UNL     1       1.838   4.292  17.785  0.00  0.00    +0.000 A 
ATOM     25  C   UNL     1       1.274   3.106  18.259  0.00  0.00    +0.000 A 
ATOM     26  C   UNL     1       2.037   2.223  19.018  0.00  0.00    +0.000 A 
ATOM     27  C   UNL     1       3.378   2.502  19.271  0.00  0.00    +0.000 A 
ATOM     28  C   UNL     1       3.946   3.688  18.802  0.00  0.00    +0.000 A 
ENDBRANCH  22  23
ENDBRANCH  19  22
ENDBRANCH  10  16
BRANCH   1  30
ATOM     29  C   UNL     1      -3.247  10.393  14.815  0.00  0.00    +0.000 C 
ATOM     30  O   UNL     1      -3.430   9.902  16.142  0.00  0.00    +0.000 OA
ENDBRANCH   1  30
TORSDOF 4
ENDMDL
MODEL 2
REMARK VINA RESULT:      -8.8      1.453      2.376
REMARK  Name = 
REMARK  5 active torsions:
REMARK  status: ('A' for Active; 'I' for Inactive)
REMARK    1  A    between atoms: C_1  and  O_2
REMARK    2  A    between atoms: O_2  and  C_3
REMARK    3  A    between atoms: C_12  and  C_13
REMARK    4  A    between atoms: N_16  and  C_17
REMARK    5  A    between atoms: C_17  and  C_18
REMARK                            x       y       z     vdW  Elec       q    Type
REMARK                         _______ _______ _______ _____ _____    ______ ____
ROOT
ATOM      1  C   UNL     1      -3.900  11.063  17.438  0.00  0.00    +0.000 A 
ATOM      2  C   UNL     1      -5.110  11.778  17.443  0.00  0.00    +0.000 A 
ATOM      3  C   UNL     1      -5.412  12.674  18.466  0.00  0.00    +0.000 A 
ATOM      4  C   UNL     1      -4.514  12.865  19.506  0.00  0.00    +0.000 A 
ATOM      5  C   UNL     1      -3.310  12.147  19.539  0.00  0.00    +0.000 A 
ATOM      6  C   UNL     1      -2.991  11.227  18.506  0.00  0.00    +0.000 A 
ATOM      7  C   UNL     1      -1.689  10.447  18.554  0.00  0.00    +0.000 C 
ATOM      8  O   UNL     1      -1.360   9.645  17.692  0.00  0.00    +0.000 OA
ATOM      9  C   UNL     1      -0.835  10.696  19.691  0.00  0.00    +0.000 A 
ATOM     10  C   UNL     1       0.418  10.184  20.153  0.00  0.00    +0.000 A 
ATOM     11  N   UNL     1       0.736  10.744  21.334  0.00  0.00    +0.000 NA
ATOM     12  O   UNL     1      -0.282  11.631  21.641  0.00  0.00    +0.000 OA
ATOM     13  C   UNL     1      -1.206  11.590  20.661  0.00  0.00    +0.000 A 
ATOM     14  C   UNL     1      -2.393  12.379  20.699  0.00  0.00    +0.000 C 
ATOM     15  O   UNL     1      -2.679  13.183  21.573  0.00  0.00    +0.000 OA
ENDROOT
BRANCH  10  16
ATOM     16  C   UNL     1       1.312   9.180  19.564  0.00  0.00    +0.000 A 
ATOM     17  C   UNL     1       1.870   9.351  18.302  0.00  0.00    +0.000 A 
ATOM     18  C   UNL     1       2.625   8.335  17.728  0.00  0.00    +0.000 A 
ATOM     19  N   UNL     1       2.863   7.183  18.394  0.00  0.00    +0.000 N 
ATOM     20  C   UNL     1       2.422   7.032  19.665  0.00  0.00    +0.000 A 
ATOM     21  C   UNL     1       1.634   8.013  20.264  0.00  0.00    +0.000 A 
BRANCH  19  22
ATOM     22  C   UNL     1       3.554   6.062  17.700  0.00  0.00    +0.000 C 
BRANCH  22  23
ATOM     23  C   UNL     1       5.036   6.098  17.951  0.00  0.00    +0.000 A 
ATOM     24  C   UNL     1       5.592   5.386  19.024  0.00  0.00    +0.000 A 
ATOM     25  C   UNL     1       6.951   5.502  19.322  0.00  0.00    +0.000 A 
ATOM     26  C   UNL     1       7.770   6.316  18.542  0.00  0.00    +0.000 A 
ATOM     27  C   UNL     1       7.242   6.983  17.440  0.00  0.00    +0.000 A 
ATOM     28  C   UNL     1       5.882   6.873  17.141  0.00  0.00    +0.000 A 
ENDBRANCH  22  23
ENDBRANCH  19  22
ENDBRANCH  10  16
BRANCH   1  30
ATOM     29  C   UNL     1      -3.604  10.648  15.109  0.00  0.00    +0.000 C 
ATOM     30  O   UNL     1      -3.597  10.162  16.450  0.00  0.00    +0.000 OA
ENDBRANCH   1  30
TORSDOF 4
ENDMDL
MODEL 3
REMARK VINA RESULT:      -8.5      0.502      1.308
REMARK  Name = 
REMARK  5 active torsions:
REMARK  status: ('A' for Active; 'I' for Inactive)
REMARK    1  A    between atoms: C_1  and  O_2
REMARK    2  A    between atoms: O_2  and  C_3
REMARK    3  A    between atoms: C_12  and  C_13
REMARK    4  A    between atoms: N_16  and  C_17
REMARK    5  A    between atoms: C_17  and  C_18
REMARK                            x       y       z     vdW  Elec       q    Type
REMARK                         _______ _______ _______ _____ _____    ______ ____
ROOT
ATOM      1  C   UNL     1      -3.799  10.858  17.098  0.00  0.00    +0.000 A 
ATOM      2  C   UNL     1      -4.994  11.596  17.056  0.00  0.00    +0.000 A 
ATOM      3  C   UNL     1      -5.295  12.536  18.040  0.00  0.00    +0.000 A 
ATOM      4  C   UNL     1      -4.411  12.747  19.089  0.00  0.00    +0.000 A 
ATOM      5  C   UNL     1      -3.223  12.007  19.168  0.00  0.00    +0.000 A 
ATOM      6  C   UNL     1      -2.905  11.044  18.176  0.00  0.00    +0.000 A 
ATOM      7  C   UNL     1      -1.620  10.242  18.275  0.00  0.00    +0.000 C 
ATOM      8  O   UNL     1      -1.292   9.401  17.450  0.00  0.00    +0.000 OA
ATOM      9  C   UNL     1      -0.781  10.515  19.418  0.00  0.00    +0.000 A 
ATOM     10  C   UNL     1       0.454   9.996  19.920  0.00  0.00    +0.000 A 
ATOM     11  N   UNL     1       0.763  10.593  21.085  0.00  0.00    +0.000 NA
ATOM     12  O   UNL     1      -0.242  11.511  21.342  0.00  0.00    +0.000 OA
ATOM     13  C   UNL     1      -1.150  11.452  20.347  0.00  0.00    +0.000 A 
ATOM     14  C   UNL     1      -2.321  12.265  20.336  0.00  0.00    +0.000 C 
ATOM     15  O   UNL     1      -2.606  13.106  21.175  0.00  0.00    +0.000 OA
ENDROOT
BRANCH  10  16
ATOM     16  C   UNL     1       1.337   8.954  19.384  0.00  0.00    +0.000 A 
ATOM     17  C   UNL     1       1.613   7.793  20.098  0.00  0.00    +0.000 A 
ATOM     18  C   UNL     1       2.538   6.877  19.612  0.00  0.00    +0.000 A 
ATOM     19  N   UNL     1       3.156   7.074  18.426  0.00  0.00    +0.000 N 
ATOM     20  C   UNL     1       2.829   8.141  17.660  0.00  0.00    +0.000 A 
ATOM     21  C   UNL     1       1.930   9.100  18.126  0.00  0.00    +0.000 A 
BRANCH  19  22
ATOM     22  C   UNL     1       4.242   6.148  18.000  0.00  0.00    +0.000 C 
BRANCH  22  23
ATOM     23  C   UNL     1       3.840   4.712  18.195  0.00  0.00    +0.000 A 
ATOM     24  C   UNL     1       4.473   3.924  19.167  0.00  0.00    +0.000 A 
ATOM     25  C   UNL     1       4.176   2.564  19.278  0.00  0.00    +0.000 A 
ATOM     26  C   UNL     1       3.234   1.984  18.433  0.00  0.00    +0.000 A 
ATOM     27  C   UNL     1       2.557   2.767  17.502  0.00  0.00    +0.000 A 
ATOM     28  C   UNL     1       2.854   4.127  17.384  0.00  0.00    +0.000 A 
ENDBRANCH  22  23
ENDBRANCH  19  22
ENDBRANCH  10  16
BRANCH   1  30
ATOM     29  C   UNL     1      -3.348  10.376  14.809  0.00  0.00    +0.000 C 
ATOM     30  O   UNL     1      -3.498   9.916  16.151  0.00  0.00    +0.000 OA
ENDBRANCH   1  30
TORSDOF 4
ENDMDL
MODEL 4
REMARK VINA RESULT:      -8.4      0.948      1.454
REMARK  Name = 
REMARK  5 active torsions:
REMARK  status: ('A' for Active; 'I' for Inactive)
REMARK    1  A    between atoms: C_1  and  O_2
REMARK    2  A    between atoms: O_2  and  C_3
REMARK    3  A    between atoms: C_12  and  C_13
REMARK    4  A    between atoms: N_16  and  C_17
REMARK    5  A    between atoms: C_17  and  C_18
REMARK                            x       y       z     vdW  Elec       q    Type
REMARK                         _______ _______ _______ _____ _____    ______ ____
ROOT
ATOM      1  C   UNL     1      -4.231  11.702  18.565  0.00  0.00    +0.000 A 
ATOM      2  C   UNL     1      -5.354  12.526  18.752  0.00  0.00    +0.000 A 
ATOM      3  C   UNL     1      -5.363  13.521  19.727  0.00  0.00    +0.000 A 
ATOM      4  C   UNL     1      -4.253  13.704  20.538  0.00  0.00    +0.000 A 
ATOM      5  C   UNL     1      -3.128  12.880  20.390  0.00  0.00    +0.000 A 
ATOM      6  C   UNL     1      -3.106  11.860  19.403  0.00  0.00    +0.000 A 
ATOM      7  C   UNL     1      -1.887  10.967  19.256  0.00  0.00    +0.000 C 
ATOM      8  O   UNL     1      -1.810  10.075  18.423  0.00  0.00    +0.000 OA
ATOM      9  C   UNL     1      -0.795  11.219  20.166  0.00  0.00    +0.000 A 
ATOM     10  C   UNL     1       0.485  10.628  20.407  0.00  0.00    +0.000 A 
ATOM     11  N   UNL     1       1.088  11.243  21.440  0.00  0.00    +0.000 NA
ATOM     12  O   UNL     1       0.229  12.242  21.866  0.00  0.00    +0.000 OA
ATOM     13  C   UNL     1      -0.883  12.214  21.103  0.00  0.00    +0.000 A 
ATOM     14  C   UNL     1      -1.970  13.112  21.311  0.00  0.00    +0.000 C 
ATOM     15  O   UNL     1      -2.002  14.003  22.146  0.00  0.00    +0.000 OA
ENDROOT
BRANCH  10  16
ATOM     16  C   UNL     1       1.155   9.504  19.743  0.00  0.00    +0.000 A 
ATOM     17  C   UNL     1       1.456   8.329  20.423  0.00  0.00    +0.000 A 
ATOM     18  C   UNL     1       2.187   7.326  19.797  0.00  0.00    +0.000 A 
ATOM     19  N   UNL     1       2.584   7.454  18.511  0.00  0.00    +0.000 N 
ATOM     20  C   UNL     1       2.214   8.539  17.792  0.00  0.00    +0.000 A 
ATOM     21  C   UNL     1       1.509   9.581  18.392  0.00  0.00    +0.000 A 
BRANCH  19  22
ATOM     22  C   UNL     1       3.483   6.427  17.914  0.00  0.00    +0.000 C 
BRANCH  22  23
ATOM     23  C   UNL     1       3.039   5.038  18.278  0.00  0.00    +0.000 A 
ATOM     24  C   UNL     1       1.824   4.530  17.795  0.00  0.00    +0.000 A 
ATOM     25  C   UNL     1       1.361   3.283  18.216  0.00  0.00    +0.000 A 
ATOM     26  C   UNL     1       2.112   2.524  19.110  0.00  0.00    +0.000 A 
ATOM     27  C   UNL     1       3.347   2.991  19.553  0.00  0.00    +0.000 A 
ATOM     28  C   UNL     1       3.812   4.240  19.138  0.00  0.00    +0.000 A 
ENDBRANCH  22  23
ENDBRANCH  19  22
ENDBRANCH  10  16
BRANCH   1  30
ATOM     29  C   UNL     1      -4.192  11.109  16.257  0.00  0.00    +0.000 C 
ATOM     30  O   UNL     1      -4.214  10.705  17.625  0.00  0.00    +0.000 OA
ENDBRANCH   1  30
TORSDOF 4
ENDMDL
MODEL 5
REMARK VINA RESULT:      -8.4      3.584      4.723
REMARK  Name = 
REMARK  5 active torsions:
REMARK  status: ('A' for Active; 'I' for Inactive)
REMARK    1  A    between atoms: C_1  and  O_2
REMARK    2  A    between atoms: O_2  and  C_3
REMARK    3  A    between atoms: C_12  and  C_13
REMARK    4  A    between atoms: N_16  and  C_17
REMARK    5  A    between atoms: C_17  and  C_18
REMARK                            x       y       z     vdW  Elec       q    Type
REMARK                         _______ _______ _______ _____ _____    ______ ____
ROOT
ATOM      1  C   UNL     1       2.783  15.435  18.145  0.00  0.00    +0.000 A 
ATOM      2  C   UNL     1       2.742  16.828  17.966  0.00  0.00    +0.000 A 
ATOM      3  C   UNL     1       1.628  17.571  18.350  0.00  0.00    +0.000 A 
ATOM      4  C   UNL     1       0.531  16.933  18.911  0.00  0.00    +0.000 A 
ATOM      5  C   UNL     1       0.535  15.541  19.079  0.00  0.00    +0.000 A 
ATOM      6  C   UNL     1       1.662  14.771  18.689  0.00  0.00    +0.000 A 
ATOM      7  C   UNL     1       1.654  13.263  18.866  0.00  0.00    +0.000 C 
ATOM      8  O   UNL     1       2.595  12.549  18.551  0.00  0.00    +0.000 OA
ATOM      9  C   UNL     1       0.455  12.691  19.433  0.00  0.00    +0.000 A 
ATOM     10  C   UNL     1       0.006  11.368  19.736  0.00  0.00    +0.000 A 
ATOM     11  N   UNL     1      -1.251  11.408  20.215  0.00  0.00    +0.000 NA
ATOM     12  O   UNL     1      -1.622  12.742  20.248  0.00  0.00    +0.000 OA
ATOM     13  C   UNL     1      -0.602  13.489  19.780  0.00  0.00    +0.000 A 
ATOM     14  C   UNL     1      -0.687  14.908  19.669  0.00  0.00    +0.000 C 
ATOM     15  O   UNL     1      -1.643  15.588  20.010  0.00  0.00    +0.000 OA
ENDROOT
BRANCH  10  16
ATOM     16  C   UNL     1       0.676  10.072  19.573  0.00  0.00    +0.000 A 
ATOM     17  C   UNL     1       0.894   9.222  20.651  0.00  0.00    +0.000 A 
ATOM     18  C   UNL     1       1.627   8.053  20.484  0.00  0.00    +0.000 A 
ATOM     19  N   UNL     1       2.107   7.702  19.270  0.00  0.00    +0.000 N 
ATOM     20  C   UNL     1       1.820   8.455  18.183  0.00  0.00    +0.000 A 
ATOM     21  C   UNL     1       1.116   9.651  18.314  0.00  0.00    +0.000 A 
BRANCH  19  22
ATOM     22  C   UNL     1       3.005   6.519  19.150  0.00  0.00    +0.000 C 
BRANCH  22  23
ATOM     23  C   UNL     1       2.229   5.235  19.246  0.00  0.00    +0.000 A 
ATOM     24  C   UNL     1       1.849   4.727  20.497  0.00  0.00    +0.000 A 
ATOM     25  C   UNL     1       1.222   3.484  20.594  0.00  0.00    +0.000 A 
ATOM     26  C   UNL     1       0.955   2.744  19.445  0.00  0.00    +0.000 A 
ATOM     27  C   UNL     1       1.276   3.263  18.193  0.00  0.00    +0.000 A 
ATOM     28  C   UNL     1       1.907   4.504  18.091  0.00  0.00    +0.000 A 
ENDBRANCH  22  23
ENDBRANCH  19  22
ENDBRANCH  10  16
BRANCH   1  30
ATOM     29  C   UNL     1       5.150  15.151  18.157  0.00  0.00    +0.000 C 
ATOM     30  O   UNL     1       3.863  14.687  17.753  0.00  0.00    +0.000 OA
ENDBRANCH   1  30
TORSDOF 4
ENDMDL
MODEL 6
REMARK VINA RESULT:      -8.2      1.791      2.889
REMARK  Name = 
REMARK  5 active torsions:
REMARK  status: ('A' for Active; 'I' for Inactive)
REMARK    1  A    between atoms: C_1  and  O_2
REMARK    2  A    between atoms: O_2  and  C_3
REMARK    3  A    between atoms: C_12  and  C_13
REMARK    4  A    between atoms: N_16  and  C_17
REMARK    5  A    between atoms: C_17  and  C_18
REMARK                            x       y       z     vdW  Elec       q    Type
REMARK                         _______ _______ _______ _____ _____    ______ ____
ROOT
ATOM      1  C   UNL     1      -3.488  11.856  18.871  0.00  0.00    +0.000 A 
ATOM      2  C   UNL     1      -4.543  12.737  19.164  0.00  0.00    +0.000 A 
ATOM      3  C   UNL     1      -4.609  13.398  20.388  0.00  0.00    +0.000 A 
ATOM      4  C   UNL     1      -3.627  13.184  21.345  0.00  0.00    +0.000 A 
ATOM      5  C   UNL     1      -2.576  12.292  21.088  0.00  0.00    +0.000 A 
ATOM      6  C   UNL     1      -2.498  11.608  19.846  0.00  0.00    +0.000 A 
ATOM      7  C   UNL     1      -1.361  10.638  19.581  0.00  0.00    +0.000 C 
ATOM      8  O   UNL     1      -1.240  10.023  18.531  0.00  0.00    +0.000 OA
ATOM      9  C   UNL     1      -0.405  10.462  20.649  0.00  0.00    +0.000 A 
ATOM     10  C   UNL     1       0.759   9.657  20.849  0.00  0.00    +0.000 A 
ATOM     11  N   UNL     1       1.249   9.857  22.086  0.00  0.00    +0.000 NA
ATOM     12  O   UNL     1       0.433  10.799  22.690  0.00  0.00    +0.000 OA
ATOM     13  C   UNL     1      -0.543  11.146  21.828  0.00  0.00    +0.000 A 
ATOM     14  C   UNL     1      -1.560  12.086  22.167  0.00  0.00    +0.000 C 
ATOM     15  O   UNL     1      -1.637  12.693  23.225  0.00  0.00    +0.000 OA
ENDROOT
BRANCH  10  16
ATOM     16  C   UNL     1       1.414   8.692  19.959  0.00  0.00    +0.000 A 
ATOM     17  C   UNL     1       1.686   7.390  20.366  0.00  0.00    +0.000 A 
ATOM     18  C   UNL     1       2.403   6.534  19.539  0.00  0.00    +0.000 A 
ATOM     19  N   UNL     1       2.817   6.933  18.316  0.00  0.00    +0.000 N 
ATOM     20  C   UNL     1       2.476   8.157  17.850  0.00  0.00    +0.000 A 
ATOM     21  C   UNL     1       1.785   9.057  18.660  0.00  0.00    +0.000 A 
BRANCH  19  22
ATOM     22  C   UNL     1       3.702   6.043  17.514  0.00  0.00    +0.000 C 
BRANCH  22  23
ATOM     23  C   UNL     1       5.139   6.180  17.936  0.00  0.00    +0.000 A 
ATOM     24  C   UNL     1       6.014   7.011  17.221  0.00  0.00    +0.000 A 
ATOM     25  C   UNL     1       7.370   7.057  17.548  0.00  0.00    +0.000 A 
ATOM     26  C   UNL     1       7.862   6.288  18.599  0.00  0.00    +0.000 A 
ATOM     27  C   UNL     1       6.994   5.502  19.353  0.00  0.00    +0.000 A 
ATOM     28  C   UNL     1       5.637   5.449  19.027  0.00  0.00    +0.000 A 
ENDBRANCH  22  23
ENDBRANCH  19  22
ENDBRANCH  10  16
BRANCH   1  30
ATOM     29  C   UNL     1      -4.496  11.378  16.764  0.00  0.00    +0.000 C 
ATOM     30  O   UNL     1      -3.419  11.182  17.680  0.00  0.00    +0.000 OA
ENDBRANCH   1  30
TORSDOF 4
ENDMDL
MODEL 7
REMARK VINA RESULT:      -8.1      3.220      4.289
REMARK  Name = 
REMARK  5 active torsions:
REMARK  status: ('A' for Active; 'I' for Inactive)
REMARK    1  A    between atoms: C_1  and  O_2
REMARK    2  A    between atoms: O_2  and  C_3
REMARK    3  A    between atoms: C_12  and  C_13
REMARK    4  A    between atoms: N_16  and  C_17
REMARK    5  A    between atoms: C_17  and  C_18
REMARK                            x       y       z     vdW  Elec       q    Type
REMARK                         _______ _______ _______ _____ _____    ______ ____
ROOT
ATOM      1  C   UNL     1       2.420  15.200  18.263  0.00  0.00    +0.000 A 
ATOM      2  C   UNL     1       2.171  16.582  18.238  0.00  0.00    +0.000 A 
ATOM      3  C   UNL     1       0.980  17.109  18.732  0.00  0.00    +0.000 A 
ATOM      4  C   UNL     1       0.012  16.261  19.253  0.00  0.00    +0.000 A 
ATOM      5  C   UNL     1       0.225  14.875  19.268  0.00  0.00    +0.000 A 
ATOM      6  C   UNL     1       1.432  14.325  18.764  0.00  0.00    +0.000 A 
ATOM      7  C   UNL     1       1.649  12.822  18.777  0.00  0.00    +0.000 C 
ATOM      8  O   UNL     1       2.669  12.291  18.359  0.00  0.00    +0.000 OA
ATOM      9  C   UNL     1       0.572  12.024  19.314  0.00  0.00    +0.000 A 
ATOM     10  C   UNL     1       0.332  10.624  19.485  0.00  0.00    +0.000 A 
ATOM     11  N   UNL     1      -0.895  10.429  20.001  0.00  0.00    +0.000 NA
ATOM     12  O   UNL     1      -1.452  11.682  20.190  0.00  0.00    +0.000 OA
ATOM     13  C   UNL     1      -0.573  12.617  19.776  0.00  0.00    +0.000 A 
ATOM     14  C   UNL     1      -0.865  14.011  19.822  0.00  0.00    +0.000 C 
ATOM     15  O   UNL     1      -1.893  14.504  20.263  0.00  0.00    +0.000 OA
ENDROOT
BRANCH  10  16
ATOM     16  C   UNL     1       1.174   9.467  19.162  0.00  0.00    +0.000 A 
ATOM     17  C   UNL     1       1.682   9.267  17.884  0.00  0.00    +0.000 A 
ATOM     18  C   UNL     1       2.386   8.106  17.584  0.00  0.00    +0.000 A 
ATOM     19  N   UNL     1       2.622   7.172  18.531  0.00  0.00    +0.000 N 
ATOM     20  C   UNL     1       2.232   7.388  19.809  0.00  0.00    +0.000 A 
ATOM     21  C   UNL     1       1.496   8.524  20.144  0.00  0.00    +0.000 A 
BRANCH  19  22
ATOM     22  C   UNL     1       3.254   5.879  18.147  0.00  0.00    +0.000 C 
BRANCH  22  23
ATOM     23  C   UNL     1       2.551   4.716  18.791  0.00  0.00    +0.000 A 
ATOM     24  C   UNL     1       2.966   4.240  20.044  0.00  0.00    +0.000 A 
ATOM     25  C   UNL     1       2.384   3.097  20.594  0.00  0.00    +0.000 A 
ATOM     26  C   UNL     1       1.373   2.429  19.909  0.00  0.00    +0.000 A 
ATOM     27  C   UNL     1       0.912   2.924  18.692  0.00  0.00    +0.000 A 
ATOM     28  C   UNL     1       1.494   4.065  18.135  0.00  0.00    +0.000 A 
ENDBRANCH  22  23
ENDBRANCH  19  22
ENDBRANCH  10  16
BRANCH   1  30
ATOM     29  C   UNL     1       4.801  15.266  18.180  0.00  0.00    +0.000 C 
ATOM     30  O   UNL     1       3.578  14.665  17.761  0.00  0.00    +0.000 OA
ENDBRANCH   1  30
TORSDOF 4
ENDMDL
MODEL 8
REMARK VINA RESULT:      -8.0      3.526      4.866
REMARK  Name = 
REMARK  5 active torsions:
REMARK  status: ('A' for Active; 'I' for Inactive)
REMARK    1  A    between atoms: C_1  and  O_2
REMARK    2  A    between atoms: O_2  and  C_3
REMARK    3  A    between atoms: C_12  and  C_13
REMARK    4  A    between atoms: N_16  and  C_17
REMARK    5  A    between atoms: C_17  and  C_18
REMARK                            x       y       z     vdW  Elec       q    Type
REMARK                         _______ _______ _______ _____ _____    ______ ____
ROOT
ATOM      1  C   UNL     1       2.704  15.214  18.219  0.00  0.00    +0.000 A 
ATOM      2  C   UNL     1       2.492  16.603  18.207  0.00  0.00    +0.000 A 
ATOM      3  C   UNL     1       1.311  17.156  18.697  0.00  0.00    +0.000 A 
ATOM      4  C   UNL     1       0.316  16.329  19.199  0.00  0.00    +0.000 A 
ATOM      5  C   UNL     1       0.491  14.938  19.201  0.00  0.00    +0.000 A 
ATOM      6  C   UNL     1       1.687  14.361  18.702  0.00  0.00    +0.000 A 
ATOM      7  C   UNL     1       1.864  12.853  18.699  0.00  0.00    +0.000 C 
ATOM      8  O   UNL     1       2.872  12.299  18.285  0.00  0.00    +0.000 OA
ATOM      9  C   UNL     1       0.760  12.078  19.217  0.00  0.00    +0.000 A 
ATOM     10  C   UNL     1       0.481  10.684  19.370  0.00  0.00    +0.000 A 
ATOM     11  N   UNL     1      -0.756  10.516  19.873  0.00  0.00    +0.000 NA
ATOM     12  O   UNL     1      -1.281  11.782  20.071  0.00  0.00    +0.000 OA
ATOM     13  C   UNL     1      -0.373  12.697  19.675  0.00  0.00    +0.000 A 
ATOM     14  C   UNL     1      -0.628  14.098  19.734  0.00  0.00    +0.000 C 
ATOM     15  O   UNL     1      -1.646  14.613  20.171  0.00  0.00    +0.000 OA
ENDROOT
BRANCH  10  16
ATOM     16  C   UNL     1       1.294   9.507  19.042  0.00  0.00    +0.000 A 
ATOM     17  C   UNL     1       1.847   9.330  17.779  0.00  0.00    +0.000 A 
ATOM     18  C   UNL     1       2.521   8.155  17.468  0.00  0.00    +0.000 A 
ATOM     19  N   UNL     1       2.685   7.183  18.392  0.00  0.00    +0.000 N 
ATOM     20  C   UNL     1       2.251   7.372  19.660  0.00  0.00    +0.000 A 
ATOM     21  C   UNL     1       1.542   8.522  20.004  0.00  0.00    +0.000 A 
BRANCH  19  22
ATOM     22  C   UNL     1       3.286   5.881  17.990  0.00  0.00    +0.000 C 
BRANCH  22  23
ATOM     23  C   UNL     1       4.785   5.917  18.101  0.00  0.00    +0.000 A 
ATOM     24  C   UNL     1       5.432   5.314  19.190  0.00  0.00    +0.000 A 
ATOM     25  C   UNL     1       6.813   5.437  19.349  0.00  0.00    +0.000 A 
ATOM     26  C   UNL     1       7.563   6.148  18.416  0.00  0.00    +0.000 A 
ATOM     27  C   UNL     1       6.942   6.703  17.300  0.00  0.00    +0.000 A 
ATOM     28  C   UNL     1       5.560   6.587  17.139  0.00  0.00    +0.000 A 
ENDBRANCH  22  23
ENDBRANCH  19  22
ENDBRANCH  10  16
BRANCH   1  30
ATOM     29  C   UNL     1       5.086  15.231  18.142  0.00  0.00    +0.000 C 
ATOM     30  O   UNL     1       3.851  14.653  17.722  0.00  0.00    +0.000 OA
ENDBRANCH   1  30
TORSDOF 4
ENDMDL
MODEL 9
REMARK VINA RESULT:      -8.0      3.439      9.076
REMARK  Name = 
REMARK  5 active torsions:
REMARK  status: ('A' for Active; 'I' for Inactive)
REMARK    1  A    between atoms: C_1  and  O_2
REMARK    2  A    between atoms: O_2  and  C_3
REMARK    3  A    between atoms: C_12  and  C_13
REMARK    4  A    between atoms: N_16  and  C_17
REMARK    5  A    between atoms: C_17  and  C_18
REMARK                            x       y       z     vdW  Elec       q    Type
REMARK                         _______ _______ _______ _____ _____    ______ ____
ROOT
ATOM      1  C   UNL     1       2.129   2.996  19.633  0.00  0.00    +0.000 A 
ATOM      2  C   UNL     1       2.651   1.830  19.050  0.00  0.00    +0.000 A 
ATOM      3  C   UNL     1       3.537   1.895  17.976  0.00  0.00    +0.000 A 
ATOM      4  C   UNL     1       3.910   3.128  17.461  0.00  0.00    +0.000 A 
ATOM      5  C   UNL     1       3.385   4.308  18.008  0.00  0.00    +0.000 A 
ATOM      6  C   UNL     1       2.479   4.256  19.099  0.00  0.00    +0.000 A 
ATOM      7  C   UNL     1       1.909   5.538  19.679  0.00  0.00    +0.000 C 
ATOM      8  O   UNL     1       1.127   5.556  20.619  0.00  0.00    +0.000 OA
ATOM      9  C   UNL     1       2.336   6.769  19.055  0.00  0.00    +0.000 A 
ATOM     10  C   UNL     1       2.042   8.156  19.238  0.00  0.00    +0.000 A 
ATOM     11  N   UNL     1       2.698   8.889  18.320  0.00  0.00    +0.000 NA
ATOM     12  O   UNL     1       3.434   8.002  17.552  0.00  0.00    +0.000 OA
ATOM     13  C   UNL     1       3.207   6.750  17.998  0.00  0.00    +0.000 A 
ATOM     14  C   UNL     1       3.807   5.606  17.394  0.00  0.00    +0.000 C 
ATOM     15  O   UNL     1       4.598   5.632  16.463  0.00  0.00    +0.000 OA
ENDROOT
BRANCH  10  16
ATOM     16  C   UNL     1       1.161   8.825  20.202  0.00  0.00    +0.000 A 
ATOM     17  C   UNL     1       0.158   9.697  19.792  0.00  0.00    +0.000 A 
ATOM     18  C   UNL     1      -0.588  10.397  20.732  0.00  0.00    +0.000 A 
ATOM     19  N   UNL     1      -0.383  10.218  22.056  0.00  0.00    +0.000 N 
ATOM     20  C   UNL     1       0.512   9.297  22.485  0.00  0.00    +0.000 A 
ATOM     21  C   UNL     1       1.303   8.598  21.575  0.00  0.00    +0.000 A 
BRANCH  19  22
ATOM     22  C   UNL     1      -1.099  11.082  23.035  0.00  0.00    +0.000 C 
BRANCH  22  23
ATOM     23  C   UNL     1      -1.486  12.397  22.417  0.00  0.00    +0.000 A 
ATOM     24  C   UNL     1      -0.553  13.441  22.326  0.00  0.00    +0.000 A 
ATOM     25  C   UNL     1      -0.940  14.695  21.850  0.00  0.00    +0.000 A 
ATOM     26  C   UNL     1      -2.255  14.914  21.447  0.00  0.00    +0.000 A 
ATOM     27  C   UNL     1      -3.176  13.871  21.479  0.00  0.00    +0.000 A 
ATOM     28  C   UNL     1      -2.795  12.616  21.958  0.00  0.00    +0.000 A 
ENDBRANCH  22  23
ENDBRANCH  19  22
ENDBRANCH  10  16
BRANCH   1  30
ATOM     29  C   UNL     1       1.730   2.447  21.917  0.00  0.00    +0.000 C 
ATOM     30  O   UNL     1       1.240   2.949  20.675  0.00  0.00    +0.000 OA
ENDBRANCH   1  30
TORSDOF 4
ENDMDL
