MODEL 1
REMARK VINA RESULT:      -8.3      0.000      0.000
REMARK  Name = 
REMARK  9 active torsions:
REMARK  status: ('A' for Active; 'I' for Inactive)
REMARK    1  A    between atoms: C_1  and  O_2
REMARK    2  A    between atoms: O_2  and  C_3
REMARK    3  A    between atoms: C_6  and  N_7
REMARK    4  A    between atoms: C_8  and  C_10
REMARK    5  A    between atoms: C_11  and  C_12
REMARK    6  A    between atoms: C_15  and  C_16
REMARK    7  A    between atoms: C_20  and  C_21
REMARK    8  A    between atoms: C_21  and  C_22
REMARK    9  A    between atoms: C_22  and  O_24
REMARK                            x       y       z     vdW  Elec       q    Type
REMARK                         _______ _______ _______ _____ _____    ______ ____
ROOT
ATOM      1  C   UNL     1       0.727   9.566  19.946  0.00  0.00    +0.000 A 
ATOM      2  C   UNL     1       1.294   8.469  20.598  0.00  0.00    +0.000 A 
ATOM      3  C   UNL     1       2.140   7.584  19.906  0.00  0.00    +0.000 A 
ATOM      4  C   UNL     1       2.444   7.773  18.545  0.00  0.00    +0.000 A 
ATOM      5  C   UNL     1       1.843   8.849  17.885  0.00  0.00    +0.000 A 
ATOM      6  C   UNL     1       1.001   9.732  18.577  0.00  0.00    +0.000 A 
ENDROOT
BRANCH   4   7
ATOM      7  C   UNL     1       3.430   6.914  17.885  0.00  0.00    +0.000 A 
ATOM      8  N   UNL     1       4.307   7.255  16.957  0.00  0.00    +0.000 NA
ATOM      9  C   UNL     1       4.774   6.056  16.495  0.00  0.00    +0.000 A 
ATOM     10  C   UNL     1       5.629   5.772  15.424  0.00  0.00    +0.000 A 
ATOM     11  C   UNL     1       5.882   4.425  15.079  0.00  0.00    +0.000 A 
ATOM     12  C   UNL     1       5.303   3.394  15.845  0.00  0.00    +0.000 A 
ATOM     13  C   UNL     1       4.468   3.667  16.950  0.00  0.00    +0.000 A 
ATOM     14  C   UNL     1       4.218   5.011  17.209  0.00  0.00    +0.000 A 
ATOM     15  O   UNL     1       3.367   5.556  18.133  0.00  0.00    +0.000 OA
BRANCH  11  16
ATOM     16  C   UNL     1       6.636   4.191  13.784  0.00  0.00    +0.000 C 
BRANCH  16  17
ATOM     17  C   UNL     1       5.931   3.443  12.684  0.00  0.00    +0.000 C 
ATOM     18  O   UNL     1       4.755   3.618  12.394  0.00  0.00    +0.000 OA
BRANCH  17  19
ATOM     19  O   UNL     1       6.730   2.614  11.976  0.00  0.00    +0.000 OA
ATOM     20  H   UNL     1       7.574   2.410  12.422  0.00  0.00    +0.000 HD
ENDBRANCH  17  19
ENDBRANCH  16  17
ENDBRANCH  11  16
ENDBRANCH   4   7
BRANCH   1  22
ATOM     21  C   UNL     1       0.195  11.657  21.302  0.00  0.00    +0.000 C 
ATOM     22  C   UNL     1      -0.149  10.553  20.610  0.00  0.00    +0.000 C 
BRANCH  21  24
ATOM     23  N   UNL     1      -2.089  11.795  22.096  0.00  0.00    +0.000 N 
ATOM     24  C   UNL     1      -0.910  12.487  21.879  0.00  0.00    +0.000 C 
ATOM     25  O   UNL     1      -0.711  13.678  22.107  0.00  0.00    +0.000 OA
ATOM     26  H   UNL     1      -2.115  10.810  21.875  0.00  0.00    +0.000 HD
BRANCH  23  30
ATOM     27  C   UNL     1      -5.683  13.429  23.686  0.00  0.00    +0.000 A 
ATOM     28  C   UNL     1      -5.411  13.540  22.326  0.00  0.00    +0.000 A 
ATOM     29  C   UNL     1      -4.235  12.999  21.791  0.00  0.00    +0.000 A 
ATOM     30  C   UNL     1      -3.299  12.356  22.601  0.00  0.00    +0.000 A 
ATOM     31  C   UNL     1      -3.569  12.263  23.972  0.00  0.00    +0.000 A 
ATOM     32  C   UNL     1      -4.756  12.798  24.513  0.00  0.00    +0.000 A 
BRANCH  27  34
ATOM     33  C   UNL     1      -7.103  15.314  23.586  0.00  0.00    +0.000 C 
ATOM     34  O   UNL     1      -6.857  14.006  24.080  0.00  0.00    +0.000 OA
ENDBRANCH  27  34
ENDBRANCH  23  30
ENDBRANCH  21  24
ENDBRANCH   1  22
TORSDOF 8
ENDMDL
MODEL 2
REMARK VINA RESULT:      -7.9      1.044      1.189
REMARK  Name = 
REMARK  9 active torsions:
REMARK  status: ('A' for Active; 'I' for Inactive)
REMARK    1  A    between atoms: C_1  and  O_2
REMARK    2  A    between atoms: O_2  and  C_3
REMARK    3  A    between atoms: C_6  and  N_7
REMARK    4  A    between atoms: C_8  and  C_10
REMARK    5  A    between atoms: C_11  and  C_12
REMARK    6  A    between atoms: C_15  and  C_16
REMARK    7  A    between atoms: C_20  and  C_21
REMARK    8  A    between atoms: C_21  and  C_22
REMARK    9  A    between atoms: C_22  and  O_24
REMARK                            x       y       z     vdW  Elec       q    Type
REMARK                         _______ _______ _______ _____ _____    ______ ____
ROOT
ATOM      1  C   UNL     1       1.030   8.936  20.247  0.00  0.00    +0.000 A 
ATOM      2  C   UNL     1       1.552   7.717  20.687  0.00  0.00    +0.000 A 
ATOM      3  C   UNL     1       2.392   6.957  19.854  0.00  0.00    +0.000 A 
ATOM      4  C   UNL     1       2.735   7.395  18.562  0.00  0.00    +0.000 A 
ATOM      5  C   UNL     1       2.178   8.594  18.109  0.00  0.00    +0.000 A 
ATOM      6  C   UNL     1       1.341   9.352  18.940  0.00  0.00    +0.000 A 
ENDROOT
BRANCH   4   7
ATOM      7  C   UNL     1       3.716   6.649  17.768  0.00  0.00    +0.000 A 
ATOM      8  N   UNL     1       4.339   7.045  16.672  0.00  0.00    +0.000 NA
ATOM      9  C   UNL     1       4.910   5.901  16.191  0.00  0.00    +0.000 A 
ATOM     10  C   UNL     1       5.592   5.667  14.991  0.00  0.00    +0.000 A 
ATOM     11  C   UNL     1       6.002   4.352  14.673  0.00  0.00    +0.000 A 
ATOM     12  C   UNL     1       5.755   3.310  15.589  0.00  0.00    +0.000 A 
ATOM     13  C   UNL     1       5.102   3.538  16.819  0.00  0.00    +0.000 A 
ATOM     14  C   UNL     1       4.679   4.843  17.052  0.00  0.00    +0.000 A 
ATOM     15  O   UNL     1       3.930   5.323  18.094  0.00  0.00    +0.000 OA
BRANCH  11  16
ATOM     16  C   UNL     1       6.536   4.133  13.271  0.00  0.00    +0.000 C 
BRANCH  16  17
ATOM     17  C   UNL     1       5.748   3.242  12.348  0.00  0.00    +0.000 C 
ATOM     18  O   UNL     1       4.698   3.579  11.818  0.00  0.00    +0.000 OA
BRANCH  17  19
ATOM     19  O   UNL     1       6.342   2.058  12.079  0.00  0.00    +0.000 OA
ATOM     20  H   UNL     1       6.920   1.738  12.798  0.00  0.00    +0.000 HD
ENDBRANCH  17  19
ENDBRANCH  16  17
ENDBRANCH  11  16
ENDBRANCH   4   7
BRANCH   1  22
ATOM     21  C   UNL     1      -0.002  11.138  21.005  0.00  0.00    +0.000 C 
ATOM     22  C   UNL     1       0.162   9.802  21.070  0.00  0.00    +0.000 C 
BRANCH  21  24
ATOM     23  N   UNL     1      -1.889  12.607  21.391  0.00  0.00    +0.000 N 
ATOM     24  C   UNL     1      -0.954  11.770  21.974  0.00  0.00    +0.000 C 
ATOM     25  O   UNL     1      -0.845  11.521  23.172  0.00  0.00    +0.000 OA
ATOM     26  H   UNL     1      -1.877  12.715  20.386  0.00  0.00    +0.000 HD
BRANCH  23  30
ATOM     27  C   UNL     1      -4.918  14.794  23.429  0.00  0.00    +0.000 A 
ATOM     28  C   UNL     1      -3.585  15.175  23.549  0.00  0.00    +0.000 A 
ATOM     29  C   UNL     1      -2.581  14.467  22.876  0.00  0.00    +0.000 A 
ATOM     30  C   UNL     1      -2.882  13.356  22.089  0.00  0.00    +0.000 A 
ATOM     31  C   UNL     1      -4.223  12.965  21.986  0.00  0.00    +0.000 A 
ATOM     32  C   UNL     1      -5.237  13.681  22.655  0.00  0.00    +0.000 A 
BRANCH  27  34
ATOM     33  C   UNL     1      -7.163  15.437  23.787  0.00  0.00    +0.000 C 
ATOM     34  O   UNL     1      -5.795  15.562  24.143  0.00  0.00    +0.000 OA
ENDBRANCH  27  34
ENDBRANCH  23  30
ENDBRANCH  21  24
ENDBRANCH   1  22
TORSDOF 8
ENDMDL
MODEL 3
REMARK VINA RESULT:      -7.8      1.736      2.499
REMARK  Name = 
REMARK  9 active torsions:
REMARK  status: ('A' for Active; 'I' for Inactive)
REMARK    1  A    between atoms: C_1  and  O_2
REMARK    2  A    between atoms: O_2  and  C_3
REMARK    3  A    between atoms: C_6  and  N_7
REMARK    4  A    between atoms: C_8  and  C_10
REMARK    5  A    between atoms: C_11  and  C_12
REMARK    6  A    between atoms: C_15  and  C_16
REMARK    7  A    between atoms: C_20  and  C_21
REMARK    8  A    between atoms: C_21  and  C_22
REMARK    9  A    between atoms: C_22  and  O_24
REMARK                            x       y       z     vdW  Elec       q    Type
REMARK                         _______ _______ _______ _____ _____    ______ ____
ROOT
ATOM      1  C   UNL     1      -0.052  10.182  21.006  0.00  0.00    +0.000 A 
ATOM      2  C   UNL     1       0.512  10.281  19.732  0.00  0.00    +0.000 A 
ATOM      3  C   UNL     1       1.346   9.262  19.239  0.00  0.00    +0.000 A 
ATOM      4  C   UNL     1       1.638   8.117  20.003  0.00  0.00    +0.000 A 
ATOM      5  C   UNL     1       1.105   8.040  21.293  0.00  0.00    +0.000 A 
ATOM      6  C   UNL     1       0.272   9.056  21.784  0.00  0.00    +0.000 A 
ENDROOT
BRANCH   4   7
ATOM      7  C   UNL     1       2.401   7.014  19.414  0.00  0.00    +0.000 A 
ATOM      8  N   UNL     1       3.619   7.054  18.903  0.00  0.00    +0.000 NA
ATOM      9  C   UNL     1       3.739   5.857  18.254  0.00  0.00    +0.000 A 
ATOM     10  C   UNL     1       4.759   5.379  17.423  0.00  0.00    +0.000 A 
ATOM     11  C   UNL     1       4.599   4.132  16.779  0.00  0.00    +0.000 A 
ATOM     12  C   UNL     1       3.435   3.373  17.018  0.00  0.00    +0.000 A 
ATOM     13  C   UNL     1       2.417   3.827  17.883  0.00  0.00    +0.000 A 
ATOM     14  C   UNL     1       2.610   5.083  18.449  0.00  0.00    +0.000 A 
ATOM     15  O   UNL     1       1.746   5.811  19.224  0.00  0.00    +0.000 OA
BRANCH  11  16
ATOM     16  C   UNL     1       5.634   3.776  15.729  0.00  0.00    +0.000 C 
BRANCH  16  17
ATOM     17  C   UNL     1       6.874   4.626  15.647  0.00  0.00    +0.000 C 
ATOM     18  O   UNL     1       7.006   5.555  14.862  0.00  0.00    +0.000 OA
BRANCH  17  19
ATOM     19  O   UNL     1       7.809   4.335  16.580  0.00  0.00    +0.000 OA
ATOM     20  H   UNL     1       7.480   3.755  17.294  0.00  0.00    +0.000 HD
ENDBRANCH  17  19
ENDBRANCH  16  17
ENDBRANCH  11  16
ENDBRANCH   4   7
BRANCH   1  22
ATOM     21  C   UNL     1      -1.422  11.290  22.846  0.00  0.00    +0.000 C 
ATOM     22  C   UNL     1      -0.957  11.195  21.585  0.00  0.00    +0.000 C 
BRANCH  21  24
ATOM     23  N   UNL     1      -3.663  12.209  22.820  0.00  0.00    +0.000 N 
ATOM     24  C   UNL     1      -2.341  12.430  23.164  0.00  0.00    +0.000 C 
ATOM     25  O   UNL     1      -1.882  13.445  23.681  0.00  0.00    +0.000 OA
ATOM     26  H   UNL     1      -3.911  11.319  22.410  0.00  0.00    +0.000 HD
BRANCH  23  30
ATOM     27  C   UNL     1      -6.800  15.053  23.248  0.00  0.00    +0.000 A 
ATOM     28  C   UNL     1      -6.795  13.900  24.027  0.00  0.00    +0.000 A 
ATOM     29  C   UNL     1      -5.764  12.961  23.900  0.00  0.00    +0.000 A 
ATOM     30  C   UNL     1      -4.730  13.142  22.982  0.00  0.00    +0.000 A 
ATOM     31  C   UNL     1      -4.748  14.295  22.187  0.00  0.00    +0.000 A 
ATOM     32  C   UNL     1      -5.781  15.246  22.319  0.00  0.00    +0.000 A 
BRANCH  27  34
ATOM     33  C   UNL     1      -7.913  17.054  22.668  0.00  0.00    +0.000 C 
ATOM     34  O   UNL     1      -7.866  15.880  23.464  0.00  0.00    +0.000 OA
ENDBRANCH  27  34
ENDBRANCH  23  30
ENDBRANCH  21  24
ENDBRANCH   1  22
TORSDOF 8
ENDMDL
MODEL 4
REMARK VINA RESULT:      -7.8      1.947     13.374
REMARK  Name = 
REMARK  9 active torsions:
REMARK  status: ('A' for Active; 'I' for Inactive)
REMARK    1  A    between atoms: C_1  and  O_2
REMARK    2  A    between atoms: O_2  and  C_3
REMARK    3  A    between atoms: C_6  and  N_7
REMARK    4  A    between atoms: C_8  and  C_10
REMARK    5  A    between atoms: C_11  and  C_12
REMARK    6  A    between atoms: C_15  and  C_16
REMARK    7  A    between atoms: C_20  and  C_21
REMARK    8  A    between atoms: C_21  and  C_22
REMARK    9  A    between atoms: C_22  and  O_24
REMARK                            x       y       z     vdW  Elec       q    Type
REMARK                         _______ _______ _______ _____ _____    ______ ____
ROOT
ATOM      1  C   UNL     1       0.601   9.034  21.242  0.00  0.00    +0.000 A 
ATOM      2  C   UNL     1       0.122   8.867  22.543  0.00  0.00    +0.000 A 
ATOM      3  C   UNL     1      -0.637   9.878  23.160  0.00  0.00    +0.000 A 
ATOM      4  C   UNL     1      -0.940  11.079  22.494  0.00  0.00    +0.000 A 
ATOM      5  C   UNL     1      -0.424  11.260  21.207  0.00  0.00    +0.000 A 
ATOM      6  C   UNL     1       0.331  10.251  20.592  0.00  0.00    +0.000 A 
ENDROOT
BRANCH   4   7
ATOM      7  C   UNL     1      -1.841  12.056  23.110  0.00  0.00    +0.000 A 
ATOM      8  N   UNL     1      -3.162  12.073  23.074  0.00  0.00    +0.000 NA
ATOM      9  C   UNL     1      -3.485  13.314  23.549  0.00  0.00    +0.000 A 
ATOM     10  C   UNL     1      -4.725  13.957  23.627  0.00  0.00    +0.000 A 
ATOM     11  C   UNL     1      -4.783  15.298  24.068  0.00  0.00    +0.000 A 
ATOM     12  C   UNL     1      -3.596  15.949  24.462  0.00  0.00    +0.000 A 
ATOM     13  C   UNL     1      -2.344  15.300  24.424  0.00  0.00    +0.000 A 
ATOM     14  C   UNL     1      -2.345  13.997  23.934  0.00  0.00    +0.000 A 
ATOM     15  O   UNL     1      -1.275  13.180  23.681  0.00  0.00    +0.000 OA
BRANCH  11  16
ATOM     16  C   UNL     1      -6.119  16.000  23.922  0.00  0.00    +0.000 C 
BRANCH  16  17
ATOM     17  C   UNL     1      -7.332  15.153  23.639  0.00  0.00    +0.000 C 
ATOM     18  O   UNL     1      -7.822  14.383  24.453  0.00  0.00    +0.000 OA
BRANCH  17  19
ATOM     19  O   UNL     1      -7.896  15.378  22.431  0.00  0.00    +0.000 OA
ATOM     20  H   UNL     1      -7.901  14.592  21.851  0.00  0.00    +0.000 HD
ENDBRANCH  17  19
ENDBRANCH  16  17
ENDBRANCH  11  16
ENDBRANCH   4   7
BRANCH   1  22
ATOM     21  C   UNL     1       1.457   6.685  20.748  0.00  0.00    +0.000 C 
ATOM     22  C   UNL     1       1.382   8.011  20.517  0.00  0.00    +0.000 C 
BRANCH  21  24
ATOM     23  N   UNL     1       3.453   6.549  19.384  0.00  0.00    +0.000 N 
ATOM     24  C   UNL     1       2.340   5.873  19.852  0.00  0.00    +0.000 C 
ATOM     25  O   UNL     1       2.031   4.712  19.594  0.00  0.00    +0.000 OA
ATOM     26  H   UNL     1       3.597   7.503  19.685  0.00  0.00    +0.000 HD
BRANCH  23  30
ATOM     27  C   UNL     1       6.427   4.951  16.792  0.00  0.00    +0.000 A 
ATOM     28  C   UNL     1       5.309   5.586  16.260  0.00  0.00    +0.000 A 
ATOM     29  C   UNL     1       4.328   6.122  17.104  0.00  0.00    +0.000 A 
ATOM     30  C   UNL     1       4.431   6.019  18.491  0.00  0.00    +0.000 A 
ATOM     31  C   UNL     1       5.549   5.364  19.022  0.00  0.00    +0.000 A 
ATOM     32  C   UNL     1       6.543   4.831  18.175  0.00  0.00    +0.000 A 
BRANCH  27  34
ATOM     33  C   UNL     1       6.867   4.520  14.511  0.00  0.00    +0.000 C 
ATOM     34  O   UNL     1       7.301   4.465  15.861  0.00  0.00    +0.000 OA
ENDBRANCH  27  34
ENDBRANCH  23  30
ENDBRANCH  21  24
ENDBRANCH   1  22
TORSDOF 8
ENDMDL
MODEL 5
REMARK VINA RESULT:      -7.7      1.228      1.487
REMARK  Name = 
REMARK  9 active torsions:
REMARK  status: ('A' for Active; 'I' for Inactive)
REMARK    1  A    between atoms: C_1  and  O_2
REMARK    2  A    between atoms: O_2  and  C_3
REMARK    3  A    between atoms: C_6  and  N_7
REMARK    4  A    between atoms: C_8  and  C_10
REMARK    5  A    between atoms: C_11  and  C_12
REMARK    6  A    between atoms: C_15  and  C_16
REMARK    7  A    between atoms: C_20  and  C_21
REMARK    8  A    between atoms: C_21  and  C_22
REMARK    9  A    between atoms: C_22  and  O_24
REMARK                            x       y       z     vdW  Elec       q    Type
REMARK                         _______ _______ _______ _____ _____    ______ ____
ROOT
ATOM      1  C   UNL     1       1.070   9.308  20.014  0.00  0.00    +0.000 A 
ATOM      2  C   UNL     1       1.557   8.107  20.535  0.00  0.00    +0.000 A 
ATOM      3  C   UNL     1       2.369   7.266  19.753  0.00  0.00    +0.000 A 
ATOM      4  C   UNL     1       2.719   7.603  18.433  0.00  0.00    +0.000 A 
ATOM      5  C   UNL     1       2.197   8.786  17.901  0.00  0.00    +0.000 A 
ATOM      6  C   UNL     1       1.388   9.624  18.681  0.00  0.00    +0.000 A 
ENDROOT
BRANCH   4   7
ATOM      7  C   UNL     1       3.673   6.775  17.690  0.00  0.00    +0.000 A 
ATOM      8  N   UNL     1       4.413   7.127  16.653  0.00  0.00    +0.000 NA
ATOM      9  C   UNL     1       4.895   5.938  16.180  0.00  0.00    +0.000 A 
ATOM     10  C   UNL     1       5.635   5.660  15.025  0.00  0.00    +0.000 A 
ATOM     11  C   UNL     1       5.928   4.316  14.699  0.00  0.00    +0.000 A 
ATOM     12  C   UNL     1       5.507   3.286  15.563  0.00  0.00    +0.000 A 
ATOM     13  C   UNL     1       4.792   3.556  16.750  0.00  0.00    +0.000 A 
ATOM     14  C   UNL     1       4.492   4.893  16.991  0.00  0.00    +0.000 A 
ATOM     15  O   UNL     1       3.722   5.427  17.991  0.00  0.00    +0.000 OA
BRANCH  11  16
ATOM     16  C   UNL     1       6.539   4.072  13.332  0.00  0.00    +0.000 C 
BRANCH  16  17
ATOM     17  C   UNL     1       5.765   3.225  12.356  0.00  0.00    +0.000 C 
ATOM     18  O   UNL     1       4.656   3.524  11.934  0.00  0.00    +0.000 OA
BRANCH  17  19
ATOM     19  O   UNL     1       6.436   2.140  11.910  0.00  0.00    +0.000 OA
ATOM     20  H   UNL     1       6.428   2.048  10.938  0.00  0.00    +0.000 HD
ENDBRANCH  17  19
ENDBRANCH  16  17
ENDBRANCH  11  16
ENDBRANCH   4   7
BRANCH   1  22
ATOM     21  C   UNL     1      -0.505  10.029  21.881  0.00  0.00    +0.000 C 
ATOM     22  C   UNL     1       0.234  10.256  20.778  0.00  0.00    +0.000 C 
BRANCH  21  24
ATOM     23  N   UNL     1      -2.077  11.840  21.544  0.00  0.00    +0.000 N 
ATOM     24  C   UNL     1      -1.270  11.183  22.455  0.00  0.00    +0.000 C 
ATOM     25  O   UNL     1      -1.132  11.464  23.643  0.00  0.00    +0.000 OA
ATOM     26  H   UNL     1      -2.109  11.496  20.594  0.00  0.00    +0.000 HD
BRANCH  23  30
ATOM     27  C   UNL     1      -4.400  15.317  22.336  0.00  0.00    +0.000 A 
ATOM     28  C   UNL     1      -4.811  14.080  22.824  0.00  0.00    +0.000 A 
ATOM     29  C   UNL     1      -4.050  12.931  22.576  0.00  0.00    +0.000 A 
ATOM     30  C   UNL     1      -2.878  12.987  21.821  0.00  0.00    +0.000 A 
ATOM     31  C   UNL     1      -2.479  14.231  21.317  0.00  0.00    +0.000 A 
ATOM     32  C   UNL     1      -3.238  15.392  21.573  0.00  0.00    +0.000 A 
BRANCH  27  34
ATOM     33  C   UNL     1      -5.542  16.523  24.017  0.00  0.00    +0.000 C 
ATOM     34  O   UNL     1      -5.236  16.354  22.641  0.00  0.00    +0.000 OA
ENDBRANCH  27  34
ENDBRANCH  23  30
ENDBRANCH  21  24
ENDBRANCH   1  22
TORSDOF 8
ENDMDL
MODEL 6
REMARK VINA RESULT:      -7.6      0.880      1.301
REMARK  Name = 
REMARK  9 active torsions:
REMARK  status: ('A' for Active; 'I' for Inactive)
REMARK    1  A    between atoms: C_1  and  O_2
REMARK    2  A    between atoms: O_2  and  C_3
REMARK    3  A    between atoms: C_6  and  N_7
REMARK    4  A    between atoms: C_8  and  C_10
REMARK    5  A    between atoms: C_11  and  C_12
REMARK    6  A    between atoms: C_15  and  C_16
REMARK    7  A    between atoms: C_20  and  C_21
REMARK    8  A    between atoms: C_21  and  C_22
REMARK    9  A    between atoms: C_22  and  O_24
REMARK                            x       y       z     vdW  Elec       q    Type
REMARK                         _______ _______ _______ _____ _____    ______ ____
ROOT
ATOM      1  C   UNL     1       0.857   9.323  20.078  0.00  0.00    +0.000 A 
ATOM      2  C   UNL     1       1.396   8.163  20.638  0.00  0.00    +0.000 A 
ATOM      3  C   UNL     1       2.248   7.335  19.885  0.00  0.00    +0.000 A 
ATOM      4  C   UNL     1       2.584   7.644  18.554  0.00  0.00    +0.000 A 
ATOM      5  C   UNL     1       2.011   8.783  17.983  0.00  0.00    +0.000 A 
ATOM      6  C   UNL     1       1.163   9.610  18.735  0.00  0.00    +0.000 A 
ENDROOT
BRANCH   4   7
ATOM      7  C   UNL     1       3.576   6.836  17.839  0.00  0.00    +0.000 A 
ATOM      8  N   UNL     1       4.408   7.229  16.891  0.00  0.00    +0.000 NA
ATOM      9  C   UNL     1       4.899   6.059  16.383  0.00  0.00    +0.000 A 
ATOM     10  C   UNL     1       5.726   5.831  15.277  0.00  0.00    +0.000 A 
ATOM     11  C   UNL     1       6.012   4.503  14.889  0.00  0.00    +0.000 A 
ATOM     12  C   UNL     1       5.494   3.433  15.647  0.00  0.00    +0.000 A 
ATOM     13  C   UNL     1       4.690   3.650  16.786  0.00  0.00    +0.000 A 
ATOM     14  C   UNL     1       4.404   4.978  17.089  0.00  0.00    +0.000 A 
ATOM     15  O   UNL     1       3.567   5.471  18.055  0.00  0.00    +0.000 OA
BRANCH  11  16
ATOM     16  C   UNL     1       6.728   4.326  13.563  0.00  0.00    +0.000 C 
BRANCH  16  17
ATOM     17  C   UNL     1       6.065   3.477  12.512  0.00  0.00    +0.000 C 
ATOM     18  O   UNL     1       6.660   2.640  11.847  0.00  0.00    +0.000 OA
BRANCH  17  19
ATOM     19  O   UNL     1       4.727   3.650  12.421  0.00  0.00    +0.000 OA
ATOM     20  H   UNL     1       4.471   4.453  11.926  0.00  0.00    +0.000 HD
ENDBRANCH  17  19
ENDBRANCH  16  17
ENDBRANCH  11  16
ENDBRANCH   4   7
BRANCH   1  22
ATOM     21  C   UNL     1       0.252  11.495  21.263  0.00  0.00    +0.000 C 
ATOM     22  C   UNL     1      -0.023  10.256  20.810  0.00  0.00    +0.000 C 
BRANCH  21  24
ATOM     23  N   UNL     1      -1.919  12.568  21.192  0.00  0.00    +0.000 N 
ATOM     24  C   UNL     1      -0.837  12.228  21.986  0.00  0.00    +0.000 C 
ATOM     25  O   UNL     1      -0.704  12.476  23.182  0.00  0.00    +0.000 OA
ATOM     26  H   UNL     1      -1.908  12.291  20.220  0.00  0.00    +0.000 HD
BRANCH  23  30
ATOM     27  C   UNL     1      -5.298  14.820  22.464  0.00  0.00    +0.000 A 
ATOM     28  C   UNL     1      -5.298  13.435  22.592  0.00  0.00    +0.000 A 
ATOM     29  C   UNL     1      -4.188  12.685  22.184  0.00  0.00    +0.000 A 
ATOM     30  C   UNL     1      -3.067  13.296  21.623  0.00  0.00    +0.000 A 
ATOM     31  C   UNL     1      -3.080  14.689  21.479  0.00  0.00    +0.000 A 
ATOM     32  C   UNL     1      -4.192  15.448  21.897  0.00  0.00    +0.000 A 
BRANCH  27  34
ATOM     33  C   UNL     1      -7.528  15.430  21.972  0.00  0.00    +0.000 C 
ATOM     34  O   UNL     1      -6.445  15.430  22.890  0.00  0.00    +0.000 OA
ENDBRANCH  27  34
ENDBRANCH  23  30
ENDBRANCH  21  24
ENDBRANCH   1  22
TORSDOF 8
ENDMDL
MODEL 7
REMARK VINA RESULT:      -7.6      2.254     13.372
REMARK  Name = 
REMARK  9 active torsions:
REMARK  status: ('A' for Active; 'I' for Inactive)
REMARK    1  A    between atoms: C_1  and  O_2
REMARK    2  A    between atoms: O_2  and  C_3
REMARK    3  A    between atoms: C_6  and  N_7
REMARK    4  A    between atoms: C_8  and  C_10
REMARK    5  A    between atoms: C_11  and  C_12
REMARK    6  A    between atoms: C_15  and  C_16
REMARK    7  A    between atoms: C_20  and  C_21
REMARK    8  A    between atoms: C_21  and  C_22
REMARK    9  A    between atoms: C_22  and  O_24
REMARK                            x       y       z     vdW  Elec       q    Type
REMARK                         _______ _______ _______ _____ _____    ______ ____
ROOT
ATOM      1  C   UNL     1       0.768   9.020  20.962  0.00  0.00    +0.000 A 
ATOM      2  C   UNL     1       0.165  10.078  20.279  0.00  0.00    +0.000 A 
ATOM      3  C   UNL     1      -0.584  11.043  20.975  0.00  0.00    +0.000 A 
ATOM      4  C   UNL     1      -0.750  10.977  22.371  0.00  0.00    +0.000 A 
ATOM      5  C   UNL     1      -0.180   9.894  23.046  0.00  0.00    +0.000 A 
ATOM      6  C   UNL     1       0.569   8.933  22.351  0.00  0.00    +0.000 A 
ENDROOT
BRANCH   4   7
ATOM      7  C   UNL     1      -1.423  12.066  23.085  0.00  0.00    +0.000 A 
ATOM      8  N   UNL     1      -2.716  12.198  23.324  0.00  0.00    +0.000 NA
ATOM      9  C   UNL     1      -2.836  13.489  23.759  0.00  0.00    +0.000 A 
ATOM     10  C   UNL     1      -3.979  14.243  24.045  0.00  0.00    +0.000 A 
ATOM     11  C   UNL     1      -3.841  15.608  24.383  0.00  0.00    +0.000 A 
ATOM     12  C   UNL     1      -2.553  16.174  24.468  0.00  0.00    +0.000 A 
ATOM     13  C   UNL     1      -1.390  15.414  24.218  0.00  0.00    +0.000 A 
ATOM     14  C   UNL     1      -1.593  14.090  23.842  0.00  0.00    +0.000 A 
ATOM     15  O   UNL     1      -0.666  13.167  23.435  0.00  0.00    +0.000 OA
BRANCH  11  16
ATOM     16  C   UNL     1      -5.122  16.416  24.465  0.00  0.00    +0.000 C 
BRANCH  16  17
ATOM     17  C   UNL     1      -5.615  17.085  23.210  0.00  0.00    +0.000 C 
ATOM     18  O   UNL     1      -5.058  18.043  22.692  0.00  0.00    +0.000 OA
BRANCH  17  19
ATOM     19  O   UNL     1      -6.685  16.483  22.644  0.00  0.00    +0.000 OA
ATOM     20  H   UNL     1      -7.498  17.022  22.675  0.00  0.00    +0.000 HD
ENDBRANCH  17  19
ENDBRANCH  16  17
ENDBRANCH  11  16
ENDBRANCH   4   7
BRANCH   1  22
ATOM     21  C   UNL     1       1.653   6.662  20.572  0.00  0.00    +0.000 C 
ATOM     22  C   UNL     1       1.590   7.982  20.307  0.00  0.00    +0.000 C 
BRANCH  21  24
ATOM     23  N   UNL     1       3.564   6.557  19.088  0.00  0.00    +0.000 N 
ATOM     24  C   UNL     1       2.587   5.831  19.747  0.00  0.00    +0.000 C 
ATOM     25  O   UNL     1       2.430   4.613  19.704  0.00  0.00    +0.000 OA
ATOM     26  H   UNL     1       3.589   7.559  19.220  0.00  0.00    +0.000 HD
BRANCH  23  30
ATOM     27  C   UNL     1       6.568   4.926  16.552  0.00  0.00    +0.000 A 
ATOM     28  C   UNL     1       5.442   5.528  15.999  0.00  0.00    +0.000 A 
ATOM     29  C   UNL     1       4.451   6.075  16.824  0.00  0.00    +0.000 A 
ATOM     30  C   UNL     1       4.552   6.015  18.214  0.00  0.00    +0.000 A 
ATOM     31  C   UNL     1       5.678   5.392  18.766  0.00  0.00    +0.000 A 
ATOM     32  C   UNL     1       6.682   4.848  17.938  0.00  0.00    +0.000 A 
BRANCH  27  34
ATOM     33  C   UNL     1       7.227   4.798  14.287  0.00  0.00    +0.000 C 
ATOM     34  O   UNL     1       7.452   4.425  15.638  0.00  0.00    +0.000 OA
ENDBRANCH  27  34
ENDBRANCH  23  30
ENDBRANCH  21  24
ENDBRANCH   1  22
TORSDOF 8
ENDMDL
MODEL 8
REMARK VINA RESULT:      -7.6      1.206      1.498
REMARK  Name = 
REMARK  9 active torsions:
REMARK  status: ('A' for Active; 'I' for Inactive)
REMARK    1  A    between atoms: C_1  and  O_2
REMARK    2  A    between atoms: O_2  and  C_3
REMARK    3  A    between atoms: C_6  and  N_7
REMARK    4  A    between atoms: C_8  and  C_10
REMARK    5  A    between atoms: C_11  and  C_12
REMARK    6  A    between atoms: C_15  and  C_16
REMARK    7  A    between atoms: C_20  and  C_21
REMARK    8  A    between atoms: C_21  and  C_22
REMARK    9  A    between atoms: C_22  and  O_24
REMARK                            x       y       z     vdW  Elec       q    Type
REMARK                         _______ _______ _______ _____ _____    ______ ____
ROOT
ATOM      1  C   UNL     1       0.891   9.423  19.854  0.00  0.00    +0.000 A 
ATOM      2  C   UNL     1       1.409   8.269  20.445  0.00  0.00    +0.000 A 
ATOM      3  C   UNL     1       2.257   7.414  19.720  0.00  0.00    +0.000 A 
ATOM      4  C   UNL     1       2.612   7.689  18.387  0.00  0.00    +0.000 A 
ATOM      5  C   UNL     1       2.060   8.823  17.785  0.00  0.00    +0.000 A 
ATOM      6  C   UNL     1       1.215   9.677  18.509  0.00  0.00    +0.000 A 
ENDROOT
BRANCH   4   7
ATOM      7  C   UNL     1       3.601   6.852  17.700  0.00  0.00    +0.000 A 
ATOM      8  N   UNL     1       4.429   7.208  16.734  0.00  0.00    +0.000 NA
ATOM      9  C   UNL     1       4.918   6.018  16.271  0.00  0.00    +0.000 A 
ATOM     10  C   UNL     1       5.740   5.745  15.172  0.00  0.00    +0.000 A 
ATOM     11  C   UNL     1       6.024   4.402  14.836  0.00  0.00    +0.000 A 
ATOM     12  C   UNL     1       5.510   3.364  15.639  0.00  0.00    +0.000 A 
ATOM     13  C   UNL     1       4.710   3.627  16.772  0.00  0.00    +0.000 A 
ATOM     14  C   UNL     1       4.425   4.965  17.022  0.00  0.00    +0.000 A 
ATOM     15  O   UNL     1       3.593   5.497  17.971  0.00  0.00    +0.000 OA
BRANCH  11  16
ATOM     16  C   UNL     1       6.734   4.172  13.516  0.00  0.00    +0.000 C 
BRANCH  16  17
ATOM     17  C   UNL     1       6.010   3.390  12.453  0.00  0.00    +0.000 C 
ATOM     18  O   UNL     1       6.534   2.504  11.792  0.00  0.00    +0.000 OA
BRANCH  17  19
ATOM     19  O   UNL     1       4.695   3.687  12.345  0.00  0.00    +0.000 OA
ATOM     20  H   UNL     1       4.447   4.050  11.473  0.00  0.00    +0.000 HD
ENDBRANCH  17  19
ENDBRANCH  16  17
ENDBRANCH  11  16
ENDBRANCH   4   7
BRANCH   1  22
ATOM     21  C   UNL     1      -0.262  10.468  21.871  0.00  0.00    +0.000 C 
ATOM     22  C   UNL     1       0.016  10.384  20.555  0.00  0.00    +0.000 C 
BRANCH  21  24
ATOM     23  N   UNL     1      -2.068  11.989  21.334  0.00  0.00    +0.000 N 
ATOM     24  C   UNL     1      -1.199  11.549  22.317  0.00  0.00    +0.000 C 
ATOM     25  O   UNL     1      -1.133  11.963  23.472  0.00  0.00    +0.000 OA
ATOM     26  H   UNL     1      -2.025  11.553  20.424  0.00  0.00    +0.000 HD
BRANCH  23  30
ATOM     27  C   UNL     1      -5.005  15.031  21.817  0.00  0.00    +0.000 A 
ATOM     28  C   UNL     1      -3.810  15.316  21.165  0.00  0.00    +0.000 A 
ATOM     29  C   UNL     1      -2.840  14.321  20.994  0.00  0.00    +0.000 A 
ATOM     30  C   UNL     1      -3.032  13.030  21.485  0.00  0.00    +0.000 A 
ATOM     31  C   UNL     1      -4.229  12.752  22.157  0.00  0.00    +0.000 A 
ATOM     32  C   UNL     1      -5.212  13.750  22.324  0.00  0.00    +0.000 A 
BRANCH  27  34
ATOM     33  C   UNL     1      -5.562  17.217  21.113  0.00  0.00    +0.000 C 
ATOM     34  O   UNL     1      -5.861  16.091  21.926  0.00  0.00    +0.000 OA
ENDBRANCH  27  34
ENDBRANCH  23  30
ENDBRANCH  21  24
ENDBRANCH   1  22
TORSDOF 8
ENDMDL
MODEL 9
REMARK VINA RESULT:      -7.6      2.112     13.591
REMARK  Name = 
REMARK  9 active torsions:
REMARK  status: ('A' for Active; 'I' for Inactive)
REMARK    1  A    between atoms: C_1  and  O_2
REMARK    2  A    between atoms: O_2  and  C_3
REMARK    3  A    between atoms: C_6  and  N_7
REMARK    4  A    between atoms: C_8  and  C_10
REMARK    5  A    between atoms: C_11  and  C_12
REMARK    6  A    between atoms: C_15  and  C_16
REMARK    7  A    between atoms: C_20  and  C_21
REMARK    8  A    between atoms: C_21  and  C_22
REMARK    9  A    between atoms: C_22  and  O_24
REMARK                            x       y       z     vdW  Elec       q    Type
REMARK                         _______ _______ _______ _____ _____    ______ ____
ROOT
ATOM      1  C   UNL     1       0.806   9.070  20.975  0.00  0.00    +0.000 A 
ATOM      2  C   UNL     1       0.269  10.160  20.286  0.00  0.00    +0.000 A 
ATOM      3  C   UNL     1      -0.568  11.079  20.944  0.00  0.00    +0.000 A 
ATOM      4  C   UNL     1      -0.889  10.936  22.306  0.00  0.00    +0.000 A 
ATOM      5  C   UNL     1      -0.384   9.822  22.982  0.00  0.00    +0.000 A 
ATOM      6  C   UNL     1       0.452   8.906  22.327  0.00  0.00    +0.000 A 
ENDROOT
BRANCH   4   7
ATOM      7  C   UNL     1      -1.653  11.979  22.996  0.00  0.00    +0.000 A 
ATOM      8  N   UNL     1      -2.961  12.037  23.176  0.00  0.00    +0.000 NA
ATOM      9  C   UNL     1      -3.172  13.315  23.615  0.00  0.00    +0.000 A 
ATOM     10  C   UNL     1      -4.367  14.003  23.853  0.00  0.00    +0.000 A 
ATOM     11  C   UNL     1      -4.320  15.370  24.208  0.00  0.00    +0.000 A 
ATOM     12  C   UNL     1      -3.070  16.004  24.357  0.00  0.00    +0.000 A 
ATOM     13  C   UNL     1      -1.857  15.312  24.156  0.00  0.00    +0.000 A 
ATOM     14  C   UNL     1      -1.969  13.983  23.761  0.00  0.00    +0.000 A 
ATOM     15  O   UNL     1      -0.975  13.116  23.390  0.00  0.00    +0.000 OA
BRANCH  11  16
ATOM     16  C   UNL     1      -5.646  16.105  24.237  0.00  0.00    +0.000 C 
BRANCH  16  17
ATOM     17  C   UNL     1      -5.626  17.581  24.531  0.00  0.00    +0.000 C 
ATOM     18  O   UNL     1      -5.999  18.434  23.736  0.00  0.00    +0.000 OA
BRANCH  17  19
ATOM     19  O   UNL     1      -5.242  17.891  25.790  0.00  0.00    +0.000 OA
ATOM     20  H   UNL     1      -4.303  17.694  25.971  0.00  0.00    +0.000 HD
ENDBRANCH  17  19
ENDBRANCH  16  17
ENDBRANCH  11  16
ENDBRANCH   4   7
BRANCH   1  22
ATOM     21  C   UNL     1       1.694   6.734  20.480  0.00  0.00    +0.000 C 
ATOM     22  C   UNL     1       1.711   8.077  20.363  0.00  0.00    +0.000 C 
BRANCH  21  24
ATOM     23  N   UNL     1       3.052   6.462  18.493  0.00  0.00    +0.000 N 
ATOM     24  C   UNL     1       2.746   5.960  19.746  0.00  0.00    +0.000 C 
ATOM     25  O   UNL     1       3.241   4.968  20.276  0.00  0.00    +0.000 OA
ATOM     26  H   UNL     1       2.577   7.297  18.181  0.00  0.00    +0.000 HD
BRANCH  23  30
ATOM     27  C   UNL     1       5.799   4.687  15.770  0.00  0.00    +0.000 A 
ATOM     28  C   UNL     1       6.034   5.969  16.258  0.00  0.00    +0.000 A 
ATOM     29  C   UNL     1       5.141   6.559  17.160  0.00  0.00    +0.000 A 
ATOM     30  C   UNL     1       3.988   5.894  17.578  0.00  0.00    +0.000 A 
ATOM     31  C   UNL     1       3.747   4.611  17.071  0.00  0.00    +0.000 A 
ATOM     32  C   UNL     1       4.649   4.010  16.168  0.00  0.00    +0.000 A 
BRANCH  27  34
ATOM     33  C   UNL     1       6.261   3.828  13.618  0.00  0.00    +0.000 C 
ATOM     34  O   UNL     1       6.741   4.232  14.891  0.00  0.00    +0.000 OA
ENDBRANCH  27  34
ENDBRANCH  23  30
ENDBRANCH  21  24
ENDBRANCH   1  22
TORSDOF 8
ENDMDL
