MODEL 1
REMARK VINA RESULT:      -6.5      0.000      0.000
REMARK  Name = 
REMARK  9 active torsions:
REMARK  status: ('A' for Active; 'I' for Inactive)
REMARK    1  A    between atoms: CG1_1  and  CB_2
REMARK    2  A    between atoms: CB_2  and  CG2_3
REMARK    3  A    between atoms: CB_2  and  CA_4
REMARK    4  A    between atoms: CA_4  and  C_5
REMARK    5  A    between atoms: CA_4  and  N_7
REMARK    6  A    between atoms: C_5  and  O_6
REMARK    7  A    between atoms: N_21  and  C_22
REMARK    8  A    between atoms: C_22  and  C_23
REMARK    9  A    between atoms: C_22  and  C_24
REMARK                            x       y       z     vdW  Elec       q    Type
REMARK                         _______ _______ _______ _____ _____    ______ ____
ROOT
ATOM      1  N   VAL A   1       1.382   8.966  19.818  0.00  0.00    +0.000 N 
ATOM      2  C   UNK A   0       1.952   7.798  19.319  0.00  0.00    +0.000 A 
ATOM      3  N   UNK A   0       2.815   7.973  18.294  0.00  0.00    +0.000 NA
ATOM      4  C   UNK A   0       3.514   6.911  17.783  0.00  0.00    +0.000 A 
ATOM      5  N   UNK A   0       4.473   7.154  16.777  0.00  0.00    +0.000 N 
ATOM      6  C   UNK A   0       5.486   6.269  16.373  0.00  0.00    +0.000 A 
ATOM      7  C   UNK A   0       6.313   5.663  17.322  0.00  0.00    +0.000 A 
ATOM      8  C   UNK A   0       7.293   4.761  16.918  0.00  0.00    +0.000 A 
ATOM      9  C   UNK A   0       7.440   4.494  15.567  0.00  0.00    +0.000 A 
ATOM     10  C   UNK A   0       6.608   5.163  14.680  0.00  0.00    +0.000 A 
ATOM     11  N   UNK A   0       5.656   6.053  15.050  0.00  0.00    +0.000 NA
ATOM     12  C   UNK A   0       3.231   5.640  18.319  0.00  0.00    +0.000 A 
ATOM     13  N   UNK A   0       3.686   4.372  18.015  0.00  0.00    +0.000 NA
ATOM     14  C   UNK A   0       3.091   3.574  18.868  0.00  0.00    +0.000 A 
ATOM     15  N   UNK A   0       2.279   4.267  19.727  0.00  0.00    +0.000 N 
ATOM     16  C   UNK A   0       2.323   5.588  19.362  0.00  0.00    +0.000 A 
ATOM     17  N   UNK A   0       1.669   6.621  19.911  0.00  0.00    +0.000 NA
ATOM     18  H   VAL A   1       1.941   9.739  19.470  0.00  0.00    +0.000 HD
ATOM     19  H   UNK A   0       4.028   7.562  15.963  0.00  0.00    +0.000 HD
ENDROOT
BRANCH  15  20
ATOM     20  C   UNK A   0       1.559   3.664  20.837  0.00  0.00    +0.000 C 
ATOM     21  C   UNK A   0       0.370   2.829  20.362  0.00  0.00    +0.000 C 
ATOM     22  C   UNK A   0       2.474   2.879  21.770  0.00  0.00    +0.000 C 
ENDBRANCH  15  20
BRANCH   1  23
ATOM     23  CA  VAL A   1       1.051   8.990  21.248  0.00  0.00    +0.000 C 
BRANCH  23  25
ATOM     24  CG1 VAL A   1      -0.833  10.597  20.530  0.00  0.00    +0.000 C 
ATOM     25  CB  VAL A   1      -0.410   9.486  21.497  0.00  0.00    +0.000 C 
ATOM     26  CG2 VAL A   1      -0.706   9.909  22.940  0.00  0.00    +0.000 C 
ENDBRANCH  23  25
BRANCH  23  27
ATOM     27  C   VAL A   1       2.084   9.824  22.051  0.00  0.00    +0.000 C 
BRANCH  27  28
ATOM     28  O   VAL A   1       2.541   9.139  23.214  0.00  0.00    +0.000 OA
ATOM     29  H   VAL A   1       1.787   9.085  23.827  0.00  0.00    +0.000 HD
ENDBRANCH  27  28
ENDBRANCH  23  27
ENDBRANCH   1  23
TORSDOF 5
ENDMDL
MODEL 2
REMARK VINA RESULT:      -6.3      7.988     11.255
REMARK  Name = 
REMARK  9 active torsions:
REMARK  status: ('A' for Active; 'I' for Inactive)
REMARK    1  A    between atoms: CG1_1  and  CB_2
REMARK    2  A    between atoms: CB_2  and  CG2_3
REMARK    3  A    between atoms: CB_2  and  CA_4
REMARK    4  A    between atoms: CA_4  and  C_5
REMARK    5  A    between atoms: CA_4  and  N_7
REMARK    6  A    between atoms: C_5  and  O_6
REMARK    7  A    between atoms: N_21  and  C_22
REMARK    8  A    between atoms: C_22  and  C_23
REMARK    9  A    between atoms: C_22  and  C_24
REMARK                            x       y       z     vdW  Elec       q    Type
REMARK                         _______ _______ _______ _____ _____    ______ ____
ROOT
ATOM      1  N   VAL A   1       8.888  12.854  17.506  0.00  0.00    +0.000 N 
ATOM      2  C   UNK A   0       8.039  13.712  18.200  0.00  0.00    +0.000 A 
ATOM      3  N   UNK A   0       6.922  14.077  17.533  0.00  0.00    +0.000 NA
ATOM      4  C   UNK A   0       5.963  14.840  18.146  0.00  0.00    +0.000 A 
ATOM      5  N   UNK A   0       4.771  15.119  17.446  0.00  0.00    +0.000 N 
ATOM      6  C   UNK A   0       3.575  15.593  18.010  0.00  0.00    +0.000 A 
ATOM      7  C   UNK A   0       3.027  14.967  19.132  0.00  0.00    +0.000 A 
ATOM      8  C   UNK A   0       1.861  15.462  19.706  0.00  0.00    +0.000 A 
ATOM      9  C   UNK A   0       1.251  16.567  19.135  0.00  0.00    +0.000 A 
ATOM     10  C   UNK A   0       1.832  17.112  17.998  0.00  0.00    +0.000 A 
ATOM     11  N   UNK A   0       2.960  16.640  17.416  0.00  0.00    +0.000 NA
ATOM     12  C   UNK A   0       6.235  15.280  19.455  0.00  0.00    +0.000 A 
ATOM     13  N   UNK A   0       5.545  16.092  20.335  0.00  0.00    +0.000 NA
ATOM     14  C   UNK A   0       6.274  16.127  21.423  0.00  0.00    +0.000 A 
ATOM     15  N   UNK A   0       7.403  15.361  21.301  0.00  0.00    +0.000 N 
ATOM     16  C   UNK A   0       7.417  14.845  20.030  0.00  0.00    +0.000 A 
ATOM     17  N   UNK A   0       8.342  14.057  19.466  0.00  0.00    +0.000 NA
ATOM     18  H   VAL A   1       8.353  12.471  16.732  0.00  0.00    +0.000 HD
ATOM     19  H   UNK A   0       4.977  15.632  16.596  0.00  0.00    +0.000 HD
ENDROOT
BRANCH  15  20
ATOM     20  C   UNK A   0       8.358  15.135  22.374  0.00  0.00    +0.000 C 
ATOM     21  C   UNK A   0       8.437  16.324  23.330  0.00  0.00    +0.000 C 
ATOM     22  C   UNK A   0       8.110  13.823  23.110  0.00  0.00    +0.000 C 
ENDBRANCH  15  20
BRANCH   1  23
ATOM     23  CA  VAL A   1       9.663  11.894  18.302  0.00  0.00    +0.000 C 
BRANCH  23  25
ATOM     24  CG1 VAL A   1      12.122  11.749  19.064  0.00  0.00    +0.000 C 
ATOM     25  CB  VAL A   1      11.166  11.865  17.872  0.00  0.00    +0.000 C 
ATOM     26  CG2 VAL A   1      11.596  13.026  16.969  0.00  0.00    +0.000 C 
ENDBRANCH  23  25
BRANCH  23  27
ATOM     27  C   VAL A   1       9.027  10.480  18.254  0.00  0.00    +0.000 C 
BRANCH  27  28
ATOM     28  O   VAL A   1       9.251   9.748  19.456  0.00  0.00    +0.000 OA
ATOM     29  H   VAL A   1      10.150   9.965  19.759  0.00  0.00    +0.000 HD
ENDBRANCH  27  28
ENDBRANCH  23  27
ENDBRANCH   1  23
TORSDOF 5
ENDMDL
MODEL 3
REMARK VINA RESULT:      -6.1      8.196      9.448
REMARK  Name = 
REMARK  9 active torsions:
REMARK  status: ('A' for Active; 'I' for Inactive)
REMARK    1  A    between atoms: CG1_1  and  CB_2
REMARK    2  A    between atoms: CB_2  and  CG2_3
REMARK    3  A    between atoms: CB_2  and  CA_4
REMARK    4  A    between atoms: CA_4  and  C_5
REMARK    5  A    between atoms: CA_4  and  N_7
REMARK    6  A    between atoms: C_5  and  O_6
REMARK    7  A    between atoms: N_21  and  C_22
REMARK    8  A    between atoms: C_22  and  C_23
REMARK    9  A    between atoms: C_22  and  C_24
REMARK                            x       y       z     vdW  Elec       q    Type
REMARK                         _______ _______ _______ _____ _____    ______ ____
ROOT
ATOM      1  N   VAL A   1       6.999  12.018  25.447  0.00  0.00    +0.000 N 
ATOM      2  C   UNK A   0       7.329  12.526  24.193  0.00  0.00    +0.000 A 
ATOM      3  N   UNK A   0       8.437  11.995  23.632  0.00  0.00    +0.000 NA
ATOM      4  C   UNK A   0       8.808  12.343  22.360  0.00  0.00    +0.000 A 
ATOM      5  N   UNK A   0       9.918  11.694  21.778  0.00  0.00    +0.000 N 
ATOM      6  C   UNK A   0      10.241  11.681  20.412  0.00  0.00    +0.000 A 
ATOM      7  C   UNK A   0       9.273  11.352  19.460  0.00  0.00    +0.000 A 
ATOM      8  C   UNK A   0       9.590  11.373  18.106  0.00  0.00    +0.000 A 
ATOM      9  C   UNK A   0      10.880  11.707  17.727  0.00  0.00    +0.000 A 
ATOM     10  C   UNK A   0      11.799  11.984  18.730  0.00  0.00    +0.000 A 
ATOM     11  N   UNK A   0      11.515  11.957  20.054  0.00  0.00    +0.000 NA
ATOM     12  C   UNK A   0       8.033  13.323  21.712  0.00  0.00    +0.000 A 
ATOM     13  N   UNK A   0       8.144  13.946  20.484  0.00  0.00    +0.000 NA
ATOM     14  C   UNK A   0       7.116  14.756  20.409  0.00  0.00    +0.000 A 
ATOM     15  N   UNK A   0       6.330  14.679  21.528  0.00  0.00    +0.000 N 
ATOM     16  C   UNK A   0       6.925  13.798  22.393  0.00  0.00    +0.000 A 
ATOM     17  N   UNK A   0       6.516  13.431  23.615  0.00  0.00    +0.000 NA
ATOM     18  H   VAL A   1       7.524  11.156  25.564  0.00  0.00    +0.000 HD
ATOM     19  H   UNK A   0      10.751  11.869  22.327  0.00  0.00    +0.000 HD
ENDROOT
BRANCH  15  20
ATOM     20  C   UNK A   0       5.074  15.393  21.695  0.00  0.00    +0.000 C 
ATOM     21  C   UNK A   0       5.277  16.769  22.329  0.00  0.00    +0.000 C 
ATOM     22  C   UNK A   0       4.269  15.472  20.402  0.00  0.00    +0.000 C 
ENDBRANCH  15  20
BRANCH   1  23
ATOM     23  CA  VAL A   1       5.573  11.966  25.793  0.00  0.00    +0.000 C 
BRANCH  23  25
ATOM     24  CG1 VAL A   1       6.431  13.631  27.565  0.00  0.00    +0.000 C 
ATOM     25  CB  VAL A   1       5.201  13.028  26.879  0.00  0.00    +0.000 C 
ATOM     26  CG2 VAL A   1       4.200  12.543  27.933  0.00  0.00    +0.000 C 
ENDBRANCH  23  25
BRANCH  23  27
ATOM     27  C   VAL A   1       5.149  10.536  26.221  0.00  0.00    +0.000 C 
BRANCH  27  28
ATOM     28  O   VAL A   1       4.340   9.898  25.237  0.00  0.00    +0.000 OA
ATOM     29  H   VAL A   1       3.711  10.564  24.909  0.00  0.00    +0.000 HD
ENDBRANCH  27  28
ENDBRANCH  23  27
ENDBRANCH   1  23
TORSDOF 5
ENDMDL
MODEL 4
REMARK VINA RESULT:      -6.0      8.395     11.889
REMARK  Name = 
REMARK  9 active torsions:
REMARK  status: ('A' for Active; 'I' for Inactive)
REMARK    1  A    between atoms: CG1_1  and  CB_2
REMARK    2  A    between atoms: CB_2  and  CG2_3
REMARK    3  A    between atoms: CB_2  and  CA_4
REMARK    4  A    between atoms: CA_4  and  C_5
REMARK    5  A    between atoms: CA_4  and  N_7
REMARK    6  A    between atoms: C_5  and  O_6
REMARK    7  A    between atoms: N_21  and  C_22
REMARK    8  A    between atoms: C_22  and  C_23
REMARK    9  A    between atoms: C_22  and  C_24
REMARK                            x       y       z     vdW  Elec       q    Type
REMARK                         _______ _______ _______ _____ _____    ______ ____
ROOT
ATOM      1  N   VAL A   1       8.772  12.520  17.741  0.00  0.00    +0.000 N 
ATOM      2  C   UNK A   0       8.128  13.708  18.075  0.00  0.00    +0.000 A 
ATOM      3  N   UNK A   0       6.871  13.835  17.594  0.00  0.00    +0.000 NA
ATOM      4  C   UNK A   0       6.101  14.914  17.936  0.00  0.00    +0.000 A 
ATOM      5  N   UNK A   0       4.763  14.959  17.488  0.00  0.00    +0.000 N 
ATOM      6  C   UNK A   0       3.754  15.797  17.991  0.00  0.00    +0.000 A 
ATOM      7  C   UNK A   0       3.526  15.880  19.366  0.00  0.00    +0.000 A 
ATOM      8  C   UNK A   0       2.547  16.737  19.860  0.00  0.00    +0.000 A 
ATOM      9  C   UNK A   0       1.799  17.483  18.964  0.00  0.00    +0.000 A 
ATOM     10  C   UNK A   0       2.054  17.318  17.610  0.00  0.00    +0.000 A 
ATOM     11  N   UNK A   0       2.994  16.482  17.107  0.00  0.00    +0.000 NA
ATOM     12  C   UNK A   0       6.703  15.905  18.735  0.00  0.00    +0.000 A 
ATOM     13  N   UNK A   0       6.261  17.124  19.210  0.00  0.00    +0.000 NA
ATOM     14  C   UNK A   0       7.250  17.599  19.926  0.00  0.00    +0.000 A 
ATOM     15  N   UNK A   0       8.314  16.738  19.954  0.00  0.00    +0.000 N 
ATOM     16  C   UNK A   0       7.998  15.665  19.160  0.00  0.00    +0.000 A 
ATOM     17  N   UNK A   0       8.750  14.591  18.880  0.00  0.00    +0.000 NA
ATOM     18  H   VAL A   1       8.056  11.877  17.418  0.00  0.00    +0.000 HD
ATOM     19  H   UNK A   0       4.735  14.956  16.475  0.00  0.00    +0.000 HD
ENDROOT
BRANCH  15  20
ATOM     20  C   UNK A   0       9.520  16.951  20.738  0.00  0.00    +0.000 C 
ATOM     21  C   UNK A   0       9.694  15.888  21.822  0.00  0.00    +0.000 C 
ATOM     22  C   UNK A   0      10.765  17.092  19.870  0.00  0.00    +0.000 C 
ENDBRANCH  15  20
BRANCH   1  23
ATOM     23  CA  VAL A   1       9.738  11.989  18.711  0.00  0.00    +0.000 C 
BRANCH  23  25
ATOM     24  CG1 VAL A   1      12.256  11.628  19.134  0.00  0.00    +0.000 C 
ATOM     25  CB  VAL A   1      11.159  11.823  18.081  0.00  0.00    +0.000 C 
ATOM     26  CG2 VAL A   1      11.562  12.934  17.106  0.00  0.00    +0.000 C 
ENDBRANCH  23  25
BRANCH  23  27
ATOM     27  C   VAL A   1       9.233  10.664  19.341  0.00  0.00    +0.000 C 
BRANCH  27  28
ATOM     28  O   VAL A   1       8.707   9.770  18.364  0.00  0.00    +0.000 OA
ATOM     29  H   VAL A   1       8.319   9.018  18.844  0.00  0.00    +0.000 HD
ENDBRANCH  27  28
ENDBRANCH  23  27
ENDBRANCH   1  23
TORSDOF 5
ENDMDL
MODEL 5
REMARK VINA RESULT:      -5.9      2.434      6.797
REMARK  Name = 
REMARK  9 active torsions:
REMARK  status: ('A' for Active; 'I' for Inactive)
REMARK    1  A    between atoms: CG1_1  and  CB_2
REMARK    2  A    between atoms: CB_2  and  CG2_3
REMARK    3  A    between atoms: CB_2  and  CA_4
REMARK    4  A    between atoms: CA_4  and  C_5
REMARK    5  A    between atoms: CA_4  and  N_7
REMARK    6  A    between atoms: C_5  and  O_6
REMARK    7  A    between atoms: N_21  and  C_22
REMARK    8  A    between atoms: C_22  and  C_23
REMARK    9  A    between atoms: C_22  and  C_24
REMARK                            x       y       z     vdW  Elec       q    Type
REMARK                         _______ _______ _______ _____ _____    ______ ____
ROOT
ATOM      1  N   VAL A   1       5.110   5.847  16.855  0.00  0.00    +0.000 N 
ATOM      2  C   UNK A   0       4.169   6.391  17.725  0.00  0.00    +0.000 A 
ATOM      3  N   UNK A   0       3.816   7.668  17.463  0.00  0.00    +0.000 NA
ATOM      4  C   UNK A   0       2.829   8.281  18.189  0.00  0.00    +0.000 A 
ATOM      5  N   UNK A   0       2.426   9.582  17.821  0.00  0.00    +0.000 N 
ATOM      6  C   UNK A   0       1.245  10.225  18.225  0.00  0.00    +0.000 A 
ATOM      7  C   UNK A   0       0.013   9.575  18.111  0.00  0.00    +0.000 A 
ATOM      8  C   UNK A   0      -1.149  10.205  18.545  0.00  0.00    +0.000 A 
ATOM      9  C   UNK A   0      -1.061  11.483  19.070  0.00  0.00    +0.000 A 
ATOM     10  C   UNK A   0       0.191  12.081  19.115  0.00  0.00    +0.000 A 
ATOM     11  N   UNK A   0       1.334  11.491  18.688  0.00  0.00    +0.000 NA
ATOM     12  C   UNK A   0       2.268   7.549  19.253  0.00  0.00    +0.000 A 
ATOM     13  N   UNK A   0       1.320   7.860  20.209  0.00  0.00    +0.000 NA
ATOM     14  C   UNK A   0       1.178   6.772  20.926  0.00  0.00    +0.000 A 
ATOM     15  N   UNK A   0       1.979   5.758  20.472  0.00  0.00    +0.000 N 
ATOM     16  C   UNK A   0       2.717   6.251  19.426  0.00  0.00    +0.000 A 
ATOM     17  N   UNK A   0       3.644   5.617  18.694  0.00  0.00    +0.000 NA
ATOM     18  H   VAL A   1       5.140   6.450  16.038  0.00  0.00    +0.000 HD
ATOM     19  H   UNK A   0       3.208  10.222  17.893  0.00  0.00    +0.000 HD
ENDROOT
BRANCH  15  20
ATOM     20  C   UNK A   0       1.974   4.407  21.011  0.00  0.00    +0.000 C 
ATOM     21  C   UNK A   0       0.855   3.556  20.412  0.00  0.00    +0.000 C 
ATOM     22  C   UNK A   0       3.334   3.727  20.897  0.00  0.00    +0.000 C 
ENDBRANCH  15  20
BRANCH   1  23
ATOM     23  CA  VAL A   1       5.027   4.404  16.598  0.00  0.00    +0.000 C 
BRANCH  23  25
ATOM     24  CG1 VAL A   1       7.307   4.728  15.439  0.00  0.00    +0.000 C 
ATOM     25  CB  VAL A   1       5.978   3.965  15.438  0.00  0.00    +0.000 C 
ATOM     26  CG2 VAL A   1       5.349   4.013  14.042  0.00  0.00    +0.000 C 
ENDBRANCH  23  25
BRANCH  23  27
ATOM     27  C   VAL A   1       3.563   3.962  16.337  0.00  0.00    +0.000 C 
BRANCH  27  28
ATOM     28  O   VAL A   1       3.077   3.084  17.349  0.00  0.00    +0.000 OA
ATOM     29  H   VAL A   1       2.223   3.440  17.650  0.00  0.00    +0.000 HD
ENDBRANCH  27  28
ENDBRANCH  23  27
ENDBRANCH   1  23
TORSDOF 5
ENDMDL
MODEL 6
REMARK VINA RESULT:      -5.8      3.658      6.141
REMARK  Name = 
REMARK  9 active torsions:
REMARK  status: ('A' for Active; 'I' for Inactive)
REMARK    1  A    between atoms: CG1_1  and  CB_2
REMARK    2  A    between atoms: CB_2  and  CG2_3
REMARK    3  A    between atoms: CB_2  and  CA_4
REMARK    4  A    between atoms: CA_4  and  C_5
REMARK    5  A    between atoms: CA_4  and  N_7
REMARK    6  A    between atoms: C_5  and  O_6
REMARK    7  A    between atoms: N_21  and  C_22
REMARK    8  A    between atoms: C_22  and  C_23
REMARK    9  A    between atoms: C_22  and  C_24
REMARK                            x       y       z     vdW  Elec       q    Type
REMARK                         _______ _______ _______ _____ _____    ______ ____
ROOT
ATOM      1  N   VAL A   1       2.626  13.017  17.743  0.00  0.00    +0.000 N 
ATOM      2  C   UNK A   0       2.035  11.887  18.302  0.00  0.00    +0.000 A 
ATOM      3  N   UNK A   0       2.426  10.710  17.763  0.00  0.00    +0.000 NA
ATOM      4  C   UNK A   0       1.990   9.524  18.292  0.00  0.00    +0.000 A 
ATOM      5  N   UNK A   0       2.496   8.320  17.759  0.00  0.00    +0.000 N 
ATOM      6  C   UNK A   0       2.420   7.055  18.365  0.00  0.00    +0.000 A 
ATOM      7  C   UNK A   0       2.809   6.885  19.695  0.00  0.00    +0.000 A 
ATOM      8  C   UNK A   0       2.700   5.636  20.300  0.00  0.00    +0.000 A 
ATOM      9  C   UNK A   0       2.219   4.572  19.554  0.00  0.00    +0.000 A 
ATOM     10  C   UNK A   0       1.890   4.808  18.226  0.00  0.00    +0.000 A 
ATOM     11  N   UNK A   0       1.999   6.012  17.615  0.00  0.00    +0.000 NA
ATOM     12  C   UNK A   0       1.070   9.596  19.355  0.00  0.00    +0.000 A 
ATOM     13  N   UNK A   0       0.389   8.632  20.074  0.00  0.00    +0.000 NA
ATOM     14  C   UNK A   0      -0.312   9.291  20.964  0.00  0.00    +0.000 A 
ATOM     15  N   UNK A   0      -0.109  10.642  20.869  0.00  0.00    +0.000 N 
ATOM     16  C   UNK A   0       0.741  10.859  19.815  0.00  0.00    +0.000 A 
ATOM     17  N   UNK A   0       1.197  12.029  19.346  0.00  0.00    +0.000 NA
ATOM     18  H   VAL A   1       3.432  12.699  17.215  0.00  0.00    +0.000 HD
ATOM     19  H   UNK A   0       2.258   8.246  16.777  0.00  0.00    +0.000 HD
ENDROOT
BRANCH  15  20
ATOM     20  C   UNK A   0      -0.682  11.621  21.779  0.00  0.00    +0.000 C 
ATOM     21  C   UNK A   0      -1.796  12.432  21.120  0.00  0.00    +0.000 C 
ATOM     22  C   UNK A   0      -1.128  11.001  23.099  0.00  0.00    +0.000 C 
ENDBRANCH  15  20
BRANCH   1  23
ATOM     23  CA  VAL A   1       2.839  14.167  18.631  0.00  0.00    +0.000 C 
BRANCH  23  25
ATOM     24  CG1 VAL A   1       2.688  16.625  17.867  0.00  0.00    +0.000 C 
ATOM     25  CB  VAL A   1       1.908  15.366  18.260  0.00  0.00    +0.000 C 
ATOM     26  CG2 VAL A   1       0.856  15.713  19.319  0.00  0.00    +0.000 C 
ENDBRANCH  23  25
BRANCH  23  27
ATOM     27  C   VAL A   1       4.332  14.588  18.658  0.00  0.00    +0.000 C 
BRANCH  27  28
ATOM     28  O   VAL A   1       5.069  14.027  17.575  0.00  0.00    +0.000 OA
ATOM     29  H   VAL A   1       5.601  14.744  17.189  0.00  0.00    +0.000 HD
ENDBRANCH  27  28
ENDBRANCH  23  27
ENDBRANCH   1  23
TORSDOF 5
ENDMDL
MODEL 7
REMARK VINA RESULT:      -5.8      4.444      9.907
REMARK  Name = 
REMARK  9 active torsions:
REMARK  status: ('A' for Active; 'I' for Inactive)
REMARK    1  A    between atoms: CG1_1  and  CB_2
REMARK    2  A    between atoms: CB_2  and  CG2_3
REMARK    3  A    between atoms: CB_2  and  CA_4
REMARK    4  A    between atoms: CA_4  and  C_5
REMARK    5  A    between atoms: CA_4  and  N_7
REMARK    6  A    between atoms: C_5  and  O_6
REMARK    7  A    between atoms: N_21  and  C_22
REMARK    8  A    between atoms: C_22  and  C_23
REMARK    9  A    between atoms: C_22  and  C_24
REMARK                            x       y       z     vdW  Elec       q    Type
REMARK                         _______ _______ _______ _____ _____    ______ ____
ROOT
ATOM      1  N   VAL A   1       0.295   9.609  19.032  0.00  0.00    +0.000 N 
ATOM      2  C   UNK A   0      -0.666  10.588  19.274  0.00  0.00    +0.000 A 
ATOM      3  N   UNK A   0      -1.735  10.559  18.448  0.00  0.00    +0.000 NA
ATOM      4  C   UNK A   0      -2.791  11.408  18.647  0.00  0.00    +0.000 A 
ATOM      5  N   UNK A   0      -3.927  11.281  17.820  0.00  0.00    +0.000 N 
ATOM      6  C   UNK A   0      -5.196  11.825  18.073  0.00  0.00    +0.000 A 
ATOM      7  C   UNK A   0      -5.809  11.638  19.315  0.00  0.00    +0.000 A 
ATOM      8  C   UNK A   0      -7.052  12.209  19.571  0.00  0.00    +0.000 A 
ATOM      9  C   UNK A   0      -7.670  12.942  18.572  0.00  0.00    +0.000 A 
ATOM     10  C   UNK A   0      -7.019  13.052  17.351  0.00  0.00    +0.000 A 
ATOM     11  N   UNK A   0      -5.815  12.496  17.076  0.00  0.00    +0.000 NA
ATOM     12  C   UNK A   0      -2.671  12.347  19.689  0.00  0.00    +0.000 A 
ATOM     13  N   UNK A   0      -3.488  13.370  20.130  0.00  0.00    +0.000 NA
ATOM     14  C   UNK A   0      -2.868  13.894  21.159  0.00  0.00    +0.000 A 
ATOM     15  N   UNK A   0      -1.689  13.249  21.421  0.00  0.00    +0.000 N 
ATOM     16  C   UNK A   0      -1.525  12.282  20.463  0.00  0.00    +0.000 A 
ATOM     17  N   UNK A   0      -0.505  11.425  20.316  0.00  0.00    +0.000 NA
ATOM     18  H   VAL A   1      -0.141   8.907  18.441  0.00  0.00    +0.000 HD
ATOM     19  H   UNK A   0      -3.672  11.439  16.852  0.00  0.00    +0.000 HD
ENDROOT
BRANCH  15  20
ATOM     20  C   UNK A   0      -0.827  13.548  22.554  0.00  0.00    +0.000 C 
ATOM     21  C   UNK A   0       0.308  14.498  22.174  0.00  0.00    +0.000 C 
ATOM     22  C   UNK A   0      -1.607  14.043  23.766  0.00  0.00    +0.000 C 
ENDBRANCH  15  20
BRANCH   1  23
ATOM     23  CA  VAL A   1       1.048   9.111  20.190  0.00  0.00    +0.000 C 
BRANCH  23  25
ATOM     24  CG1 VAL A   1       2.246   7.881  18.267  0.00  0.00    +0.000 C 
ATOM     25  CB  VAL A   1       2.065   7.997  19.784  0.00  0.00    +0.000 C 
ATOM     26  CG2 VAL A   1       1.776   6.616  20.382  0.00  0.00    +0.000 C 
ENDBRANCH  23  25
BRANCH  23  27
ATOM     27  C   VAL A   1       0.095   8.634  21.318  0.00  0.00    +0.000 C 
BRANCH  27  28
ATOM     28  O   VAL A   1       0.283   9.366  22.526  0.00  0.00    +0.000 OA
ATOM     29  H   VAL A   1       0.791   8.796  23.129  0.00  0.00    +0.000 HD
ENDBRANCH  27  28
ENDBRANCH  23  27
ENDBRANCH   1  23
TORSDOF 5
ENDMDL
MODEL 8
REMARK VINA RESULT:      -5.7      2.798      6.898
REMARK  Name = 
REMARK  9 active torsions:
REMARK  status: ('A' for Active; 'I' for Inactive)
REMARK    1  A    between atoms: CG1_1  and  CB_2
REMARK    2  A    between atoms: CB_2  and  CG2_3
REMARK    3  A    between atoms: CB_2  and  CA_4
REMARK    4  A    between atoms: CA_4  and  C_5
REMARK    5  A    between atoms: CA_4  and  N_7
REMARK    6  A    between atoms: C_5  and  O_6
REMARK    7  A    between atoms: N_21  and  C_22
REMARK    8  A    between atoms: C_22  and  C_23
REMARK    9  A    between atoms: C_22  and  C_24
REMARK                            x       y       z     vdW  Elec       q    Type
REMARK                         _______ _______ _______ _____ _____    ______ ____
ROOT
ATOM      1  N   VAL A   1       5.139   6.278  16.234  0.00  0.00    +0.000 N 
ATOM      2  C   UNK A   0       4.231   6.661  17.218  0.00  0.00    +0.000 A 
ATOM      3  N   UNK A   0       3.826   7.949  17.155  0.00  0.00    +0.000 NA
ATOM      4  C   UNK A   0       2.862   8.418  18.007  0.00  0.00    +0.000 A 
ATOM      5  N   UNK A   0       2.401   9.741  17.844  0.00  0.00    +0.000 N 
ATOM      6  C   UNK A   0       1.225  10.278  18.393  0.00  0.00    +0.000 A 
ATOM      7  C   UNK A   0       0.009   9.605  18.251  0.00  0.00    +0.000 A 
ATOM      8  C   UNK A   0      -1.147  10.124  18.826  0.00  0.00    +0.000 A 
ATOM      9  C   UNK A   0      -1.068  11.321  19.520  0.00  0.00    +0.000 A 
ATOM     10  C   UNK A   0       0.166  11.953  19.585  0.00  0.00    +0.000 A 
ATOM     11  N   UNK A   0       1.300  11.471  19.023  0.00  0.00    +0.000 NA
ATOM     12  C   UNK A   0       2.383   7.526  18.985  0.00  0.00    +0.000 A 
ATOM     13  N   UNK A   0       1.479   7.666  20.021  0.00  0.00    +0.000 NA
ATOM     14  C   UNK A   0       1.409   6.486  20.586  0.00  0.00    +0.000 A 
ATOM     15  N   UNK A   0       2.214   5.575  19.955  0.00  0.00    +0.000 N 
ATOM     16  C   UNK A   0       2.879   6.234  18.953  0.00  0.00    +0.000 A 
ATOM     17  N   UNK A   0       3.783   5.742  18.095  0.00  0.00    +0.000 NA
ATOM     18  H   VAL A   1       5.106   6.989  15.509  0.00  0.00    +0.000 HD
ATOM     19  H   UNK A   0       3.166  10.394  17.967  0.00  0.00    +0.000 HD
ENDROOT
BRANCH  15  20
ATOM     20  C   UNK A   0       2.279   4.164  20.300  0.00  0.00    +0.000 C 
ATOM     21  C   UNK A   0       2.258   3.942  21.811  0.00  0.00    +0.000 C 
ATOM     22  C   UNK A   0       1.216   3.338  19.585  0.00  0.00    +0.000 C 
ENDBRANCH  15  20
BRANCH   1  23
ATOM     23  CA  VAL A   1       5.086   4.882  15.783  0.00  0.00    +0.000 C 
BRANCH  23  25
ATOM     24  CG1 VAL A   1       5.110   3.236  17.768  0.00  0.00    +0.000 C 
ATOM     25  CB  VAL A   1       5.943   3.945  16.694  0.00  0.00    +0.000 C 
ATOM     26  CG2 VAL A   1       7.161   4.616  17.338  0.00  0.00    +0.000 C 
ENDBRANCH  23  25
BRANCH  23  27
ATOM     27  C   VAL A   1       5.490   4.757  14.291  0.00  0.00    +0.000 C 
BRANCH  27  28
ATOM     28  O   VAL A   1       6.237   3.570  14.034  0.00  0.00    +0.000 OA
ATOM     29  H   VAL A   1       5.665   2.817  14.263  0.00  0.00    +0.000 HD
ENDBRANCH  27  28
ENDBRANCH  23  27
ENDBRANCH   1  23
TORSDOF 5
ENDMDL
MODEL 9
REMARK VINA RESULT:      -5.7      4.677      8.446
REMARK  Name = 
REMARK  9 active torsions:
REMARK  status: ('A' for Active; 'I' for Inactive)
REMARK    1  A    between atoms: CG1_1  and  CB_2
REMARK    2  A    between atoms: CB_2  and  CG2_3
REMARK    3  A    between atoms: CB_2  and  CA_4
REMARK    4  A    between atoms: CA_4  and  C_5
REMARK    5  A    between atoms: CA_4  and  N_7
REMARK    6  A    between atoms: C_5  and  O_6
REMARK    7  A    between atoms: N_21  and  C_22
REMARK    8  A    between atoms: C_22  and  C_23
REMARK    9  A    between atoms: C_22  and  C_24
REMARK                            x       y       z     vdW  Elec       q    Type
REMARK                         _______ _______ _______ _____ _____    ______ ____
ROOT
ATOM      1  N   VAL A   1      -2.557  12.945  23.670  0.00  0.00    +0.000 N 
ATOM      2  C   UNK A   0      -1.449  12.721  22.857  0.00  0.00    +0.000 A 
ATOM      3  N   UNK A   0      -1.214  11.426  22.552  0.00  0.00    +0.000 NA
ATOM      4  C   UNK A   0      -0.212  11.087  21.681  0.00  0.00    +0.000 A 
ATOM      5  N   UNK A   0      -0.063   9.732  21.318  0.00  0.00    +0.000 N 
ATOM      6  C   UNK A   0       0.673   9.249  20.223  0.00  0.00    +0.000 A 
ATOM      7  C   UNK A   0       0.488   9.796  18.951  0.00  0.00    +0.000 A 
ATOM      8  C   UNK A   0       1.245   9.337  17.878  0.00  0.00    +0.000 A 
ATOM      9  C   UNK A   0       2.162   8.321  18.092  0.00  0.00    +0.000 A 
ATOM     10  C   UNK A   0       2.262   7.799  19.374  0.00  0.00    +0.000 A 
ATOM     11  N   UNK A   0       1.528   8.223  20.431  0.00  0.00    +0.000 NA
ATOM     12  C   UNK A   0       0.594  12.132  21.193  0.00  0.00    +0.000 A 
ATOM     13  N   UNK A   0       1.703  12.156  20.369  0.00  0.00    +0.000 NA
ATOM     14  C   UNK A   0       2.015  13.422  20.240  0.00  0.00    +0.000 A 
ATOM     15  N   UNK A   0       1.150  14.229  20.931  0.00  0.00    +0.000 N 
ATOM     16  C   UNK A   0       0.259  13.417  21.583  0.00  0.00    +0.000 A 
ATOM     17  N   UNK A   0      -0.750  13.774  22.392  0.00  0.00    +0.000 NA
ATOM     18  H   VAL A   1      -3.115  12.097  23.649  0.00  0.00    +0.000 HD
ATOM     19  H   UNK A   0       0.133   9.170  22.138  0.00  0.00    +0.000 HD
ENDROOT
BRANCH  15  20
ATOM     20  C   UNK A   0       1.190  15.683  20.905  0.00  0.00    +0.000 C 
ATOM     21  C   UNK A   0       2.203  16.246  21.901  0.00  0.00    +0.000 C 
ATOM     22  C   UNK A   0       1.400  16.237  19.500  0.00  0.00    +0.000 C 
ENDBRANCH  15  20
BRANCH   1  23
ATOM     23  CA  VAL A   1      -3.281  14.208  23.479  0.00  0.00    +0.000 C 
BRANCH  23  25
ATOM     24  CG1 VAL A   1      -4.337  16.233  24.676  0.00  0.00    +0.000 C 
ATOM     25  CB  VAL A   1      -3.471  14.978  24.826  0.00  0.00    +0.000 C 
ATOM     26  CG2 VAL A   1      -2.168  15.326  25.554  0.00  0.00    +0.000 C 
ENDBRANCH  23  25
BRANCH  23  27
ATOM     27  C   VAL A   1      -4.634  13.977  22.755  0.00  0.00    +0.000 C 
BRANCH  27  28
ATOM     28  O   VAL A   1      -5.112  12.645  22.922  0.00  0.00    +0.000 OA
ATOM     29  H   VAL A   1      -5.952  12.580  22.434  0.00  0.00    +0.000 HD
ENDBRANCH  27  28
ENDBRANCH  23  27
ENDBRANCH   1  23
TORSDOF 5
ENDMDL
