MODEL 1
REMARK VINA RESULT:      -8.4      0.000      0.000
REMARK  Name = 
REMARK  6 active torsions:
REMARK  status: ('A' for Active; 'I' for Inactive)
REMARK    1  A    between atoms: C_1  and  N_2
REMARK    2  A    between atoms: N_5  and  C_6
REMARK    3  A    between atoms: C_6  and  C_7
REMARK    4  A    between atoms: C_6  and  C_14
REMARK    5  A    between atoms: N_18  and  C_19
REMARK    6  A    between atoms: C_19  and  C_20
REMARK                            x       y       z     vdW  Elec       q    Type
REMARK                         _______ _______ _______ _____ _____    ______ ____
ROOT
ATOM      1  C   UNL     1       3.835   5.506  17.779  0.00  0.00    +0.000 C 
ENDROOT
BRANCH   1   6
ATOM      2  C   UNL     1       1.436   2.583  21.435  0.00  0.00    +0.000 C 
ATOM      3  N   UNL     1       1.769   2.760  20.014  0.00  0.00    +0.000 NA
ATOM      4  C   UNL     1       3.216   2.685  19.784  0.00  0.00    +0.000 C 
ATOM      5  C   UNL     1       3.675   3.061  18.339  0.00  0.00    +0.000 C 
ATOM      6  N   UNL     1       3.071   4.231  17.627  0.00  0.00    +0.000 NA
ATOM      7  C   UNL     1       1.638   4.309  18.014  0.00  0.00    +0.000 C 
ATOM      8  C   UNL     1       1.226   4.017  19.485  0.00  0.00    +0.000 C 
ENDBRANCH   1   6
BRANCH   1   9
ATOM      9  C   UNL     1       3.034   6.655  18.420  0.00  0.00    +0.000 A 
ATOM     10  C   UNL     1       2.612   6.645  19.757  0.00  0.00    +0.000 A 
ATOM     11  C   UNL     1       1.885   7.715  20.298  0.00  0.00    +0.000 A 
ATOM     12  C   UNL     1       1.521   8.780  19.491  0.00  0.00    +0.000 A 
ATOM     13  F   UNL     1       0.796   9.786  20.000  0.00  0.00    +0.000 F 
ATOM     14  C   UNL     1       1.885   8.804  18.152  0.00  0.00    +0.000 A 
ATOM     15  C   UNL     1       2.650   7.756  17.625  0.00  0.00    +0.000 A 
ENDBRANCH   1   9
BRANCH   1  16
ATOM     16  C   UNL     1       5.257   5.409  18.353  0.00  0.00    +0.000 A 
ATOM     17  N   UNL     1       5.442   5.194  19.642  0.00  0.00    +0.000 NA
ATOM     18  N   UNL     1       6.785   5.174  19.877  0.00  0.00    +0.000 NA
ATOM     19  N   UNL     1       7.452   5.393  18.769  0.00  0.00    +0.000 NA
ATOM     20  N   UNL     1       6.526   5.505  17.778  0.00  0.00    +0.000 N 
BRANCH  20  21
ATOM     21  C   UNL     1       7.039   5.930  16.486  0.00  0.00    +0.000 C 
BRANCH  21  22
ATOM     22  C   UNL     1       6.546   5.139  15.276  0.00  0.00    +0.000 A 
ATOM     23  C   UNL     1       5.485   4.258  15.123  0.00  0.00    +0.000 A 
ATOM     24  C   UNL     1       5.524   3.537  13.890  0.00  0.00    +0.000 A 
ATOM     25  C   UNL     1       6.587   3.916  13.104  0.00  0.00    +0.000 A 
ATOM     26  S   UNL     1       7.505   5.159  13.839  0.00  0.00    +0.000 S 
ENDBRANCH  21  22
ENDBRANCH  20  21
ENDBRANCH   1  16
TORSDOF 5
ENDMDL
MODEL 2
REMARK VINA RESULT:      -8.2      0.959      1.161
REMARK  Name = 
REMARK  6 active torsions:
REMARK  status: ('A' for Active; 'I' for Inactive)
REMARK    1  A    between atoms: C_1  and  N_2
REMARK    2  A    between atoms: N_5  and  C_6
REMARK    3  A    between atoms: C_6  and  C_7
REMARK    4  A    between atoms: C_6  and  C_14
REMARK    5  A    between atoms: N_18  and  C_19
REMARK    6  A    between atoms: C_19  and  C_20
REMARK                            x       y       z     vdW  Elec       q    Type
REMARK                         _______ _______ _______ _____ _____    ______ ____
ROOT
ATOM      1  C   UNL     1       3.937   4.956  17.368  0.00  0.00    +0.000 C 
ENDROOT
BRANCH   1   6
ATOM      2  C   UNL     1       1.365   2.683  21.353  0.00  0.00    +0.000 C 
ATOM      3  N   UNL     1       1.782   2.608  19.946  0.00  0.00    +0.000 NA
ATOM      4  C   UNL     1       3.241   2.531  19.817  0.00  0.00    +0.000 C 
ATOM      5  C   UNL     1       3.782   2.650  18.356  0.00  0.00    +0.000 C 
ATOM      6  N   UNL     1       3.205   3.654  17.408  0.00  0.00    +0.000 NA
ATOM      7  C   UNL     1       1.750   3.762  17.692  0.00  0.00    +0.000 C 
ATOM      8  C   UNL     1       1.253   3.732  19.165  0.00  0.00    +0.000 C 
ENDBRANCH   1   6
BRANCH   1   9
ATOM      9  C   UNL     1       3.253   6.096  18.146  0.00  0.00    +0.000 A 
ATOM     10  C   UNL     1       3.008   6.046  19.526  0.00  0.00    +0.000 A 
ATOM     11  C   UNL     1       2.382   7.109  20.191  0.00  0.00    +0.000 A 
ATOM     12  C   UNL     1       1.940   8.208  19.474  0.00  0.00    +0.000 A 
ATOM     13  F   UNL     1       1.310   9.208  20.107  0.00  0.00    +0.000 F 
ATOM     14  C   UNL     1       2.127   8.273  18.100  0.00  0.00    +0.000 A 
ATOM     15  C   UNL     1       2.793   7.231  17.444  0.00  0.00    +0.000 A 
ENDBRANCH   1   9
BRANCH   1  16
ATOM     16  C   UNL     1       5.452   4.917  17.623  0.00  0.00    +0.000 A 
ATOM     17  N   UNL     1       5.921   4.529  18.794  0.00  0.00    +0.000 NA
ATOM     18  N   UNL     1       7.282   4.609  18.751  0.00  0.00    +0.000 NA
ATOM     19  N   UNL     1       7.681   5.061  17.586  0.00  0.00    +0.000 NA
ATOM     20  N   UNL     1       6.561   5.228  16.832  0.00  0.00    +0.000 N 
BRANCH  20  21
ATOM     21  C   UNL     1       6.757   5.894  15.555  0.00  0.00    +0.000 C 
BRANCH  21  22
ATOM     22  C   UNL     1       6.816   4.985  14.328  0.00  0.00    +0.000 A 
ATOM     23  C   UNL     1       7.632   5.006  13.206  0.00  0.00    +0.000 A 
ATOM     24  C   UNL     1       7.189   4.126  12.171  0.00  0.00    +0.000 A 
ATOM     25  C   UNL     1       6.072   3.415  12.541  0.00  0.00    +0.000 A 
ATOM     26  S   UNL     1       5.588   3.784  14.140  0.00  0.00    +0.000 S 
ENDBRANCH  21  22
ENDBRANCH  20  21
ENDBRANCH   1  16
TORSDOF 5
ENDMDL
MODEL 3
REMARK VINA RESULT:      -8.2      3.681      6.894
REMARK  Name = 
REMARK  6 active torsions:
REMARK  status: ('A' for Active; 'I' for Inactive)
REMARK    1  A    between atoms: C_1  and  N_2
REMARK    2  A    between atoms: N_5  and  C_6
REMARK    3  A    between atoms: C_6  and  C_7
REMARK    4  A    between atoms: C_6  and  C_14
REMARK    5  A    between atoms: N_18  and  C_19
REMARK    6  A    between atoms: C_19  and  C_20
REMARK                            x       y       z     vdW  Elec       q    Type
REMARK                         _______ _______ _______ _____ _____    ______ ____
ROOT
ATOM      1  C   UNL     1       3.149   5.959  18.057  0.00  0.00    +0.000 C 
ENDROOT
BRANCH   1   6
ATOM      2  C   UNL     1       6.095   4.135  14.100  0.00  0.00    +0.000 C 
ATOM      3  N   UNL     1       6.057   4.707  15.453  0.00  0.00    +0.000 NA
ATOM      4  C   UNL     1       5.386   3.811  16.400  0.00  0.00    +0.000 C 
ATOM      5  C   UNL     1       5.123   4.422  17.814  0.00  0.00    +0.000 C 
ATOM      6  N   UNL     1       4.634   5.829  17.958  0.00  0.00    +0.000 NA
ATOM      7  C   UNL     1       5.265   6.641  16.884  0.00  0.00    +0.000 C 
ATOM      8  C   UNL     1       5.428   6.033  15.462  0.00  0.00    +0.000 C 
ENDBRANCH   1   6
BRANCH   1   9
ATOM      9  C   UNL     1       2.490   4.986  19.053  0.00  0.00    +0.000 A 
ATOM     10  C   UNL     1       1.398   4.170  18.723  0.00  0.00    +0.000 A 
ATOM     11  C   UNL     1       0.832   3.299  19.664  0.00  0.00    +0.000 A 
ATOM     12  C   UNL     1       1.314   3.277  20.962  0.00  0.00    +0.000 A 
ATOM     13  F   UNL     1       0.748   2.468  21.870  0.00  0.00    +0.000 F 
ATOM     14  C   UNL     1       2.366   4.101  21.336  0.00  0.00    +0.000 A 
ATOM     15  C   UNL     1       2.960   4.938  20.383  0.00  0.00    +0.000 A 
ENDBRANCH   1   9
BRANCH   1  16
ATOM     16  C   UNL     1       2.574   7.378  18.178  0.00  0.00    +0.000 A 
ATOM     17  N   UNL     1       2.678   8.228  17.172  0.00  0.00    +0.000 NA
ATOM     18  N   UNL     1       2.107   9.405  17.554  0.00  0.00    +0.000 NA
ATOM     19  N   UNL     1       1.664   9.326  18.787  0.00  0.00    +0.000 NA
ATOM     20  N   UNL     1       1.902   8.052  19.201  0.00  0.00    +0.000 N 
BRANCH  20  21
ATOM     21  C   UNL     1       1.650   7.792  20.609  0.00  0.00    +0.000 C 
BRANCH  21  22
ATOM     22  C   UNL     1       0.881   8.876  21.362  0.00  0.00    +0.000 A 
ATOM     23  C   UNL     1       0.864   9.228  22.704  0.00  0.00    +0.000 A 
ATOM     24  C   UNL     1      -0.189  10.136  23.034  0.00  0.00    +0.000 A 
ATOM     25  C   UNL     1      -0.924  10.498  21.930  0.00  0.00    +0.000 A 
ATOM     26  S   UNL     1      -0.321   9.772  20.503  0.00  0.00    +0.000 S 
ENDBRANCH  21  22
ENDBRANCH  20  21
ENDBRANCH   1  16
TORSDOF 5
ENDMDL
MODEL 4
REMARK VINA RESULT:      -8.0      3.737      6.799
REMARK  Name = 
REMARK  6 active torsions:
REMARK  status: ('A' for Active; 'I' for Inactive)
REMARK    1  A    between atoms: C_1  and  N_2
REMARK    2  A    between atoms: N_5  and  C_6
REMARK    3  A    between atoms: C_6  and  C_7
REMARK    4  A    between atoms: C_6  and  C_14
REMARK    5  A    between atoms: N_18  and  C_19
REMARK    6  A    between atoms: C_19  and  C_20
REMARK                            x       y       z     vdW  Elec       q    Type
REMARK                         _______ _______ _______ _____ _____    ______ ____
ROOT
ATOM      1  C   UNL     1       3.415   6.088  18.009  0.00  0.00    +0.000 C 
ENDROOT
BRANCH   1   6
ATOM      2  C   UNL     1       6.947   4.454  14.471  0.00  0.00    +0.000 C 
ATOM      3  N   UNL     1       6.575   5.461  15.475  0.00  0.00    +0.000 NA
ATOM      4  C   UNL     1       6.496   4.881  16.819  0.00  0.00    +0.000 C 
ATOM      5  C   UNL     1       5.914   5.831  17.914  0.00  0.00    +0.000 C 
ATOM      6  N   UNL     1       4.725   6.693  17.623  0.00  0.00    +0.000 NA
ATOM      7  C   UNL     1       4.820   7.134  16.207  0.00  0.00    +0.000 C 
ATOM      8  C   UNL     1       5.317   6.133  15.126  0.00  0.00    +0.000 C 
ENDBRANCH   1   6
BRANCH   1   9
ATOM      9  C   UNL     1       3.470   4.571  18.278  0.00  0.00    +0.000 A 
ATOM     10  C   UNL     1       4.096   4.012  19.401  0.00  0.00    +0.000 A 
ATOM     11  C   UNL     1       4.120   2.625  19.604  0.00  0.00    +0.000 A 
ATOM     12  C   UNL     1       3.569   1.779  18.656  0.00  0.00    +0.000 A 
ATOM     13  F   UNL     1       3.624   0.451  18.834  0.00  0.00    +0.000 F 
ATOM     14  C   UNL     1       2.978   2.295  17.511  0.00  0.00    +0.000 A 
ATOM     15  C   UNL     1       2.915   3.683  17.332  0.00  0.00    +0.000 A 
ENDBRANCH   1   9
BRANCH   1  16
ATOM     16  C   UNL     1       2.584   6.827  19.068  0.00  0.00    +0.000 A 
ATOM     17  N   UNL     1       2.217   6.212  20.178  0.00  0.00    +0.000 NA
ATOM     18  N   UNL     1       1.482   7.087  20.921  0.00  0.00    +0.000 NA
ATOM     19  N   UNL     1       1.356   8.233  20.296  0.00  0.00    +0.000 NA
ATOM     20  N   UNL     1       2.071   8.125  19.144  0.00  0.00    +0.000 N 
BRANCH  20  21
ATOM     21  C   UNL     1       1.922   9.226  18.207  0.00  0.00    +0.000 C 
BRANCH  21  22
ATOM     22  C   UNL     1       0.656  10.067  18.358  0.00  0.00    +0.000 A 
ATOM     23  C   UNL     1      -0.640   9.868  17.904  0.00  0.00    +0.000 A 
ATOM     24  C   UNL     1      -1.470  11.023  18.045  0.00  0.00    +0.000 A 
ATOM     25  C   UNL     1      -0.806  12.065  18.648  0.00  0.00    +0.000 A 
ATOM     26  S   UNL     1       0.795  11.634  19.072  0.00  0.00    +0.000 S 
ENDBRANCH  21  22
ENDBRANCH  20  21
ENDBRANCH   1  16
TORSDOF 5
ENDMDL
MODEL 5
REMARK VINA RESULT:      -8.0      3.989      6.760
REMARK  Name = 
REMARK  6 active torsions:
REMARK  status: ('A' for Active; 'I' for Inactive)
REMARK    1  A    between atoms: C_1  and  N_2
REMARK    2  A    between atoms: N_5  and  C_6
REMARK    3  A    between atoms: C_6  and  C_7
REMARK    4  A    between atoms: C_6  and  C_14
REMARK    5  A    between atoms: N_18  and  C_19
REMARK    6  A    between atoms: C_19  and  C_20
REMARK                            x       y       z     vdW  Elec       q    Type
REMARK                         _______ _______ _______ _____ _____    ______ ____
ROOT
ATOM      1  C   UNL     1       2.726   6.635  18.613  0.00  0.00    +0.000 C 
ENDROOT
BRANCH   1   6
ATOM      2  C   UNL     1       6.039   3.784  15.687  0.00  0.00    +0.000 C 
ATOM      3  N   UNL     1       5.874   4.834  16.702  0.00  0.00    +0.000 NA
ATOM      4  C   UNL     1       5.273   4.309  17.932  0.00  0.00    +0.000 C 
ATOM      5  C   UNL     1       4.877   5.390  18.988  0.00  0.00    +0.000 C 
ATOM      6  N   UNL     1       4.219   6.666  18.563  0.00  0.00    +0.000 NA
ATOM      7  C   UNL     1       4.795   7.059  17.251  0.00  0.00    +0.000 C 
ATOM      8  C   UNL     1       5.092   5.965  16.187  0.00  0.00    +0.000 C 
ENDBRANCH   1   6
BRANCH   1   9
ATOM      9  C   UNL     1       2.123   5.223  18.743  0.00  0.00    +0.000 A 
ATOM     10  C   UNL     1       1.854   4.398  17.642  0.00  0.00    +0.000 A 
ATOM     11  C   UNL     1       1.305   3.120  17.809  0.00  0.00    +0.000 A 
ATOM     12  C   UNL     1       0.962   2.676  19.076  0.00  0.00    +0.000 A 
ATOM     13  F   UNL     1       0.404   1.466  19.231  0.00  0.00    +0.000 F 
ATOM     14  C   UNL     1       1.174   3.482  20.185  0.00  0.00    +0.000 A 
ATOM     15  C   UNL     1       1.765   4.741  20.020  0.00  0.00    +0.000 A 
ENDBRANCH   1   9
BRANCH   1  16
ATOM     16  C   UNL     1       2.033   7.642  19.544  0.00  0.00    +0.000 A 
ATOM     17  N   UNL     1       1.875   7.366  20.825  0.00  0.00    +0.000 NA
ATOM     18  N   UNL     1       1.221   8.413  21.404  0.00  0.00    +0.000 NA
ATOM     19  N   UNL     1       0.942   9.334  20.513  0.00  0.00    +0.000 NA
ATOM     20  N   UNL     1       1.474   8.905  19.336  0.00  0.00    +0.000 N 
BRANCH  20  21
ATOM     21  C   UNL     1       1.126   9.694  18.166  0.00  0.00    +0.000 C 
BRANCH  21  22
ATOM     22  C   UNL     1      -0.296  10.251  18.132  0.00  0.00    +0.000 A 
ATOM     23  C   UNL     1      -1.464   9.758  17.569  0.00  0.00    +0.000 A 
ATOM     24  C   UNL     1      -2.526  10.715  17.547  0.00  0.00    +0.000 A 
ATOM     25  C   UNL     1      -2.163  11.902  18.137  0.00  0.00    +0.000 A 
ATOM     26  S   UNL     1      -0.565  11.844  18.744  0.00  0.00    +0.000 S 
ENDBRANCH  21  22
ENDBRANCH  20  21
ENDBRANCH   1  16
TORSDOF 5
ENDMDL
MODEL 6
REMARK VINA RESULT:      -7.9      7.927     10.831
REMARK  Name = 
REMARK  6 active torsions:
REMARK  status: ('A' for Active; 'I' for Inactive)
REMARK    1  A    between atoms: C_1  and  N_2
REMARK    2  A    between atoms: N_5  and  C_6
REMARK    3  A    between atoms: C_6  and  C_7
REMARK    4  A    between atoms: C_6  and  C_14
REMARK    5  A    between atoms: N_18  and  C_19
REMARK    6  A    between atoms: C_19  and  C_20
REMARK                            x       y       z     vdW  Elec       q    Type
REMARK                         _______ _______ _______ _____ _____    ______ ____
ROOT
ATOM      1  C   UNL     1      -0.127  12.152  20.340  0.00  0.00    +0.000 C 
ENDROOT
BRANCH   1   6
ATOM      2  C   UNL     1       1.189  17.244  20.280  0.00  0.00    +0.000 C 
ATOM      3  N   UNL     1       1.564  15.864  19.939  0.00  0.00    +0.000 NA
ATOM      4  C   UNL     1       0.652  15.285  18.948  0.00  0.00    +0.000 C 
ATOM      5  C   UNL     1       0.854  13.760  18.676  0.00  0.00    +0.000 C 
ATOM      6  N   UNL     1       1.103  12.810  19.807  0.00  0.00    +0.000 NA
ATOM      7  C   UNL     1       1.926  13.518  20.821  0.00  0.00    +0.000 C 
ATOM      8  C   UNL     1       1.637  15.014  21.133  0.00  0.00    +0.000 C 
ENDBRANCH   1   6
BRANCH   1   9
ATOM      9  C   UNL     1      -1.021  11.505  19.264  0.00  0.00    +0.000 A 
ATOM     10  C   UNL     1      -2.364  11.858  19.067  0.00  0.00    +0.000 A 
ATOM     11  C   UNL     1      -3.138  11.242  18.075  0.00  0.00    +0.000 A 
ATOM     12  C   UNL     1      -2.595  10.225  17.307  0.00  0.00    +0.000 A 
ATOM     13  F   UNL     1      -3.348   9.613  16.381  0.00  0.00    +0.000 F 
ATOM     14  C   UNL     1      -1.282   9.821  17.502  0.00  0.00    +0.000 A 
ATOM     15  C   UNL     1      -0.496  10.468  18.464  0.00  0.00    +0.000 A 
ENDBRANCH   1   9
BRANCH   1  16
ATOM     16  C   UNL     1       0.038  11.244  21.568  0.00  0.00    +0.000 A 
ATOM     17  N   UNL     1       1.041  10.387  21.634  0.00  0.00    +0.000 NA
ATOM     18  N   UNL     1       0.935   9.704  22.809  0.00  0.00    +0.000 NA
ATOM     19  N   UNL     1      -0.124  10.094  23.477  0.00  0.00    +0.000 NA
ATOM     20  N   UNL     1      -0.693  11.093  22.749  0.00  0.00    +0.000 N 
BRANCH  20  21
ATOM     21  C   UNL     1      -1.990  11.552  23.220  0.00  0.00    +0.000 C 
BRANCH  21  22
ATOM     22  C   UNL     1      -2.327  13.014  22.931  0.00  0.00    +0.000 A 
ATOM     23  C   UNL     1      -3.296  13.592  22.124  0.00  0.00    +0.000 A 
ATOM     24  C   UNL     1      -3.108  14.997  21.936  0.00  0.00    +0.000 A 
ATOM     25  C   UNL     1      -2.028  15.472  22.643  0.00  0.00    +0.000 A 
ATOM     26  S   UNL     1      -1.274  14.235  23.552  0.00  0.00    +0.000 S 
ENDBRANCH  21  22
ENDBRANCH  20  21
ENDBRANCH   1  16
TORSDOF 5
ENDMDL
MODEL 7
REMARK VINA RESULT:      -7.9      8.057     11.005
REMARK  Name = 
REMARK  6 active torsions:
REMARK  status: ('A' for Active; 'I' for Inactive)
REMARK    1  A    between atoms: C_1  and  N_2
REMARK    2  A    between atoms: N_5  and  C_6
REMARK    3  A    between atoms: C_6  and  C_7
REMARK    4  A    between atoms: C_6  and  C_14
REMARK    5  A    between atoms: N_18  and  C_19
REMARK    6  A    between atoms: C_19  and  C_20
REMARK                            x       y       z     vdW  Elec       q    Type
REMARK                         _______ _______ _______ _____ _____    ______ ____
ROOT
ATOM      1  C   UNL     1      -0.072  12.100  20.321  0.00  0.00    +0.000 C 
ENDROOT
BRANCH   1   6
ATOM      2  C   UNL     1       1.545  17.104  20.193  0.00  0.00    +0.000 C 
ATOM      3  N   UNL     1       1.838  15.700  19.871  0.00  0.00    +0.000 NA
ATOM      4  C   UNL     1       0.893  15.162  18.887  0.00  0.00    +0.000 C 
ATOM      5  C   UNL     1       1.004  13.625  18.636  0.00  0.00    +0.000 C 
ATOM      6  N   UNL     1       1.196  12.677  19.779  0.00  0.00    +0.000 NA
ATOM      7  C   UNL     1       2.060  13.348  20.785  0.00  0.00    +0.000 C 
ATOM      8  C   UNL     1       1.860  14.863  21.077  0.00  0.00    +0.000 C 
ENDBRANCH   1   6
BRANCH   1   9
ATOM      9  C   UNL     1      -0.977  11.445  19.260  0.00  0.00    +0.000 A 
ATOM     10  C   UNL     1      -0.545  10.416  18.411  0.00  0.00    +0.000 A 
ATOM     11  C   UNL     1      -1.405   9.849  17.461  0.00  0.00    +0.000 A 
ATOM     12  C   UNL     1      -2.689  10.346  17.308  0.00  0.00    +0.000 A 
ATOM     13  F   UNL     1      -3.499   9.827  16.374  0.00  0.00    +0.000 F 
ATOM     14  C   UNL     1      -3.136  11.393  18.101  0.00  0.00    +0.000 A 
ATOM     15  C   UNL     1      -2.291  11.928  19.081  0.00  0.00    +0.000 A 
ENDBRANCH   1   9
BRANCH   1  16
ATOM     16  C   UNL     1       0.033  11.245  21.592  0.00  0.00    +0.000 A 
ATOM     17  N   UNL     1       1.018  10.378  21.733  0.00  0.00    +0.000 NA
ATOM     18  N   UNL     1       0.858   9.748  22.932  0.00  0.00    +0.000 NA
ATOM     19  N   UNL     1      -0.220  10.182  23.541  0.00  0.00    +0.000 NA
ATOM     20  N   UNL     1      -0.745  11.156  22.749  0.00  0.00    +0.000 N 
BRANCH  20  21
ATOM     21  C   UNL     1      -2.051  11.653  23.150  0.00  0.00    +0.000 C 
BRANCH  21  22
ATOM     22  C   UNL     1      -2.165  13.166  23.326  0.00  0.00    +0.000 A 
ATOM     23  C   UNL     1      -1.208  14.139  23.573  0.00  0.00    +0.000 A 
ATOM     24  C   UNL     1      -1.769  15.406  23.923  0.00  0.00    +0.000 A 
ATOM     25  C   UNL     1      -3.143  15.389  23.889  0.00  0.00    +0.000 A 
ATOM     26  S   UNL     1      -3.745  13.864  23.402  0.00  0.00    +0.000 S 
ENDBRANCH  21  22
ENDBRANCH  20  21
ENDBRANCH   1  16
TORSDOF 5
ENDMDL
MODEL 8
REMARK VINA RESULT:      -7.9      8.208     11.024
REMARK  Name = 
REMARK  6 active torsions:
REMARK  status: ('A' for Active; 'I' for Inactive)
REMARK    1  A    between atoms: C_1  and  N_2
REMARK    2  A    between atoms: N_5  and  C_6
REMARK    3  A    between atoms: C_6  and  C_7
REMARK    4  A    between atoms: C_6  and  C_14
REMARK    5  A    between atoms: N_18  and  C_19
REMARK    6  A    between atoms: C_19  and  C_20
REMARK                            x       y       z     vdW  Elec       q    Type
REMARK                         _______ _______ _______ _____ _____    ______ ____
ROOT
ATOM      1  C   UNL     1      -0.423  12.045  20.028  0.00  0.00    +0.000 C 
ENDROOT
BRANCH   1   6
ATOM      2  C   UNL     1       1.922  16.728  20.505  0.00  0.00    +0.000 C 
ATOM      3  N   UNL     1       2.014  15.341  20.030  0.00  0.00    +0.000 NA
ATOM      4  C   UNL     1       1.036  15.065  18.973  0.00  0.00    +0.000 C 
ATOM      5  C   UNL     1       0.926  13.565  18.550  0.00  0.00    +0.000 C 
ATOM      6  N   UNL     1       0.935  12.479  19.580  0.00  0.00    +0.000 NA
ATOM      7  C   UNL     1       1.852  12.896  20.672  0.00  0.00    +0.000 C 
ATOM      8  C   UNL     1       1.870  14.382  21.131  0.00  0.00    +0.000 C 
ENDBRANCH   1   6
BRANCH   1   9
ATOM      9  C   UNL     1      -1.292  11.425  18.917  0.00  0.00    +0.000 A 
ATOM     10  C   UNL     1      -2.616  11.815  18.669  0.00  0.00    +0.000 A 
ATOM     11  C   UNL     1      -3.369  11.224  17.646  0.00  0.00    +0.000 A 
ATOM     12  C   UNL     1      -2.825  10.193  16.897  0.00  0.00    +0.000 A 
ATOM     13  F   UNL     1      -3.558   9.604  15.941  0.00  0.00    +0.000 F 
ATOM     14  C   UNL     1      -1.532   9.752  17.141  0.00  0.00    +0.000 A 
ATOM     15  C   UNL     1      -0.766  10.375  18.134  0.00  0.00    +0.000 A 
ENDBRANCH   1   9
BRANCH   1  16
ATOM     16  C   UNL     1      -0.508  11.242  21.335  0.00  0.00    +0.000 A 
ATOM     17  N   UNL     1      -0.127   9.979  21.368  0.00  0.00    +0.000 NA
ATOM     18  N   UNL     1      -0.325   9.511  22.633  0.00  0.00    +0.000 NA
ATOM     19  N   UNL     1      -0.844  10.444  23.395  0.00  0.00    +0.000 NA
ATOM     20  N   UNL     1      -0.936  11.563  22.626  0.00  0.00    +0.000 N 
BRANCH  20  21
ATOM     21  C   UNL     1      -1.655  12.677  23.222  0.00  0.00    +0.000 C 
BRANCH  21  22
ATOM     22  C   UNL     1      -3.173  12.660  23.056  0.00  0.00    +0.000 A 
ATOM     23  C   UNL     1      -3.977  12.768  21.930  0.00  0.00    +0.000 A 
ATOM     24  C   UNL     1      -5.359  12.960  22.241  0.00  0.00    +0.000 A 
ATOM     25  C   UNL     1      -5.589  12.947  23.596  0.00  0.00    +0.000 A 
ATOM     26  S   UNL     1      -4.152  12.668  24.480  0.00  0.00    +0.000 S 
ENDBRANCH  21  22
ENDBRANCH  20  21
ENDBRANCH   1  16
TORSDOF 5
ENDMDL
MODEL 9
REMARK VINA RESULT:      -7.9      3.962      6.751
REMARK  Name = 
REMARK  6 active torsions:
REMARK  status: ('A' for Active; 'I' for Inactive)
REMARK    1  A    between atoms: C_1  and  N_2
REMARK    2  A    between atoms: N_5  and  C_6
REMARK    3  A    between atoms: C_6  and  C_7
REMARK    4  A    between atoms: C_6  and  C_14
REMARK    5  A    between atoms: N_18  and  C_19
REMARK    6  A    between atoms: C_19  and  C_20
REMARK                            x       y       z     vdW  Elec       q    Type
REMARK                         _______ _______ _______ _____ _____    ______ ____
ROOT
ATOM      1  C   UNL     1       2.789   6.521  18.672  0.00  0.00    +0.000 C 
ENDROOT
BRANCH   1   6
ATOM      2  C   UNL     1       6.095   3.794  15.623  0.00  0.00    +0.000 C 
ATOM      3  N   UNL     1       5.921   4.879  16.599  0.00  0.00    +0.000 NA
ATOM      4  C   UNL     1       5.460   4.371  17.895  0.00  0.00    +0.000 C 
ATOM      5  C   UNL     1       5.057   5.470  18.929  0.00  0.00    +0.000 C 
ATOM      6  N   UNL     1       4.266   6.667  18.502  0.00  0.00    +0.000 NA
ATOM      7  C   UNL     1       4.707   7.037  17.132  0.00  0.00    +0.000 C 
ATOM      8  C   UNL     1       5.012   5.916  16.097  0.00  0.00    +0.000 C 
ENDBRANCH   1   6
BRANCH   1   9
ATOM      9  C   UNL     1       2.318   5.078  18.938  0.00  0.00    +0.000 A 
ATOM     10  C   UNL     1       2.412   4.458  20.192  0.00  0.00    +0.000 A 
ATOM     11  C   UNL     1       1.971   3.142  20.387  0.00  0.00    +0.000 A 
ATOM     12  C   UNL     1       1.484   2.412  19.316  0.00  0.00    +0.000 A 
ATOM     13  F   UNL     1       1.094   1.142  19.496  0.00  0.00    +0.000 F 
ATOM     14  C   UNL     1       1.416   2.978  18.051  0.00  0.00    +0.000 A 
ATOM     15  C   UNL     1       1.815   4.308  17.867  0.00  0.00    +0.000 A 
ENDBRANCH   1   9
BRANCH   1  16
ATOM     16  C   UNL     1       2.083   7.532  19.589  0.00  0.00    +0.000 A 
ATOM     17  N   UNL     1       1.882   7.249  20.862  0.00  0.00    +0.000 NA
ATOM     18  N   UNL     1       1.226   8.301  21.429  0.00  0.00    +0.000 NA
ATOM     19  N   UNL     1       0.989   9.233  20.537  0.00  0.00    +0.000 NA
ATOM     20  N   UNL     1       1.550   8.805  19.374  0.00  0.00    +0.000 N 
BRANCH  20  21
ATOM     21  C   UNL     1       1.251   9.608  18.200  0.00  0.00    +0.000 C 
BRANCH  21  22
ATOM     22  C   UNL     1       0.000  10.481  18.287  0.00  0.00    +0.000 A 
ATOM     23  C   UNL     1      -1.313  10.246  17.909  0.00  0.00    +0.000 A 
ATOM     24  C   UNL     1      -2.125  11.423  17.931  0.00  0.00    +0.000 A 
ATOM     25  C   UNL     1      -1.427  12.523  18.371  0.00  0.00    +0.000 A 
ATOM     26  S   UNL     1       0.183  12.125  18.789  0.00  0.00    +0.000 S 
ENDBRANCH  21  22
ENDBRANCH  20  21
ENDBRANCH   1  16
TORSDOF 5
ENDMDL
