MODEL 1
REMARK VINA RESULT:      -8.1      0.000      0.000
REMARK  Name = 
REMARK  5 active torsions:
REMARK  status: ('A' for Active; 'I' for Inactive)
REMARK    1  A    between atoms: C_1  and  C_2
REMARK    2  A    between atoms: C_2  and  C_3
REMARK    3  A    between atoms: N_5  and  C_6
REMARK    4  A    between atoms: C_11  and  C_12
REMARK    5  A    between atoms: C_21  and  O_22
REMARK                            x       y       z     vdW  Elec       q    Type
REMARK                         _______ _______ _______ _____ _____    ______ ____
ROOT
ATOM      1  C   UNL     1       6.639   4.930  15.953  0.00  0.00    +0.000 A 
ATOM      2  C   UNL     1       7.365   4.793  14.747  0.00  0.00    +0.000 A 
ATOM      3  C   UNL     1       6.763   4.306  13.576  0.00  0.00    +0.000 A 
ATOM      4  C   UNL     1       5.421   3.981  13.599  0.00  0.00    +0.000 A 
ATOM      5  C   UNL     1       4.703   4.106  14.791  0.00  0.00    +0.000 A 
ATOM      6  C   UNL     1       5.280   4.566  16.018  0.00  0.00    +0.000 A 
ENDROOT
BRANCH   6   7
ATOM      7  C   UNL     1       4.461   4.537  17.246  0.00  0.00    +0.000 A 
ATOM      8  N   UNL     1       4.550   3.520  18.140  0.00  0.00    +0.000 NA
ATOM      9  C   UNL     1       3.556   3.461  19.074  0.00  0.00    +0.000 A 
ATOM     10  C   UNL     1       3.675   2.771  20.277  0.00  0.00    +0.000 A 
ATOM     11  C   UNL     1       2.616   2.724  21.197  0.00  0.00    +0.000 A 
ATOM     12  C   UNL     1       1.375   3.244  20.848  0.00  0.00    +0.000 A 
ATOM     13  C   UNL     1       1.257   3.980  19.679  0.00  0.00    +0.000 A 
ATOM     14  C   UNL     1       2.378   4.220  18.903  0.00  0.00    +0.000 A 
ATOM     15  N   UNL     1       2.356   5.284  18.096  0.00  0.00    +0.000 NA
ATOM     16  C   UNL     1       3.518   5.529  17.476  0.00  0.00    +0.000 A 
BRANCH  16  17
ATOM     17  O   UNL     1       4.050   6.758  17.866  0.00  0.00    +0.000 OA
ATOM     18  H   UNL     1       3.541   7.012  18.663  0.00  0.00    +0.000 HD
ENDBRANCH  16  17
ENDBRANCH   6   7
BRANCH   1  21
ATOM     19  C   UNL     1       7.380   6.692  17.495  0.00  0.00    +0.000 C 
ATOM     20  O   UNL     1       6.896   7.633  16.875  0.00  0.00    +0.000 OA
ATOM     21  N   UNL     1       7.297   5.365  17.122  0.00  0.00    +0.000 N 
ATOM     22  H   UNL     1       7.329   4.683  17.877  0.00  0.00    +0.000 HD
BRANCH  19  24
ATOM     23  C   UNL     1       8.022   5.682  19.699  0.00  0.00    +0.000 C 
ATOM     24  C   UNL     1       8.157   6.883  18.781  0.00  0.00    +0.000 C 
ENDBRANCH  19  24
ENDBRANCH   1  21
TORSDOF 4
ENDMDL
MODEL 2
REMARK VINA RESULT:      -7.9      0.897      1.034
REMARK  Name = 
REMARK  5 active torsions:
REMARK  status: ('A' for Active; 'I' for Inactive)
REMARK    1  A    between atoms: C_1  and  C_2
REMARK    2  A    between atoms: C_2  and  C_3
REMARK    3  A    between atoms: N_5  and  C_6
REMARK    4  A    between atoms: C_11  and  C_12
REMARK    5  A    between atoms: C_21  and  O_22
REMARK                            x       y       z     vdW  Elec       q    Type
REMARK                         _______ _______ _______ _____ _____    ______ ____
ROOT
ATOM      1  C   UNL     1       6.425   5.291  15.821  0.00  0.00    +0.000 A 
ATOM      2  C   UNL     1       7.175   5.141  14.632  0.00  0.00    +0.000 A 
ATOM      3  C   UNL     1       6.735   4.322  13.581  0.00  0.00    +0.000 A 
ATOM      4  C   UNL     1       5.525   3.670  13.704  0.00  0.00    +0.000 A 
ATOM      5  C   UNL     1       4.785   3.806  14.881  0.00  0.00    +0.000 A 
ATOM      6  C   UNL     1       5.208   4.604  15.993  0.00  0.00    +0.000 A 
ENDROOT
BRANCH   6   7
ATOM      7  C   UNL     1       4.410   4.574  17.235  0.00  0.00    +0.000 A 
ATOM      8  N   UNL     1       4.472   3.529  18.099  0.00  0.00    +0.000 NA
ATOM      9  C   UNL     1       3.494   3.485  19.049  0.00  0.00    +0.000 A 
ATOM     10  C   UNL     1       3.604   2.756  20.230  0.00  0.00    +0.000 A 
ATOM     11  C   UNL     1       2.561   2.727  21.169  0.00  0.00    +0.000 A 
ATOM     12  C   UNL     1       1.338   3.308  20.859  0.00  0.00    +0.000 A 
ATOM     13  C   UNL     1       1.230   4.082  19.713  0.00  0.00    +0.000 A 
ATOM     14  C   UNL     1       2.346   4.297  18.922  0.00  0.00    +0.000 A 
ATOM     15  N   UNL     1       2.354   5.384  18.146  0.00  0.00    +0.000 NA
ATOM     16  C   UNL     1       3.515   5.597  17.511  0.00  0.00    +0.000 A 
BRANCH  16  17
ATOM     17  O   UNL     1       4.106   6.791  17.925  0.00  0.00    +0.000 OA
ATOM     18  H   UNL     1       3.975   7.411  17.179  0.00  0.00    +0.000 HD
ENDBRANCH  16  17
ENDBRANCH   6   7
BRANCH   1  21
ATOM     19  C   UNL     1       7.634   5.546  17.944  0.00  0.00    +0.000 C 
ATOM     20  O   UNL     1       7.900   4.358  18.096  0.00  0.00    +0.000 OA
ATOM     21  N   UNL     1       6.933   6.075  16.878  0.00  0.00    +0.000 N 
ATOM     22  H   UNL     1       7.148   7.039  16.633  0.00  0.00    +0.000 HD
BRANCH  19  24
ATOM     23  C   UNL     1       8.188   7.967  18.291  0.00  0.00    +0.000 C 
ATOM     24  C   UNL     1       8.049   6.604  18.944  0.00  0.00    +0.000 C 
ENDBRANCH  19  24
ENDBRANCH   1  21
TORSDOF 4
ENDMDL
MODEL 3
REMARK VINA RESULT:      -7.4      1.296      1.493
REMARK  Name = 
REMARK  5 active torsions:
REMARK  status: ('A' for Active; 'I' for Inactive)
REMARK    1  A    between atoms: C_1  and  C_2
REMARK    2  A    between atoms: C_2  and  C_3
REMARK    3  A    between atoms: N_5  and  C_6
REMARK    4  A    between atoms: C_11  and  C_12
REMARK    5  A    between atoms: C_21  and  O_22
REMARK                            x       y       z     vdW  Elec       q    Type
REMARK                         _______ _______ _______ _____ _____    ______ ____
ROOT
ATOM      1  C   UNL     1       6.712   4.986  15.920  0.00  0.00    +0.000 A 
ATOM      2  C   UNL     1       7.459   5.032  14.720  0.00  0.00    +0.000 A 
ATOM      3  C   UNL     1       6.947   4.530  13.514  0.00  0.00    +0.000 A 
ATOM      4  C   UNL     1       5.670   4.005  13.496  0.00  0.00    +0.000 A 
ATOM      5  C   UNL     1       4.933   3.948  14.681  0.00  0.00    +0.000 A 
ATOM      6  C   UNL     1       5.424   4.417  15.942  0.00  0.00    +0.000 A 
ENDROOT
BRANCH   6   7
ATOM      7  C   UNL     1       4.610   4.190  17.152  0.00  0.00    +0.000 A 
ATOM      8  N   UNL     1       3.335   3.730  17.081  0.00  0.00    +0.000 NA
ATOM      9  C   UNL     1       2.602   3.831  18.227  0.00  0.00    +0.000 A 
ATOM     10  C   UNL     1       1.456   3.079  18.472  0.00  0.00    +0.000 A 
ATOM     11  C   UNL     1       0.724   3.233  19.660  0.00  0.00    +0.000 A 
ATOM     12  C   UNL     1       1.052   4.253  20.545  0.00  0.00    +0.000 A 
ATOM     13  C   UNL     1       2.220   4.973  20.341  0.00  0.00    +0.000 A 
ATOM     14  C   UNL     1       3.057   4.639  19.290  0.00  0.00    +0.000 A 
ATOM     15  N   UNL     1       4.344   4.984  19.391  0.00  0.00    +0.000 NA
ATOM     16  C   UNL     1       5.118   4.516  18.402  0.00  0.00    +0.000 A 
BRANCH  16  17
ATOM     17  O   UNL     1       6.079   3.630  18.889  0.00  0.00    +0.000 OA
ATOM     18  H   UNL     1       5.846   2.763  18.498  0.00  0.00    +0.000 HD
ENDBRANCH  16  17
ENDBRANCH   6   7
BRANCH   1  21
ATOM     19  C   UNL     1       7.449   6.783  17.422  0.00  0.00    +0.000 C 
ATOM     20  O   UNL     1       7.111   7.716  16.700  0.00  0.00    +0.000 OA
ATOM     21  N   UNL     1       7.288   5.445  17.122  0.00  0.00    +0.000 N 
ATOM     22  H   UNL     1       7.186   4.816  17.916  0.00  0.00    +0.000 HD
BRANCH  19  24
ATOM     23  C   UNL     1       8.219   5.703  19.551  0.00  0.00    +0.000 C 
ATOM     24  C   UNL     1       8.109   6.999  18.767  0.00  0.00    +0.000 C 
ENDBRANCH  19  24
ENDBRANCH   1  21
TORSDOF 4
ENDMDL
MODEL 4
REMARK VINA RESULT:      -7.3      3.076      4.564
REMARK  Name = 
REMARK  5 active torsions:
REMARK  status: ('A' for Active; 'I' for Inactive)
REMARK    1  A    between atoms: C_1  and  C_2
REMARK    2  A    between atoms: C_2  and  C_3
REMARK    3  A    between atoms: N_5  and  C_6
REMARK    4  A    between atoms: C_11  and  C_12
REMARK    5  A    between atoms: C_21  and  O_22
REMARK                            x       y       z     vdW  Elec       q    Type
REMARK                         _______ _______ _______ _____ _____    ______ ____
ROOT
ATOM      1  C   UNL     1       4.031   3.971  18.900  0.00  0.00    +0.000 A 
ATOM      2  C   UNL     1       4.079   2.566  18.747  0.00  0.00    +0.000 A 
ATOM      3  C   UNL     1       2.942   1.825  18.389  0.00  0.00    +0.000 A 
ATOM      4  C   UNL     1       1.756   2.491  18.154  0.00  0.00    +0.000 A 
ATOM      5  C   UNL     1       1.702   3.878  18.314  0.00  0.00    +0.000 A 
ATOM      6  C   UNL     1       2.825   4.673  18.708  0.00  0.00    +0.000 A 
ENDROOT
BRANCH   6   7
ATOM      7  C   UNL     1       2.622   6.112  18.971  0.00  0.00    +0.000 A 
ATOM      8  N   UNL     1       2.089   6.558  20.136  0.00  0.00    +0.000 NA
ATOM      9  C   UNL     1       1.693   7.863  20.147  0.00  0.00    +0.000 A 
ATOM     10  C   UNL     1       1.505   8.597  21.315  0.00  0.00    +0.000 A 
ATOM     11  C   UNL     1       1.078   9.934  21.275  0.00  0.00    +0.000 A 
ATOM     12  C   UNL     1       0.690  10.498  20.066  0.00  0.00    +0.000 A 
ATOM     13  C   UNL     1       0.923   9.799  18.891  0.00  0.00    +0.000 A 
ATOM     14  C   UNL     1       1.571   8.577  18.935  0.00  0.00    +0.000 A 
ATOM     15  N   UNL     1       2.200   8.169  17.830  0.00  0.00    +0.000 NA
ATOM     16  C   UNL     1       2.913   7.045  17.986  0.00  0.00    +0.000 A 
BRANCH  16  17
ATOM     17  O   UNL     1       4.274   7.278  17.788  0.00  0.00    +0.000 OA
ATOM     18  H   UNL     1       4.728   6.594  18.320  0.00  0.00    +0.000 HD
ENDBRANCH  16  17
ENDBRANCH   6   7
BRANCH   1  21
ATOM     19  C   UNL     1       6.214   5.011  18.469  0.00  0.00    +0.000 C 
ATOM     20  O   UNL     1       6.253   4.760  17.269  0.00  0.00    +0.000 OA
ATOM     21  N   UNL     1       5.181   4.670  19.320  0.00  0.00    +0.000 N 
ATOM     22  H   UNL     1       5.046   5.276  20.127  0.00  0.00    +0.000 HD
BRANCH  19  24
ATOM     23  C   UNL     1       7.865   6.894  18.349  0.00  0.00    +0.000 C 
ATOM     24  C   UNL     1       7.333   5.741  19.181  0.00  0.00    +0.000 C 
ENDBRANCH  19  24
ENDBRANCH   1  21
TORSDOF 4
ENDMDL
MODEL 5
REMARK VINA RESULT:      -6.9      1.716      2.136
REMARK  Name = 
REMARK  5 active torsions:
REMARK  status: ('A' for Active; 'I' for Inactive)
REMARK    1  A    between atoms: C_1  and  C_2
REMARK    2  A    between atoms: C_2  and  C_3
REMARK    3  A    between atoms: N_5  and  C_6
REMARK    4  A    between atoms: C_11  and  C_12
REMARK    5  A    between atoms: C_21  and  O_22
REMARK                            x       y       z     vdW  Elec       q    Type
REMARK                         _______ _______ _______ _____ _____    ______ ____
ROOT
ATOM      1  C   UNL     1       6.453   5.196  15.687  0.00  0.00    +0.000 A 
ATOM      2  C   UNL     1       7.345   5.047  14.601  0.00  0.00    +0.000 A 
ATOM      3  C   UNL     1       6.992   4.323  13.452  0.00  0.00    +0.000 A 
ATOM      4  C   UNL     1       5.731   3.767  13.372  0.00  0.00    +0.000 A 
ATOM      5  C   UNL     1       4.850   3.904  14.448  0.00  0.00    +0.000 A 
ATOM      6  C   UNL     1       5.175   4.605  15.653  0.00  0.00    +0.000 A 
ENDROOT
BRANCH   6   7
ATOM      7  C   UNL     1       4.216   4.577  16.774  0.00  0.00    +0.000 A 
ATOM      8  N   UNL     1       3.920   5.692  17.491  0.00  0.00    +0.000 NA
ATOM      9  C   UNL     1       3.249   5.486  18.661  0.00  0.00    +0.000 A 
ATOM     10  C   UNL     1       2.525   6.479  19.315  0.00  0.00    +0.000 A 
ATOM     11  C   UNL     1       1.867   6.223  20.528  0.00  0.00    +0.000 A 
ATOM     12  C   UNL     1       2.058   5.006  21.171  0.00  0.00    +0.000 A 
ATOM     13  C   UNL     1       2.730   3.990  20.508  0.00  0.00    +0.000 A 
ATOM     14  C   UNL     1       3.162   4.188  19.208  0.00  0.00    +0.000 A 
ATOM     15  N   UNL     1       3.351   3.106  18.448  0.00  0.00    +0.000 NA
ATOM     16  C   UNL     1       3.641   3.377  17.168  0.00  0.00    +0.000 A 
BRANCH  16  17
ATOM     17  O   UNL     1       2.649   2.898  16.313  0.00  0.00    +0.000 OA
ATOM     18  H   UNL     1       2.043   2.388  16.888  0.00  0.00    +0.000 HD
ENDBRANCH  16  17
ENDBRANCH   6   7
BRANCH   1  21
ATOM     19  C   UNL     1       7.607   5.285  17.854  0.00  0.00    +0.000 C 
ATOM     20  O   UNL     1       7.987   4.119  17.857  0.00  0.00    +0.000 OA
ATOM     21  N   UNL     1       6.870   5.880  16.849  0.00  0.00    +0.000 N 
ATOM     22  H   UNL     1       6.991   6.884  16.736  0.00  0.00    +0.000 HD
BRANCH  19  24
ATOM     23  C   UNL     1       8.221   7.633  18.486  0.00  0.00    +0.000 C 
ATOM     24  C   UNL     1       7.905   6.237  18.992  0.00  0.00    +0.000 C 
ENDBRANCH  19  24
ENDBRANCH   1  21
TORSDOF 4
ENDMDL
MODEL 6
REMARK VINA RESULT:      -6.8      2.605      6.191
REMARK  Name = 
REMARK  5 active torsions:
REMARK  status: ('A' for Active; 'I' for Inactive)
REMARK    1  A    between atoms: C_1  and  C_2
REMARK    2  A    between atoms: C_2  and  C_3
REMARK    3  A    between atoms: N_5  and  C_6
REMARK    4  A    between atoms: C_11  and  C_12
REMARK    5  A    between atoms: C_21  and  O_22
REMARK                            x       y       z     vdW  Elec       q    Type
REMARK                         _______ _______ _______ _____ _____    ______ ____
ROOT
ATOM      1  C   UNL     1       2.162   6.970  20.003  0.00  0.00    +0.000 A 
ATOM      2  C   UNL     1       1.368   7.982  20.591  0.00  0.00    +0.000 A 
ATOM      3  C   UNL     1       1.018   9.145  19.889  0.00  0.00    +0.000 A 
ATOM      4  C   UNL     1       1.439   9.289  18.581  0.00  0.00    +0.000 A 
ATOM      5  C   UNL     1       2.232   8.297  18.000  0.00  0.00    +0.000 A 
ATOM      6  C   UNL     1       2.641   7.108  18.686  0.00  0.00    +0.000 A 
ENDROOT
BRANCH   6   7
ATOM      7  C   UNL     1       3.584   6.189  18.018  0.00  0.00    +0.000 A 
ATOM      8  N   UNL     1       4.871   6.541  17.772  0.00  0.00    +0.000 NA
ATOM      9  C   UNL     1       5.553   5.732  16.910  0.00  0.00    +0.000 A 
ATOM     10  C   UNL     1       6.943   5.684  16.842  0.00  0.00    +0.000 A 
ATOM     11  C   UNL     1       7.599   4.849  15.923  0.00  0.00    +0.000 A 
ATOM     12  C   UNL     1       6.862   4.169  14.962  0.00  0.00    +0.000 A 
ATOM     13  C   UNL     1       5.478   4.164  15.051  0.00  0.00    +0.000 A 
ATOM     14  C   UNL     1       4.856   4.799  16.113  0.00  0.00    +0.000 A 
ATOM     15  N   UNL     1       3.629   4.390  16.446  0.00  0.00    +0.000 NA
ATOM     16  C   UNL     1       3.144   4.956  17.560  0.00  0.00    +0.000 A 
BRANCH  16  17
ATOM     17  O   UNL     1       2.933   4.005  18.558  0.00  0.00    +0.000 OA
ATOM     18  H   UNL     1       2.520   3.244  18.100  0.00  0.00    +0.000 HD
ENDBRANCH  16  17
ENDBRANCH   6   7
BRANCH   1  21
ATOM     19  C   UNL     1       1.734   4.738  20.933  0.00  0.00    +0.000 C 
ATOM     20  O   UNL     1       0.617   4.596  20.446  0.00  0.00    +0.000 OA
ATOM     21  N   UNL     1       2.541   5.845  20.764  0.00  0.00    +0.000 N 
ATOM     22  H   UNL     1       3.544   5.683  20.822  0.00  0.00    +0.000 HD
BRANCH  19  24
ATOM     23  C   UNL     1       1.678   2.341  21.669  0.00  0.00    +0.000 C 
ATOM     24  C   UNL     1       2.375   3.683  21.810  0.00  0.00    +0.000 C 
ENDBRANCH  19  24
ENDBRANCH   1  21
TORSDOF 4
ENDMDL
MODEL 7
REMARK VINA RESULT:      -6.8      1.435      1.851
REMARK  Name = 
REMARK  5 active torsions:
REMARK  status: ('A' for Active; 'I' for Inactive)
REMARK    1  A    between atoms: C_1  and  C_2
REMARK    2  A    between atoms: C_2  and  C_3
REMARK    3  A    between atoms: N_5  and  C_6
REMARK    4  A    between atoms: C_11  and  C_12
REMARK    5  A    between atoms: C_21  and  O_22
REMARK                            x       y       z     vdW  Elec       q    Type
REMARK                         _______ _______ _______ _____ _____    ______ ____
ROOT
ATOM      1  C   UNL     1       6.590   4.854  15.809  0.00  0.00    +0.000 A 
ATOM      2  C   UNL     1       7.448   4.739  14.690  0.00  0.00    +0.000 A 
ATOM      3  C   UNL     1       6.976   4.309  13.441  0.00  0.00    +0.000 A 
ATOM      4  C   UNL     1       5.634   4.019  13.296  0.00  0.00    +0.000 A 
ATOM      5  C   UNL     1       4.785   4.122  14.401  0.00  0.00    +0.000 A 
ATOM      6  C   UNL     1       5.225   4.524  15.703  0.00  0.00    +0.000 A 
ENDROOT
BRANCH   6   7
ATOM      7  C   UNL     1       4.268   4.474  16.825  0.00  0.00    +0.000 A 
ATOM      8  N   UNL     1       3.968   5.576  17.559  0.00  0.00    +0.000 NA
ATOM      9  C   UNL     1       3.301   5.348  18.728  0.00  0.00    +0.000 A 
ATOM     10  C   UNL     1       2.573   6.328  19.398  0.00  0.00    +0.000 A 
ATOM     11  C   UNL     1       1.919   6.049  20.608  0.00  0.00    +0.000 A 
ATOM     12  C   UNL     1       2.117   4.824  21.233  0.00  0.00    +0.000 A 
ATOM     13  C   UNL     1       2.793   3.822  20.553  0.00  0.00    +0.000 A 
ATOM     14  C   UNL     1       3.222   4.042  19.255  0.00  0.00    +0.000 A 
ATOM     15  N   UNL     1       3.414   2.973  18.478  0.00  0.00    +0.000 NA
ATOM     16  C   UNL     1       3.701   3.265  17.201  0.00  0.00    +0.000 A 
BRANCH  16  17
ATOM     17  O   UNL     1       2.709   2.795  16.341  0.00  0.00    +0.000 OA
ATOM     18  H   UNL     1       1.884   2.818  16.868  0.00  0.00    +0.000 HD
ENDBRANCH  16  17
ENDBRANCH   6   7
BRANCH   1  21
ATOM     19  C   UNL     1       7.356   6.542  17.420  0.00  0.00    +0.000 C 
ATOM     20  O   UNL     1       7.136   7.520  16.711  0.00  0.00    +0.000 OA
ATOM     21  N   UNL     1       7.118   5.230  17.062  0.00  0.00    +0.000 N 
ATOM     22  H   UNL     1       6.918   4.586  17.824  0.00  0.00    +0.000 HD
BRANCH  19  24
ATOM     23  C   UNL     1       7.480   5.533  19.712  0.00  0.00    +0.000 C 
ATOM     24  C   UNL     1       7.940   6.665  18.811  0.00  0.00    +0.000 C 
ENDBRANCH  19  24
ENDBRANCH   1  21
TORSDOF 4
ENDMDL
MODEL 8
REMARK VINA RESULT:      -6.6      2.584      6.252
REMARK  Name = 
REMARK  5 active torsions:
REMARK  status: ('A' for Active; 'I' for Inactive)
REMARK    1  A    between atoms: C_1  and  C_2
REMARK    2  A    between atoms: C_2  and  C_3
REMARK    3  A    between atoms: N_5  and  C_6
REMARK    4  A    between atoms: C_11  and  C_12
REMARK    5  A    between atoms: C_21  and  O_22
REMARK                            x       y       z     vdW  Elec       q    Type
REMARK                         _______ _______ _______ _____ _____    ______ ____
ROOT
ATOM      1  C   UNL     1       2.182   6.917  20.062  0.00  0.00    +0.000 A 
ATOM      2  C   UNL     1       1.304   7.822  20.700  0.00  0.00    +0.000 A 
ATOM      3  C   UNL     1       0.945   9.043  20.108  0.00  0.00    +0.000 A 
ATOM      4  C   UNL     1       1.443   9.351  18.857  0.00  0.00    +0.000 A 
ATOM      5  C   UNL     1       2.320   8.464  18.228  0.00  0.00    +0.000 A 
ATOM      6  C   UNL     1       2.740   7.222  18.806  0.00  0.00    +0.000 A 
ENDROOT
BRANCH   6   7
ATOM      7  C   UNL     1       3.767   6.424  18.108  0.00  0.00    +0.000 A 
ATOM      8  N   UNL     1       4.188   6.737  16.857  0.00  0.00    +0.000 NA
ATOM      9  C   UNL     1       4.919   5.778  16.218  0.00  0.00    +0.000 A 
ATOM     10  C   UNL     1       5.754   6.044  15.136  0.00  0.00    +0.000 A 
ATOM     11  C   UNL     1       6.470   5.018  14.499  0.00  0.00    +0.000 A 
ATOM     12  C   UNL     1       6.236   3.694  14.849  0.00  0.00    +0.000 A 
ATOM     13  C   UNL     1       5.450   3.418  15.958  0.00  0.00    +0.000 A 
ATOM     14  C   UNL     1       4.948   4.459  16.720  0.00  0.00    +0.000 A 
ATOM     15  N   UNL     1       4.632   4.199  17.991  0.00  0.00    +0.000 NA
ATOM     16  C   UNL     1       4.278   5.279  18.702  0.00  0.00    +0.000 A 
BRANCH  16  17
ATOM     17  O   UNL     1       5.175   5.514  19.744  0.00  0.00    +0.000 OA
ATOM     18  H   UNL     1       5.802   6.180  19.394  0.00  0.00    +0.000 HD
ENDBRANCH  16  17
ENDBRANCH   6   7
BRANCH   1  21
ATOM     19  C   UNL     1       1.789   4.587  20.732  0.00  0.00    +0.000 C 
ATOM     20  O   UNL     1       0.700   4.465  20.179  0.00  0.00    +0.000 OA
ATOM     21  N   UNL     1       2.565   5.729  20.720  0.00  0.00    +0.000 N 
ATOM     22  H   UNL     1       3.569   5.591  20.808  0.00  0.00    +0.000 HD
BRANCH  19  24
ATOM     23  C   UNL     1       1.410   2.395  21.891  0.00  0.00    +0.000 C 
ATOM     24  C   UNL     1       2.424   3.465  21.524  0.00  0.00    +0.000 C 
ENDBRANCH  19  24
ENDBRANCH   1  21
TORSDOF 4
ENDMDL
MODEL 9
REMARK VINA RESULT:      -6.5      3.516      5.367
REMARK  Name = 
REMARK  5 active torsions:
REMARK  status: ('A' for Active; 'I' for Inactive)
REMARK    1  A    between atoms: C_1  and  C_2
REMARK    2  A    between atoms: C_2  and  C_3
REMARK    3  A    between atoms: N_5  and  C_6
REMARK    4  A    between atoms: C_11  and  C_12
REMARK    5  A    between atoms: C_21  and  O_22
REMARK                            x       y       z     vdW  Elec       q    Type
REMARK                         _______ _______ _______ _____ _____    ______ ____
ROOT
ATOM      1  C   UNL     1       3.427   5.197  18.131  0.00  0.00    +0.000 A 
ATOM      2  C   UNL     1       4.121   4.278  17.311  0.00  0.00    +0.000 A 
ATOM      3  C   UNL     1       4.927   4.705  16.245  0.00  0.00    +0.000 A 
ATOM      4  C   UNL     1       5.066   6.058  16.011  0.00  0.00    +0.000 A 
ATOM      5  C   UNL     1       4.374   6.970  16.812  0.00  0.00    +0.000 A 
ATOM      6  C   UNL     1       3.515   6.582  17.890  0.00  0.00    +0.000 A 
ENDROOT
BRANCH   6   7
ATOM      7  C   UNL     1       2.734   7.623  18.588  0.00  0.00    +0.000 A 
ATOM      8  N   UNL     1       2.419   7.519  19.904  0.00  0.00    +0.000 NA
ATOM      9  C   UNL     1       1.469   8.387  20.358  0.00  0.00    +0.000 A 
ATOM     10  C   UNL     1       1.303   8.706  21.703  0.00  0.00    +0.000 A 
ATOM     11  C   UNL     1       0.297   9.591  22.123  0.00  0.00    +0.000 A 
ATOM     12  C   UNL     1      -0.647  10.045  21.210  0.00  0.00    +0.000 A 
ATOM     13  C   UNL     1      -0.463   9.779  19.861  0.00  0.00    +0.000 A 
ATOM     14  C   UNL     1       0.673   9.107  19.442  0.00  0.00    +0.000 A 
ATOM     15  N   UNL     1       1.066   9.285  18.178  0.00  0.00    +0.000 NA
ATOM     16  C   UNL     1       2.240   8.711  17.882  0.00  0.00    +0.000 A 
BRANCH  16  17
ATOM     17  O   UNL     1       3.197   9.665  17.539  0.00  0.00    +0.000 OA
ATOM     18  H   UNL     1       3.419  10.115  18.379  0.00  0.00    +0.000 HD
ENDBRANCH  16  17
ENDBRANCH   6   7
BRANCH   1  21
ATOM     19  C   UNL     1       1.462   3.947  18.912  0.00  0.00    +0.000 C 
ATOM     20  O   UNL     1       1.085   3.576  17.805  0.00  0.00    +0.000 OA
ATOM     21  N   UNL     1       2.578   4.724  19.153  0.00  0.00    +0.000 N 
ATOM     22  H   UNL     1       3.024   4.600  20.059  0.00  0.00    +0.000 HD
BRANCH  19  24
ATOM     23  C   UNL     1       1.672   3.161  21.284  0.00  0.00    +0.000 C 
ATOM     24  C   UNL     1       0.720   3.592  20.182  0.00  0.00    +0.000 C 
ENDBRANCH  19  24
ENDBRANCH   1  21
TORSDOF 4
ENDMDL
