MODEL 1
REMARK VINA RESULT:      -6.5      0.000      0.000
REMARK  Name = 
REMARK  9 active torsions:
REMARK  status: ('A' for Active; 'I' for Inactive)
REMARK    1  A    between atoms: C_1  and  O_2
REMARK    2  A    between atoms: O_2  and  C_3
REMARK    3  A    between atoms: C_8  and  C_9
REMARK    4  A    between atoms: C_9  and  C_10
REMARK    5  A    between atoms: C_9  and  C_11
REMARK    6  A    between atoms: C_14  and  O_15
REMARK    7  A    between atoms: C_17  and  C_18
REMARK    8  A    between atoms: C_17  and  C_19
REMARK    9  A    between atoms: C_23  and  C_24
REMARK                            x       y       z     vdW  Elec       q    Type
REMARK                         _______ _______ _______ _____ _____    ______ ____
ROOT
ATOM      1  C   UNL     1       2.647   7.043  18.103  0.00  0.00    +0.000 A 
ATOM      2  C   UNL     1       1.994   8.261  17.950  0.00  0.00    +0.000 A 
ATOM      3  C   UNL     1       1.432   8.949  19.054  0.00  0.00    +0.000 A 
ATOM      4  C   UNL     1       1.423   8.356  20.301  0.00  0.00    +0.000 A 
ATOM      5  C   UNL     1       1.954   7.057  20.438  0.00  0.00    +0.000 A 
ATOM      6  C   UNL     1       2.604   6.404  19.356  0.00  0.00    +0.000 A 
ATOM      7  C   UNL     1       0.889   9.137  21.449  0.00  0.00    +0.000 C 
ATOM      8  O   UNL     1       0.672   8.609  22.534  0.00  0.00    +0.000 OA
ATOM      9  C   UNL     1       0.577  10.613  21.263  0.00  0.00    +0.000 C 
ATOM     10  C   UNL     1       0.600  11.217  20.055  0.00  0.00    +0.000 C 
ATOM     11  C   UNL     1      -0.041  12.601  19.619  0.00  0.00    +0.000 C 
ATOM     12  C   UNL     1       0.206  13.823  20.507  0.00  0.00    +0.000 C 
ATOM     13  C   UNL     1       0.231  13.182  18.164  0.00  0.00    +0.000 C 
ATOM     14  C   UNL     1      -1.514  12.184  19.593  0.00  0.00    +0.000 C 
ATOM     15  C   UNL     1      -1.702  11.108  18.509  0.00  0.00    +0.000 C 
ATOM     16  C   UNL     1      -0.450  10.235  18.091  0.00  0.00    +0.000 C 
ATOM     17  C   UNL     1       0.938  10.371  18.847  0.00  0.00    +0.000 C 
ATOM     18  C   UNL     1       2.214  11.059  18.270  0.00  0.00    +0.000 C 
ENDROOT
BRANCH   6  19
ATOM     19  C   UNL     1       3.288   5.046  19.531  0.00  0.00    +0.000 C 
ATOM     20  C   UNL     1       2.676   4.236  20.674  0.00  0.00    +0.000 C 
ATOM     21  C   UNL     1       4.802   5.191  19.685  0.00  0.00    +0.000 C 
ENDBRANCH   6  19
BRANCH   1  23
ATOM     22  C   UNL     1       4.615   7.037  16.720  0.00  0.00    +0.000 C 
ATOM     23  O   UNL     1       3.382   6.444  17.114  0.00  0.00    +0.000 OA
ENDBRANCH   1  23
BRANCH   9  24
ATOM     24  O   UNL     1       0.080  11.248  22.388  0.00  0.00    +0.000 OA
ATOM     25  H   UNL     1       0.865  11.363  22.972  0.00  0.00    +0.000 HD
ENDBRANCH   9  24
TORSDOF 3
ENDMDL
MODEL 2
REMARK VINA RESULT:      -6.4      1.582      7.315
REMARK  Name = 
REMARK  9 active torsions:
REMARK  status: ('A' for Active; 'I' for Inactive)
REMARK    1  A    between atoms: C_1  and  O_2
REMARK    2  A    between atoms: O_2  and  C_3
REMARK    3  A    between atoms: C_8  and  C_9
REMARK    4  A    between atoms: C_9  and  C_10
REMARK    5  A    between atoms: C_9  and  C_11
REMARK    6  A    between atoms: C_14  and  O_15
REMARK    7  A    between atoms: C_17  and  C_18
REMARK    8  A    between atoms: C_17  and  C_19
REMARK    9  A    between atoms: C_23  and  C_24
REMARK                            x       y       z     vdW  Elec       q    Type
REMARK                         _______ _______ _______ _____ _____    ______ ____
ROOT
ATOM      1  C   UNL     1       0.789   8.482  20.438  0.00  0.00    +0.000 A 
ATOM      2  C   UNL     1       0.944   7.113  20.630  0.00  0.00    +0.000 A 
ATOM      3  C   UNL     1       1.841   6.348  19.844  0.00  0.00    +0.000 A 
ATOM      4  C   UNL     1       2.499   6.937  18.782  0.00  0.00    +0.000 A 
ATOM      5  C   UNL     1       2.237   8.291  18.490  0.00  0.00    +0.000 A 
ATOM      6  C   UNL     1       1.415   9.086  19.333  0.00  0.00    +0.000 A 
ATOM      7  C   UNL     1       3.485   6.121  18.024  0.00  0.00    +0.000 C 
ATOM      8  O   UNL     1       3.956   6.514  16.962  0.00  0.00    +0.000 OA
ATOM      9  C   UNL     1       3.893   4.759  18.562  0.00  0.00    +0.000 C 
ATOM     10  C   UNL     1       3.276   4.174  19.612  0.00  0.00    +0.000 C 
ATOM     11  C   UNL     1       3.301   2.654  20.064  0.00  0.00    +0.000 C 
ATOM     12  C   UNL     1       4.657   1.950  20.156  0.00  0.00    +0.000 C 
ATOM     13  C   UNL     1       2.601   2.215  21.422  0.00  0.00    +0.000 C 
ATOM     14  C   UNL     1       2.408   2.064  18.968  0.00  0.00    +0.000 C 
ATOM     15  C   UNL     1       0.999   2.670  19.102  0.00  0.00    +0.000 C 
ATOM     16  C   UNL     1       0.851   4.080  19.805  0.00  0.00    +0.000 C 
ATOM     17  C   UNL     1       2.124   4.913  20.257  0.00  0.00    +0.000 C 
ATOM     18  C   UNL     1       2.598   5.105  21.731  0.00  0.00    +0.000 C 
ENDROOT
BRANCH   6  19
ATOM     19  C   UNL     1       1.224  10.585  19.088  0.00  0.00    +0.000 C 
ATOM     20  C   UNL     1      -0.183  10.913  18.589  0.00  0.00    +0.000 C 
ATOM     21  C   UNL     1       2.301  11.148  18.160  0.00  0.00    +0.000 C 
ENDBRANCH   6  19
BRANCH   1  23
ATOM     22  C   UNL     1       0.514   9.366  22.658  0.00  0.00    +0.000 C 
ATOM     23  O   UNL     1       0.101   9.298  21.298  0.00  0.00    +0.000 OA
ENDBRANCH   1  23
BRANCH   9  24
ATOM     24  O   UNL     1       4.810   4.077  17.781  0.00  0.00    +0.000 OA
ATOM     25  H   UNL     1       4.289   3.348  17.372  0.00  0.00    +0.000 HD
ENDBRANCH   9  24
TORSDOF 3
ENDMDL
MODEL 3
REMARK VINA RESULT:      -6.1      8.028     10.590
REMARK  Name = 
REMARK  9 active torsions:
REMARK  status: ('A' for Active; 'I' for Inactive)
REMARK    1  A    between atoms: C_1  and  O_2
REMARK    2  A    between atoms: O_2  and  C_3
REMARK    3  A    between atoms: C_8  and  C_9
REMARK    4  A    between atoms: C_9  and  C_10
REMARK    5  A    between atoms: C_9  and  C_11
REMARK    6  A    between atoms: C_14  and  O_15
REMARK    7  A    between atoms: C_17  and  C_18
REMARK    8  A    between atoms: C_17  and  C_19
REMARK    9  A    between atoms: C_23  and  C_24
REMARK                            x       y       z     vdW  Elec       q    Type
REMARK                         _______ _______ _______ _____ _____    ______ ____
ROOT
ATOM      1  C   UNL     1       8.253  14.679  23.623  0.00  0.00    +0.000 A 
ATOM      2  C   UNL     1       8.989  13.895  22.742  0.00  0.00    +0.000 A 
ATOM      3  C   UNL     1       8.683  13.840  21.359  0.00  0.00    +0.000 A 
ATOM      4  C   UNL     1       7.560  14.484  20.878  0.00  0.00    +0.000 A 
ATOM      5  C   UNL     1       6.726  15.163  21.789  0.00  0.00    +0.000 A 
ATOM      6  C   UNL     1       7.080  15.302  23.158  0.00  0.00    +0.000 A 
ATOM      7  C   UNL     1       7.311  14.463  19.412  0.00  0.00    +0.000 C 
ATOM      8  O   UNL     1       6.244  14.842  18.941  0.00  0.00    +0.000 OA
ATOM      9  C   UNL     1       8.390  13.933  18.481  0.00  0.00    +0.000 C 
ATOM     10  C   UNL     1       9.505  13.318  18.933  0.00  0.00    +0.000 C 
ATOM     11  C   UNL     1      10.523  12.394  18.143  0.00  0.00    +0.000 C 
ATOM     12  C   UNL     1      11.047  12.885  16.791  0.00  0.00    +0.000 C 
ATOM     13  C   UNL     1      11.852  11.884  18.853  0.00  0.00    +0.000 C 
ATOM     14  C   UNL     1       9.655  11.138  18.014  0.00  0.00    +0.000 C 
ATOM     15  C   UNL     1       9.371  10.590  19.424  0.00  0.00    +0.000 C 
ATOM     16  C   UNL     1       9.433  11.592  20.647  0.00  0.00    +0.000 C 
ATOM     17  C   UNL     1       9.663  13.147  20.427  0.00  0.00    +0.000 C 
ATOM     18  C   UNL     1      10.984  13.915  20.742  0.00  0.00    +0.000 C 
ENDROOT
BRANCH   6  19
ATOM     19  C   UNL     1       6.239  16.139  24.125  0.00  0.00    +0.000 C 
ATOM     20  C   UNL     1       5.207  15.293  24.872  0.00  0.00    +0.000 C 
ATOM     21  C   UNL     1       5.593  17.334  23.423  0.00  0.00    +0.000 C 
ENDBRANCH   6  19
BRANCH   1  23
ATOM     22  C   UNL     1       8.610  13.861  25.857  0.00  0.00    +0.000 C 
ATOM     23  O   UNL     1       8.630  14.930  24.917  0.00  0.00    +0.000 OA
ENDBRANCH   1  23
BRANCH   9  24
ATOM     24  O   UNL     1       8.058  13.951  17.137  0.00  0.00    +0.000 OA
ATOM     25  H   UNL     1       7.515  14.766  17.030  0.00  0.00    +0.000 HD
ENDBRANCH   9  24
TORSDOF 3
ENDMDL
MODEL 4
REMARK VINA RESULT:      -6.0      4.631      7.579
REMARK  Name = 
REMARK  9 active torsions:
REMARK  status: ('A' for Active; 'I' for Inactive)
REMARK    1  A    between atoms: C_1  and  O_2
REMARK    2  A    between atoms: O_2  and  C_3
REMARK    3  A    between atoms: C_8  and  C_9
REMARK    4  A    between atoms: C_9  and  C_10
REMARK    5  A    between atoms: C_9  and  C_11
REMARK    6  A    between atoms: C_14  and  O_15
REMARK    7  A    between atoms: C_17  and  C_18
REMARK    8  A    between atoms: C_17  and  C_19
REMARK    9  A    between atoms: C_23  and  C_24
REMARK                            x       y       z     vdW  Elec       q    Type
REMARK                         _______ _______ _______ _____ _____    ______ ____
ROOT
ATOM      1  C   UNL     1      -1.933  12.216  18.712  0.00  0.00    +0.000 A 
ATOM      2  C   UNL     1      -2.497  12.859  19.809  0.00  0.00    +0.000 A 
ATOM      3  C   UNL     1      -3.873  12.733  20.119  0.00  0.00    +0.000 A 
ATOM      4  C   UNL     1      -4.713  12.053  19.258  0.00  0.00    +0.000 A 
ATOM      5  C   UNL     1      -4.176  11.521  18.068  0.00  0.00    +0.000 A 
ATOM      6  C   UNL     1      -2.781  11.562  17.801  0.00  0.00    +0.000 A 
ATOM      7  C   UNL     1      -6.137  11.881  19.653  0.00  0.00    +0.000 C 
ATOM      8  O   UNL     1      -6.973  11.464  18.858  0.00  0.00    +0.000 OA
ATOM      9  C   UNL     1      -6.569  12.258  21.060  0.00  0.00    +0.000 C 
ATOM     10  C   UNL     1      -5.757  12.905  21.925  0.00  0.00    +0.000 C 
ATOM     11  C   UNL     1      -6.134  13.693  23.249  0.00  0.00    +0.000 C 
ATOM     12  C   UNL     1      -7.067  13.013  24.254  0.00  0.00    +0.000 C 
ATOM     13  C   UNL     1      -4.987  14.266  24.188  0.00  0.00    +0.000 C 
ATOM     14  C   UNL     1      -6.763  14.937  22.615  0.00  0.00    +0.000 C 
ATOM     15  C   UNL     1      -5.683  15.677  21.805  0.00  0.00    +0.000 C 
ATOM     16  C   UNL     1      -4.446  14.848  21.269  0.00  0.00    +0.000 C 
ATOM     17  C   UNL     1      -4.369  13.274  21.450  0.00  0.00    +0.000 C 
ATOM     18  C   UNL     1      -3.434  12.527  22.453  0.00  0.00    +0.000 C 
ENDROOT
BRANCH   6  19
ATOM     19  C   UNL     1      -2.179  10.880  16.569  0.00  0.00    +0.000 C 
ATOM     20  C   UNL     1      -3.134  10.901  15.375  0.00  0.00    +0.000 C 
ATOM     21  C   UNL     1      -1.697   9.464  16.886  0.00  0.00    +0.000 C 
ENDBRANCH   6  19
BRANCH   1  23
ATOM     22  C   UNL     1       0.240  11.516  19.470  0.00  0.00    +0.000 C 
ATOM     23  O   UNL     1      -0.583  12.135  18.488  0.00  0.00    +0.000 OA
ENDBRANCH   1  23
BRANCH   9  24
ATOM     24  O   UNL     1      -7.914  12.066  21.326  0.00  0.00    +0.000 OA
ATOM     25  H   UNL     1      -8.012  12.304  22.277  0.00  0.00    +0.000 HD
ENDBRANCH   9  24
TORSDOF 3
ENDMDL
MODEL 5
REMARK VINA RESULT:      -6.0      3.981      8.104
REMARK  Name = 
REMARK  9 active torsions:
REMARK  status: ('A' for Active; 'I' for Inactive)
REMARK    1  A    between atoms: C_1  and  O_2
REMARK    2  A    between atoms: O_2  and  C_3
REMARK    3  A    between atoms: C_8  and  C_9
REMARK    4  A    between atoms: C_9  and  C_10
REMARK    5  A    between atoms: C_9  and  C_11
REMARK    6  A    between atoms: C_14  and  O_15
REMARK    7  A    between atoms: C_17  and  C_18
REMARK    8  A    between atoms: C_17  and  C_19
REMARK    9  A    between atoms: C_23  and  C_24
REMARK                            x       y       z     vdW  Elec       q    Type
REMARK                         _______ _______ _______ _____ _____    ______ ____
ROOT
ATOM      1  C   UNL     1      -4.534  12.839  22.692  0.00  0.00    +0.000 A 
ATOM      2  C   UNL     1      -3.184  12.663  22.406  0.00  0.00    +0.000 A 
ATOM      3  C   UNL     1      -2.724  12.451  21.083  0.00  0.00    +0.000 A 
ATOM      4  C   UNL     1      -3.634  12.298  20.056  0.00  0.00    +0.000 A 
ATOM      5  C   UNL     1      -5.011  12.330  20.359  0.00  0.00    +0.000 A 
ATOM      6  C   UNL     1      -5.475  12.638  21.666  0.00  0.00    +0.000 A 
ATOM      7  C   UNL     1      -3.114  12.147  18.670  0.00  0.00    +0.000 C 
ATOM      8  O   UNL     1      -3.847  11.816  17.745  0.00  0.00    +0.000 OA
ATOM      9  C   UNL     1      -1.636  12.381  18.402  0.00  0.00    +0.000 C 
ATOM     10  C   UNL     1      -0.732  12.553  19.392  0.00  0.00    +0.000 C 
ATOM     11  C   UNL     1       0.848  12.433  19.332  0.00  0.00    +0.000 C 
ATOM     12  C   UNL     1       1.586  13.155  18.202  0.00  0.00    +0.000 C 
ATOM     13  C   UNL     1       1.724  12.815  20.603  0.00  0.00    +0.000 C 
ATOM     14  C   UNL     1       0.968  10.910  19.231  0.00  0.00    +0.000 C 
ATOM     15  C   UNL     1       0.402  10.285  20.519  0.00  0.00    +0.000 C 
ATOM     16  C   UNL     1      -0.662  11.111  21.351  0.00  0.00    +0.000 C 
ATOM     17  C   UNL     1      -1.228  12.494  20.820  0.00  0.00    +0.000 C 
ATOM     18  C   UNL     1      -0.856  13.898  21.390  0.00  0.00    +0.000 C 
ENDROOT
BRANCH   6  19
ATOM     19  C   UNL     1      -6.966  12.793  21.973  0.00  0.00    +0.000 C 
ATOM     20  C   UNL     1      -7.790  11.622  21.436  0.00  0.00    +0.000 C 
ATOM     21  C   UNL     1      -7.507  14.138  21.487  0.00  0.00    +0.000 C 
ENDBRANCH   6  19
BRANCH   1  23
ATOM     22  C   UNL     1      -4.752  12.444  25.054  0.00  0.00    +0.000 C 
ATOM     23  O   UNL     1      -5.007  13.251  23.910  0.00  0.00    +0.000 OA
ENDBRANCH   1  23
BRANCH   9  24
ATOM     24  O   UNL     1      -1.251  12.211  17.083  0.00  0.00    +0.000 OA
ATOM     25  H   UNL     1      -1.230  11.234  16.958  0.00  0.00    +0.000 HD
ENDBRANCH   9  24
TORSDOF 3
ENDMDL
MODEL 6
REMARK VINA RESULT:      -5.8      0.953      1.164
REMARK  Name = 
REMARK  9 active torsions:
REMARK  status: ('A' for Active; 'I' for Inactive)
REMARK    1  A    between atoms: C_1  and  O_2
REMARK    2  A    between atoms: O_2  and  C_3
REMARK    3  A    between atoms: C_8  and  C_9
REMARK    4  A    between atoms: C_9  and  C_10
REMARK    5  A    between atoms: C_9  and  C_11
REMARK    6  A    between atoms: C_14  and  O_15
REMARK    7  A    between atoms: C_17  and  C_18
REMARK    8  A    between atoms: C_17  and  C_19
REMARK    9  A    between atoms: C_23  and  C_24
REMARK                            x       y       z     vdW  Elec       q    Type
REMARK                         _______ _______ _______ _____ _____    ______ ____
ROOT
ATOM      1  C   UNL     1       2.377   8.142  17.846  0.00  0.00    +0.000 A 
ATOM      2  C   UNL     1       1.754   9.382  17.941  0.00  0.00    +0.000 A 
ATOM      3  C   UNL     1       1.152   9.823  19.146  0.00  0.00    +0.000 A 
ATOM      4  C   UNL     1       1.073   8.968  20.227  0.00  0.00    +0.000 A 
ATOM      5  C   UNL     1       1.573   7.656  20.092  0.00  0.00    +0.000 A 
ATOM      6  C   UNL     1       2.263   7.243  18.921  0.00  0.00    +0.000 A 
ATOM      7  C   UNL     1       0.498   9.488  21.497  0.00  0.00    +0.000 C 
ATOM      8  O   UNL     1       0.220   8.738  22.426  0.00  0.00    +0.000 OA
ATOM      9  C   UNL     1       0.223  10.977  21.632  0.00  0.00    +0.000 C 
ATOM     10  C   UNL     1       0.315  11.834  20.591  0.00  0.00    +0.000 C 
ATOM     11  C   UNL     1      -0.279  13.298  20.449  0.00  0.00    +0.000 C 
ATOM     12  C   UNL     1      -0.053  14.285  21.598  0.00  0.00    +0.000 C 
ATOM     13  C   UNL     1       0.072  14.180  19.174  0.00  0.00    +0.000 C 
ATOM     14  C   UNL     1      -1.758  12.939  20.268  0.00  0.00    +0.000 C 
ATOM     15  C   UNL     1      -1.913  12.137  18.963  0.00  0.00    +0.000 C 
ATOM     16  C   UNL     1      -0.658  11.343  18.415  0.00  0.00    +0.000 C 
ATOM     17  C   UNL     1       0.695  11.269  19.241  0.00  0.00    +0.000 C 
ATOM     18  C   UNL     1       2.009  12.032  18.887  0.00  0.00    +0.000 C 
ENDROOT
BRANCH   6  19
ATOM     19  C   UNL     1       2.912   5.861  18.817  0.00  0.00    +0.000 C 
ATOM     20  C   UNL     1       2.055   4.880  18.016  0.00  0.00    +0.000 C 
ATOM     21  C   UNL     1       3.278   5.303  20.192  0.00  0.00    +0.000 C 
ENDBRANCH   6  19
BRANCH   1  23
ATOM     22  C   UNL     1       4.527   7.481  16.995  0.00  0.00    +0.000 C 
ATOM     23  O   UNL     1       3.148   7.758  16.780  0.00  0.00    +0.000 OA
ENDBRANCH   1  23
BRANCH   9  24
ATOM     24  O   UNL     1      -0.317  11.360  22.848  0.00  0.00    +0.000 OA
ATOM     25  H   UNL     1       0.135  10.785  23.508  0.00  0.00    +0.000 HD
ENDBRANCH   9  24
TORSDOF 3
ENDMDL
MODEL 7
REMARK VINA RESULT:      -5.8      7.651     10.748
REMARK  Name = 
REMARK  9 active torsions:
REMARK  status: ('A' for Active; 'I' for Inactive)
REMARK    1  A    between atoms: C_1  and  O_2
REMARK    2  A    between atoms: O_2  and  C_3
REMARK    3  A    between atoms: C_8  and  C_9
REMARK    4  A    between atoms: C_9  and  C_10
REMARK    5  A    between atoms: C_9  and  C_11
REMARK    6  A    between atoms: C_14  and  O_15
REMARK    7  A    between atoms: C_17  and  C_18
REMARK    8  A    between atoms: C_17  and  C_19
REMARK    9  A    between atoms: C_23  and  C_24
REMARK                            x       y       z     vdW  Elec       q    Type
REMARK                         _______ _______ _______ _____ _____    ______ ____
ROOT
ATOM      1  C   UNL     1       5.349  17.059  19.627  0.00  0.00    +0.000 A 
ATOM      2  C   UNL     1       6.656  16.748  19.989  0.00  0.00    +0.000 A 
ATOM      3  C   UNL     1       7.382  15.715  19.346  0.00  0.00    +0.000 A 
ATOM      4  C   UNL     1       6.754  14.912  18.414  0.00  0.00    +0.000 A 
ATOM      5  C   UNL     1       5.387  15.127  18.145  0.00  0.00    +0.000 A 
ATOM      6  C   UNL     1       4.682  16.221  18.715  0.00  0.00    +0.000 A 
ATOM      7  C   UNL     1       7.566  13.884  17.708  0.00  0.00    +0.000 C 
ATOM      8  O   UNL     1       7.039  13.017  17.020  0.00  0.00    +0.000 OA
ATOM      9  C   UNL     1       9.078  13.893  17.869  0.00  0.00    +0.000 C 
ATOM     10  C   UNL     1       9.713  14.685  18.761  0.00  0.00    +0.000 C 
ATOM     11  C   UNL     1      11.191  14.567  19.324  0.00  0.00    +0.000 C 
ATOM     12  C   UNL     1      12.331  14.363  18.325  0.00  0.00    +0.000 C 
ATOM     13  C   UNL     1      11.773  15.702  20.273  0.00  0.00    +0.000 C 
ATOM     14  C   UNL     1      10.998  13.361  20.248  0.00  0.00    +0.000 C 
ATOM     15  C   UNL     1      10.000  13.743  21.356  0.00  0.00    +0.000 C 
ATOM     16  C   UNL     1       8.965  14.905  21.066  0.00  0.00    +0.000 C 
ATOM     17  C   UNL     1       8.868  15.584  19.636  0.00  0.00    +0.000 C 
ATOM     18  C   UNL     1       9.378  17.015  19.282  0.00  0.00    +0.000 C 
ENDROOT
BRANCH   6  19
ATOM     19  C   UNL     1       3.232  16.529  18.334  0.00  0.00    +0.000 C 
ATOM     20  C   UNL     1       2.266  15.448  18.819  0.00  0.00    +0.000 C 
ATOM     21  C   UNL     1       3.085  16.790  16.835  0.00  0.00    +0.000 C 
ENDBRANCH   6  19
BRANCH   1  23
ATOM     22  C   UNL     1       4.335  18.264  21.444  0.00  0.00    +0.000 C 
ATOM     23  O   UNL     1       4.682  18.172  20.067  0.00  0.00    +0.000 OA
ENDBRANCH   1  23
BRANCH   9  24
ATOM     24  O   UNL     1       9.741  12.893  17.178  0.00  0.00    +0.000 OA
ATOM     25  H   UNL     1       9.351  12.057  17.522  0.00  0.00    +0.000 HD
ENDBRANCH   9  24
TORSDOF 3
ENDMDL
MODEL 8
REMARK VINA RESULT:      -5.7      3.689      8.131
REMARK  Name = 
REMARK  9 active torsions:
REMARK  status: ('A' for Active; 'I' for Inactive)
REMARK    1  A    between atoms: C_1  and  O_2
REMARK    2  A    between atoms: O_2  and  C_3
REMARK    3  A    between atoms: C_8  and  C_9
REMARK    4  A    between atoms: C_9  and  C_10
REMARK    5  A    between atoms: C_9  and  C_11
REMARK    6  A    between atoms: C_14  and  O_15
REMARK    7  A    between atoms: C_17  and  C_18
REMARK    8  A    between atoms: C_17  and  C_19
REMARK    9  A    between atoms: C_23  and  C_24
REMARK                            x       y       z     vdW  Elec       q    Type
REMARK                         _______ _______ _______ _____ _____    ______ ____
ROOT
ATOM      1  C   UNL     1      -4.795  13.926  20.737  0.00  0.00    +0.000 A 
ATOM      2  C   UNL     1      -3.448  13.614  20.895  0.00  0.00    +0.000 A 
ATOM      3  C   UNL     1      -2.802  12.660  20.070  0.00  0.00    +0.000 A 
ATOM      4  C   UNL     1      -3.539  11.930  19.158  0.00  0.00    +0.000 A 
ATOM      5  C   UNL     1      -4.932  12.136  19.092  0.00  0.00    +0.000 A 
ATOM      6  C   UNL     1      -5.567  13.158  19.848  0.00  0.00    +0.000 A 
ATOM      7  C   UNL     1      -2.816  10.989  18.260  0.00  0.00    +0.000 C 
ATOM      8  O   UNL     1      -3.420  10.176  17.570  0.00  0.00    +0.000 OA
ATOM      9  C   UNL     1      -1.297  11.019  18.222  0.00  0.00    +0.000 C 
ATOM     10  C   UNL     1      -0.558  11.742  19.092  0.00  0.00    +0.000 C 
ATOM     11  C   UNL     1       0.983  11.609  19.444  0.00  0.00    +0.000 C 
ATOM     12  C   UNL     1       1.983  11.522  18.289  0.00  0.00    +0.000 C 
ATOM     13  C   UNL     1       1.673  12.667  20.409  0.00  0.00    +0.000 C 
ATOM     14  C   UNL     1       0.928  10.320  20.270  0.00  0.00    +0.000 C 
ATOM     15  C   UNL     1       0.081  10.578  21.529  0.00  0.00    +0.000 C 
ATOM     16  C   UNL     1      -0.996  11.736  21.486  0.00  0.00    +0.000 C 
ATOM     17  C   UNL     1      -1.290  12.538  20.149  0.00  0.00    +0.000 C 
ATOM     18  C   UNL     1      -0.847  14.008  19.865  0.00  0.00    +0.000 C 
ENDROOT
BRANCH   6  19
ATOM     19  C   UNL     1      -7.058  13.465  19.690  0.00  0.00    +0.000 C 
ATOM     20  C   UNL     1      -7.917  12.684  20.685  0.00  0.00    +0.000 C 
ATOM     21  C   UNL     1      -7.529  13.258  18.250  0.00  0.00    +0.000 C 
ENDBRANCH   6  19
BRANCH   1  23
ATOM     22  C   UNL     1      -4.993  15.338  22.675  0.00  0.00    +0.000 C 
ATOM     23  O   UNL     1      -5.410  14.979  21.362  0.00  0.00    +0.000 OA
ENDBRANCH   1  23
BRANCH   9  24
ATOM     24  O   UNL     1      -0.720  10.101  17.360  0.00  0.00    +0.000 OA
ATOM     25  H   UNL     1       0.182  10.459  17.190  0.00  0.00    +0.000 HD
ENDBRANCH   9  24
TORSDOF 3
ENDMDL
MODEL 9
REMARK VINA RESULT:      -5.7      3.981      8.211
REMARK  Name = 
REMARK  9 active torsions:
REMARK  status: ('A' for Active; 'I' for Inactive)
REMARK    1  A    between atoms: C_1  and  O_2
REMARK    2  A    between atoms: O_2  and  C_3
REMARK    3  A    between atoms: C_8  and  C_9
REMARK    4  A    between atoms: C_9  and  C_10
REMARK    5  A    between atoms: C_9  and  C_11
REMARK    6  A    between atoms: C_14  and  O_15
REMARK    7  A    between atoms: C_17  and  C_18
REMARK    8  A    between atoms: C_17  and  C_19
REMARK    9  A    between atoms: C_23  and  C_24
REMARK                            x       y       z     vdW  Elec       q    Type
REMARK                         _______ _______ _______ _____ _____    ______ ____
ROOT
ATOM      1  C   UNL     1      -3.518  13.361  23.944  0.00  0.00    +0.000 A 
ATOM      2  C   UNL     1      -2.293  13.062  23.357  0.00  0.00    +0.000 A 
ATOM      3  C   UNL     1      -2.179  12.779  21.974  0.00  0.00    +0.000 A 
ATOM      4  C   UNL     1      -3.316  12.680  21.197  0.00  0.00    +0.000 A 
ATOM      5  C   UNL     1      -4.574  12.837  21.813  0.00  0.00    +0.000 A 
ATOM      6  C   UNL     1      -4.689  13.216  23.178  0.00  0.00    +0.000 A 
ATOM      7  C   UNL     1      -3.153  12.451  19.736  0.00  0.00    +0.000 C 
ATOM      8  O   UNL     1      -4.109  12.161  19.025  0.00  0.00    +0.000 OA
ATOM      9  C   UNL     1      -1.768  12.550  19.118  0.00  0.00    +0.000 C 
ATOM     10  C   UNL     1      -0.644  12.668  19.859  0.00  0.00    +0.000 C 
ATOM     11  C   UNL     1       0.862  12.412  19.436  0.00  0.00    +0.000 C 
ATOM     12  C   UNL     1       1.364  13.039  18.133  0.00  0.00    +0.000 C 
ATOM     13  C   UNL     1       2.042  12.747  20.447  0.00  0.00    +0.000 C 
ATOM     14  C   UNL     1       0.836  10.881  19.376  0.00  0.00    +0.000 C 
ATOM     15  C   UNL     1       0.545  10.339  20.787  0.00  0.00    +0.000 C 
ATOM     16  C   UNL     1      -0.223  11.273  21.808  0.00  0.00    +0.000 C 
ATOM     17  C   UNL     1      -0.790  12.687  21.365  0.00  0.00    +0.000 C 
ATOM     18  C   UNL     1      -0.184  14.067  21.769  0.00  0.00    +0.000 C 
ENDROOT
BRANCH   6  19
ATOM     19  C   UNL     1      -6.048  13.506  23.820  0.00  0.00    +0.000 C 
ATOM     20  C   UNL     1      -7.050  12.376  23.583  0.00  0.00    +0.000 C 
ATOM     21  C   UNL     1      -6.605  14.860  23.377  0.00  0.00    +0.000 C 
ENDBRANCH   6  19
BRANCH   1  23
ATOM     22  C   UNL     1      -2.881  14.970  25.615  0.00  0.00    +0.000 C 
ATOM     23  O   UNL     1      -3.654  13.841  25.220  0.00  0.00    +0.000 OA
ENDBRANCH   1  23
BRANCH   9  24
ATOM     24  O   UNL     1      -1.722  12.315  17.754  0.00  0.00    +0.000 OA
ATOM     25  H   UNL     1      -2.172  13.095  17.356  0.00  0.00    +0.000 HD
ENDBRANCH   9  24
TORSDOF 3
ENDMDL
