MODEL 1
REMARK VINA RESULT:      -8.3      0.000      0.000
REMARK  Name = 
REMARK  5 active torsions:
REMARK  status: ('A' for Active; 'I' for Inactive)
REMARK    1  A    between atoms: C_1  and  C_2
REMARK    2  A    between atoms: C_5  and  C_6
REMARK    3  A    between atoms: C_13  and  C_14
REMARK    4  A    between atoms: C_17  and  C_18
REMARK    5  A    between atoms: N_24  and  C_25
REMARK                            x       y       z     vdW  Elec       q    Type
REMARK                         _______ _______ _______ _____ _____    ______ ____
ROOT
ATOM      1  C   UNL     1      -4.414  12.978  20.694  0.00  0.00    +0.000 A 
ATOM      2  C   UNL     1      -4.348  14.356  20.700  0.00  0.00    +0.000 A 
ATOM      3  S   UNL     1      -2.845  14.865  21.359  0.00  0.00    +0.000 S 
ATOM      4  C   UNL     1      -2.384  13.220  21.545  0.00  0.00    +0.000 A 
ATOM      5  N   UNL     1      -3.290  12.348  21.170  0.00  0.00    +0.000 NA
ENDROOT
BRANCH   4   6
ATOM      6  C   UNL     1      -1.006  12.833  22.017  0.00  0.00    +0.000 C 
ATOM      7  C   UNL     1       0.036  13.259  20.976  0.00  0.00    +0.000 C 
ATOM      8  C   UNL     1      -0.030  12.386  19.728  0.00  0.00    +0.000 C 
ATOM      9  N   UNL     1       0.131  10.975  20.076  0.00  0.00    +0.000 N 
ATOM     10  C   UNL     1       1.071  10.253  19.358  0.00  0.00    +0.000 C 
ATOM     11  O   UNL     1       1.808  10.826  18.551  0.00  0.00    +0.000 OA
ATOM     12  N   UNL     1       1.132   8.903  19.618  0.00  0.00    +0.000 N 
ATOM     13  C   UNL     1      -0.845  10.459  21.035  0.00  0.00    +0.000 C 
ATOM     14  C   UNL     1      -0.889  11.323  22.300  0.00  0.00    +0.000 C 
ATOM     15  H   UNL     1       0.296   8.476  19.978  0.00  0.00    +0.000 HD
BRANCH  12  16
ATOM     16  C   UNL     1       2.092   8.019  19.074  0.00  0.00    +0.000 A 
ATOM     17  C   UNL     1       2.738   8.247  17.851  0.00  0.00    +0.000 A 
ATOM     18  C   UNL     1       3.594   7.297  17.304  0.00  0.00    +0.000 A 
ATOM     19  C   UNL     1       3.838   6.125  17.998  0.00  0.00    +0.000 A 
ATOM     20  F   UNL     1       4.642   5.196  17.464  0.00  0.00    +0.000 F 
ATOM     21  C   UNL     1       3.261   5.902  19.245  0.00  0.00    +0.000 A 
ATOM     22  C   UNL     1       2.394   6.852  19.788  0.00  0.00    +0.000 A 
ENDBRANCH  12  16
ENDBRANCH   4   6
BRANCH   1  28
ATOM     23  C   UNL     1      -7.359  12.436  22.087  0.00  0.00    +0.000 C 
ATOM     24  C   UNL     1      -6.732  11.949  20.846  0.00  0.00    +0.000 A 
ATOM     25  O   UNL     1      -7.486  11.130  20.072  0.00  0.00    +0.000 OA
ATOM     26  N   UNL     1      -6.763  10.737  18.969  0.00  0.00    +0.000 NA
ATOM     27  C   UNL     1      -5.556  11.325  19.057  0.00  0.00    +0.000 A 
ATOM     28  C   UNL     1      -5.512  12.134  20.241  0.00  0.00    +0.000 A 
BRANCH  27  29
ATOM     29  C   UNL     1      -4.512  11.031  18.065  0.00  0.00    +0.000 A 
ATOM     30  C   UNL     1      -3.444  10.173  18.376  0.00  0.00    +0.000 A 
ATOM     31  C   UNL     1      -2.435   9.895  17.447  0.00  0.00    +0.000 A 
ATOM     32  C   UNL     1      -2.502  10.434  16.167  0.00  0.00    +0.000 A 
ATOM     33  C   UNL     1      -3.570  11.259  15.825  0.00  0.00    +0.000 A 
ATOM     34  C   UNL     1      -4.557  11.560  16.769  0.00  0.00    +0.000 A 
ATOM     35  F   UNL     1      -5.543  12.386  16.386  0.00  0.00    +0.000 F 
ENDBRANCH  27  29
ENDBRANCH   1  28
TORSDOF 4
ENDMDL
MODEL 2
REMARK VINA RESULT:      -8.3      1.292      1.602
REMARK  Name = 
REMARK  5 active torsions:
REMARK  status: ('A' for Active; 'I' for Inactive)
REMARK    1  A    between atoms: C_1  and  C_2
REMARK    2  A    between atoms: C_5  and  C_6
REMARK    3  A    between atoms: C_13  and  C_14
REMARK    4  A    between atoms: C_17  and  C_18
REMARK    5  A    between atoms: N_24  and  C_25
REMARK                            x       y       z     vdW  Elec       q    Type
REMARK                         _______ _______ _______ _____ _____    ______ ____
ROOT
ATOM      1  C   UNL     1      -2.912  13.062  20.335  0.00  0.00    +0.000 A 
ATOM      2  C   UNL     1      -2.587  14.382  20.107  0.00  0.00    +0.000 A 
ATOM      3  S   UNL     1      -0.925  14.644  20.458  0.00  0.00    +0.000 S 
ATOM      4  C   UNL     1      -0.758  12.977  20.843  0.00  0.00    +0.000 A 
ATOM      5  N   UNL     1      -1.863  12.276  20.745  0.00  0.00    +0.000 NA
ENDROOT
BRANCH   4   6
ATOM      6  C   UNL     1       0.582  12.373  21.175  0.00  0.00    +0.000 C 
ATOM      7  C   UNL     1       1.544  12.570  19.998  0.00  0.00    +0.000 C 
ATOM      8  C   UNL     1       1.177  11.676  18.819  0.00  0.00    +0.000 C 
ATOM      9  N   UNL     1       1.138  10.273  19.227  0.00  0.00    +0.000 N 
ATOM     10  C   UNL     1       1.846   9.370  18.449  0.00  0.00    +0.000 C 
ATOM     11  O   UNL     1       2.563   9.775  17.530  0.00  0.00    +0.000 OA
ATOM     12  N   UNL     1       1.709   8.042  18.778  0.00  0.00    +0.000 N 
ATOM     13  C   UNL     1       0.215   9.973  20.321  0.00  0.00    +0.000 C 
ATOM     14  C   UNL     1       0.475  10.878  21.529  0.00  0.00    +0.000 C 
ATOM     15  H   UNL     1       0.864   7.781  19.256  0.00  0.00    +0.000 HD
BRANCH  12  16
ATOM     16  C   UNL     1       2.430   6.984  18.180  0.00  0.00    +0.000 A 
ATOM     17  C   UNL     1       1.945   5.670  18.106  0.00  0.00    +0.000 A 
ATOM     18  C   UNL     1       2.735   4.641  17.606  0.00  0.00    +0.000 A 
ATOM     19  C   UNL     1       4.006   4.927  17.139  0.00  0.00    +0.000 A 
ATOM     20  F   UNL     1       4.780   3.935  16.680  0.00  0.00    +0.000 F 
ATOM     21  C   UNL     1       4.488   6.232  17.140  0.00  0.00    +0.000 A 
ATOM     22  C   UNL     1       3.697   7.263  17.653  0.00  0.00    +0.000 A 
ENDBRANCH  12  16
ENDBRANCH   4   6
BRANCH   1  28
ATOM     23  C   UNL     1      -5.508  13.063  22.376  0.00  0.00    +0.000 C 
ATOM     24  C   UNL     1      -5.273  12.456  21.053  0.00  0.00    +0.000 A 
ATOM     25  O   UNL     1      -6.310  11.773  20.511  0.00  0.00    +0.000 OA
ATOM     26  N   UNL     1      -5.935  11.244  19.297  0.00  0.00    +0.000 NA
ATOM     27  C   UNL     1      -4.659  11.613  19.083  0.00  0.00    +0.000 A 
ATOM     28  C   UNL     1      -4.210  12.417  20.182  0.00  0.00    +0.000 A 
BRANCH  27  29
ATOM     29  C   UNL     1      -3.934  11.128  17.900  0.00  0.00    +0.000 A 
ATOM     30  C   UNL     1      -2.861  10.229  18.030  0.00  0.00    +0.000 A 
ATOM     31  C   UNL     1      -2.152   9.770  16.915  0.00  0.00    +0.000 A 
ATOM     32  C   UNL     1      -2.536  10.163  15.638  0.00  0.00    +0.000 A 
ATOM     33  C   UNL     1      -3.618  11.025  15.482  0.00  0.00    +0.000 A 
ATOM     34  C   UNL     1      -4.301  11.508  16.603  0.00  0.00    +0.000 A 
ATOM     35  F   UNL     1      -5.315  12.359  16.386  0.00  0.00    +0.000 F 
ENDBRANCH  27  29
ENDBRANCH   1  28
TORSDOF 4
ENDMDL
MODEL 3
REMARK VINA RESULT:      -8.3      7.195     11.406
REMARK  Name = 
REMARK  5 active torsions:
REMARK  status: ('A' for Active; 'I' for Inactive)
REMARK    1  A    between atoms: C_1  and  C_2
REMARK    2  A    between atoms: C_5  and  C_6
REMARK    3  A    between atoms: C_13  and  C_14
REMARK    4  A    between atoms: C_17  and  C_18
REMARK    5  A    between atoms: N_24  and  C_25
REMARK                            x       y       z     vdW  Elec       q    Type
REMARK                         _______ _______ _______ _____ _____    ______ ____
ROOT
ATOM      1  C   UNL     1       8.399  15.826  19.869  0.00  0.00    +0.000 A 
ATOM      2  C   UNL     1       8.608  15.534  21.200  0.00  0.00    +0.000 A 
ATOM      3  S   UNL     1       7.179  15.857  22.099  0.00  0.00    +0.000 S 
ATOM      4  C   UNL     1       6.385  16.316  20.646  0.00  0.00    +0.000 A 
ATOM      5  N   UNL     1       7.132  16.262  19.569  0.00  0.00    +0.000 NA
ENDROOT
BRANCH   4   6
ATOM      6  C   UNL     1       4.918  16.663  20.622  0.00  0.00    +0.000 C 
ATOM      7  C   UNL     1       4.189  15.899  21.734  0.00  0.00    +0.000 C 
ATOM      8  C   UNL     1       4.077  14.414  21.412  0.00  0.00    +0.000 C 
ATOM      9  N   UNL     1       3.414  14.212  20.124  0.00  0.00    +0.000 N 
ATOM     10  C   UNL     1       2.360  13.314  20.091  0.00  0.00    +0.000 C 
ATOM     11  O   UNL     1       1.943  12.810  21.137  0.00  0.00    +0.000 OA
ATOM     12  N   UNL     1       1.821  13.051  18.853  0.00  0.00    +0.000 N 
ATOM     13  C   UNL     1       4.060  14.869  18.988  0.00  0.00    +0.000 C 
ATOM     14  C   UNL     1       4.271  16.363  19.257  0.00  0.00    +0.000 C 
ATOM     15  H   UNL     1       2.424  13.190  18.061  0.00  0.00    +0.000 HD
BRANCH  12  16
ATOM     16  C   UNL     1       0.677  12.253  18.624  0.00  0.00    +0.000 A 
ATOM     17  C   UNL     1      -0.609  12.787  18.456  0.00  0.00    +0.000 A 
ATOM     18  C   UNL     1      -1.720  11.958  18.342  0.00  0.00    +0.000 A 
ATOM     19  C   UNL     1      -1.547  10.586  18.357  0.00  0.00    +0.000 A 
ATOM     20  F   UNL     1      -2.616   9.783  18.273  0.00  0.00    +0.000 F 
ATOM     21  C   UNL     1      -0.275  10.029  18.458  0.00  0.00    +0.000 A 
ATOM     22  C   UNL     1       0.838  10.863  18.583  0.00  0.00    +0.000 A 
ENDBRANCH  12  16
ENDBRANCH   4   6
BRANCH   1  28
ATOM     23  C   UNL     1       9.579  18.178  17.872  0.00  0.00    +0.000 C 
ATOM     24  C   UNL     1       9.824  16.727  17.968  0.00  0.00    +0.000 A 
ATOM     25  O   UNL     1      10.728  16.211  17.099  0.00  0.00    +0.000 OA
ATOM     26  N   UNL     1      10.831  14.852  17.288  0.00  0.00    +0.000 NA
ATOM     27  C   UNL     1       9.991  14.527  18.287  0.00  0.00    +0.000 A 
ATOM     28  C   UNL     1       9.347  15.716  18.766  0.00  0.00    +0.000 A 
BRANCH  27  29
ATOM     29  C   UNL     1       9.803  13.122  18.673  0.00  0.00    +0.000 A 
ATOM     30  C   UNL     1       9.088  12.237  17.847  0.00  0.00    +0.000 A 
ATOM     31  C   UNL     1       8.889  10.900  18.207  0.00  0.00    +0.000 A 
ATOM     32  C   UNL     1       9.446  10.407  19.382  0.00  0.00    +0.000 A 
ATOM     33  C   UNL     1      10.188  11.255  20.199  0.00  0.00    +0.000 A 
ATOM     34  C   UNL     1      10.354  12.600  19.850  0.00  0.00    +0.000 A 
ATOM     35  F   UNL     1      11.054  13.372  20.695  0.00  0.00    +0.000 F 
ENDBRANCH  27  29
ENDBRANCH   1  28
TORSDOF 4
ENDMDL
MODEL 4
REMARK VINA RESULT:      -8.1      3.188      9.789
REMARK  Name = 
REMARK  5 active torsions:
REMARK  status: ('A' for Active; 'I' for Inactive)
REMARK    1  A    between atoms: C_1  and  C_2
REMARK    2  A    between atoms: C_5  and  C_6
REMARK    3  A    between atoms: C_13  and  C_14
REMARK    4  A    between atoms: C_17  and  C_18
REMARK    5  A    between atoms: N_24  and  C_25
REMARK                            x       y       z     vdW  Elec       q    Type
REMARK                         _______ _______ _______ _____ _____    ______ ____
ROOT
ATOM      1  C   UNL     1       2.463   6.125  19.182  0.00  0.00    +0.000 A 
ATOM      2  C   UNL     1       2.035   6.282  20.483  0.00  0.00    +0.000 A 
ATOM      3  S   UNL     1       1.598   7.922  20.759  0.00  0.00    +0.000 S 
ATOM      4  C   UNL     1       1.970   8.282  19.120  0.00  0.00    +0.000 A 
ATOM      5  N   UNL     1       2.414   7.266  18.420  0.00  0.00    +0.000 NA
ENDROOT
BRANCH   4   6
ATOM      6  C   UNL     1       1.711   9.646  18.533  0.00  0.00    +0.000 C 
ATOM      7  C   UNL     1       1.325  10.625  19.648  0.00  0.00    +0.000 C 
ATOM      8  C   UNL     1      -0.073  10.339  20.184  0.00  0.00    +0.000 C 
ATOM      9  N   UNL     1      -1.058  10.370  19.103  0.00  0.00    +0.000 N 
ATOM     10  C   UNL     1      -2.187  11.147  19.302  0.00  0.00    +0.000 C 
ATOM     11  O   UNL     1      -2.278  11.864  20.303  0.00  0.00    +0.000 OA
ATOM     12  N   UNL     1      -3.155  11.078  18.326  0.00  0.00    +0.000 N 
ATOM     13  C   UNL     1      -0.800   9.438  18.006  0.00  0.00    +0.000 C 
ATOM     14  C   UNL     1       0.617   9.615  17.449  0.00  0.00    +0.000 C 
ATOM     15  H   UNL     1      -3.180  10.237  17.776  0.00  0.00    +0.000 HD
BRANCH  12  16
ATOM     16  C   UNL     1      -4.323  11.873  18.291  0.00  0.00    +0.000 A 
ATOM     17  C   UNL     1      -4.817  12.561  19.408  0.00  0.00    +0.000 A 
ATOM     18  C   UNL     1      -6.029  13.242  19.353  0.00  0.00    +0.000 A 
ATOM     19  C   UNL     1      -6.737  13.271  18.165  0.00  0.00    +0.000 A 
ATOM     20  F   UNL     1      -7.916  13.904  18.114  0.00  0.00    +0.000 F 
ATOM     21  C   UNL     1      -6.238  12.652  17.023  0.00  0.00    +0.000 A 
ATOM     22  C   UNL     1      -5.026  11.960  17.082  0.00  0.00    +0.000 A 
ENDBRANCH  12  16
ENDBRANCH   4   6
BRANCH   1  28
ATOM     23  C   UNL     1       0.868   3.292  18.601  0.00  0.00    +0.000 C 
ATOM     24  C   UNL     1       2.234   3.753  18.299  0.00  0.00    +0.000 A 
ATOM     25  O   UNL     1       3.027   2.885  17.624  0.00  0.00    +0.000 OA
ATOM     26  N   UNL     1       4.273   3.440  17.439  0.00  0.00    +0.000 NA
ATOM     27  C   UNL     1       4.246   4.665  17.995  0.00  0.00    +0.000 A 
ATOM     28  C   UNL     1       2.940   4.909  18.535  0.00  0.00    +0.000 A 
BRANCH  27  29
ATOM     29  C   UNL     1       5.464   5.487  18.042  0.00  0.00    +0.000 A 
ATOM     30  C   UNL     1       6.469   5.232  18.990  0.00  0.00    +0.000 A 
ATOM     31  C   UNL     1       7.628   6.014  19.055  0.00  0.00    +0.000 A 
ATOM     32  C   UNL     1       7.826   7.040  18.137  0.00  0.00    +0.000 A 
ATOM     33  C   UNL     1       6.860   7.288  17.166  0.00  0.00    +0.000 A 
ATOM     34  C   UNL     1       5.688   6.524  17.128  0.00  0.00    +0.000 A 
ATOM     35  F   UNL     1       4.783   6.833  16.187  0.00  0.00    +0.000 F 
ENDBRANCH  27  29
ENDBRANCH   1  28
TORSDOF 4
ENDMDL
MODEL 5
REMARK VINA RESULT:      -8.0      3.869      6.056
REMARK  Name = 
REMARK  5 active torsions:
REMARK  status: ('A' for Active; 'I' for Inactive)
REMARK    1  A    between atoms: C_1  and  C_2
REMARK    2  A    between atoms: C_5  and  C_6
REMARK    3  A    between atoms: C_13  and  C_14
REMARK    4  A    between atoms: C_17  and  C_18
REMARK    5  A    between atoms: N_24  and  C_25
REMARK                            x       y       z     vdW  Elec       q    Type
REMARK                         _______ _______ _______ _____ _____    ______ ____
ROOT
ATOM      1  C   UNL     1       1.312  13.639  20.439  0.00  0.00    +0.000 A 
ATOM      2  C   UNL     1       2.158  13.787  19.360  0.00  0.00    +0.000 A 
ATOM      3  S   UNL     1       1.964  12.462  18.282  0.00  0.00    +0.000 S 
ATOM      4  C   UNL     1       0.744  11.822  19.309  0.00  0.00    +0.000 A 
ATOM      5  N   UNL     1       0.512  12.525  20.393  0.00  0.00    +0.000 NA
ENDROOT
BRANCH   4   6
ATOM      6  C   UNL     1      -0.047  10.597  18.929  0.00  0.00    +0.000 C 
ATOM      7  C   UNL     1      -0.238   9.703  20.159  0.00  0.00    +0.000 C 
ATOM      8  C   UNL     1       1.063   9.017  20.560  0.00  0.00    +0.000 C 
ATOM      9  N   UNL     1       1.610   8.250  19.442  0.00  0.00    +0.000 N 
ATOM     10  C   UNL     1       1.964   6.935  19.693  0.00  0.00    +0.000 C 
ATOM     11  O   UNL     1       1.710   6.423  20.787  0.00  0.00    +0.000 OA
ATOM     12  N   UNL     1       2.580   6.261  18.664  0.00  0.00    +0.000 N 
ATOM     13  C   UNL     1       1.868   9.026  18.229  0.00  0.00    +0.000 C 
ATOM     14  C   UNL     1       0.621   9.802  17.791  0.00  0.00    +0.000 C 
ATOM     15  H   UNL     1       3.068   6.822  17.988  0.00  0.00    +0.000 HD
BRANCH  12  16
ATOM     16  C   UNL     1       2.916   4.889  18.685  0.00  0.00    +0.000 A 
ATOM     17  C   UNL     1       4.049   4.387  19.341  0.00  0.00    +0.000 A 
ATOM     18  C   UNL     1       4.399   3.044  19.242  0.00  0.00    +0.000 A 
ATOM     19  C   UNL     1       3.593   2.185  18.517  0.00  0.00    +0.000 A 
ATOM     20  F   UNL     1       3.938   0.896  18.399  0.00  0.00    +0.000 F 
ATOM     21  C   UNL     1       2.427   2.643  17.910  0.00  0.00    +0.000 A 
ATOM     22  C   UNL     1       2.084   3.994  18.001  0.00  0.00    +0.000 A 
ENDBRANCH  12  16
ENDBRANCH   4   6
BRANCH   1  28
ATOM     23  C   UNL     1       3.612  15.354  22.076  0.00  0.00    +0.000 C 
ATOM     24  C   UNL     1       2.152  15.229  22.235  0.00  0.00    +0.000 A 
ATOM     25  O   UNL     1       1.589  15.968  23.222  0.00  0.00    +0.000 OA
ATOM     26  N   UNL     1       0.234  15.728  23.267  0.00  0.00    +0.000 NA
ATOM     27  C   UNL     1      -0.043  14.842  22.294  0.00  0.00    +0.000 A 
ATOM     28  C   UNL     1       1.166  14.520  21.592  0.00  0.00    +0.000 A 
BRANCH  27  29
ATOM     29  C   UNL     1      -1.405  14.311  22.137  0.00  0.00    +0.000 A 
ATOM     30  C   UNL     1      -2.378  15.026  21.418  0.00  0.00    +0.000 A 
ATOM     31  C   UNL     1      -3.682  14.541  21.272  0.00  0.00    +0.000 A 
ATOM     32  C   UNL     1      -4.026  13.302  21.802  0.00  0.00    +0.000 A 
ATOM     33  C   UNL     1      -3.068  12.560  22.487  0.00  0.00    +0.000 A 
ATOM     34  C   UNL     1      -1.776  13.066  22.660  0.00  0.00    +0.000 A 
ATOM     35  F   UNL     1      -0.908  12.316  23.356  0.00  0.00    +0.000 F 
ENDBRANCH  27  29
ENDBRANCH   1  28
TORSDOF 4
ENDMDL
MODEL 6
REMARK VINA RESULT:      -8.0      3.446      9.823
REMARK  Name = 
REMARK  5 active torsions:
REMARK  status: ('A' for Active; 'I' for Inactive)
REMARK    1  A    between atoms: C_1  and  C_2
REMARK    2  A    between atoms: C_5  and  C_6
REMARK    3  A    between atoms: C_13  and  C_14
REMARK    4  A    between atoms: C_17  and  C_18
REMARK    5  A    between atoms: N_24  and  C_25
REMARK                            x       y       z     vdW  Elec       q    Type
REMARK                         _______ _______ _______ _____ _____    ______ ____
ROOT
ATOM      1  C   UNL     1       2.544   6.380  18.787  0.00  0.00    +0.000 A 
ATOM      2  C   UNL     1       2.317   6.584  20.131  0.00  0.00    +0.000 A 
ATOM      3  S   UNL     1       1.737   8.181  20.390  0.00  0.00    +0.000 S 
ATOM      4  C   UNL     1       1.790   8.460  18.695  0.00  0.00    +0.000 A 
ATOM      5  N   UNL     1       2.233   7.450  17.984  0.00  0.00    +0.000 NA
ENDROOT
BRANCH   4   6
ATOM      6  C   UNL     1       1.276   9.740  18.087  0.00  0.00    +0.000 C 
ATOM      7  C   UNL     1       1.860  10.940  18.841  0.00  0.00    +0.000 C 
ATOM      8  C   UNL     1       1.244  11.084  20.228  0.00  0.00    +0.000 C 
ATOM      9  N   UNL     1      -0.212  11.186  20.139  0.00  0.00    +0.000 N 
ATOM     10  C   UNL     1      -0.813  12.232  20.820  0.00  0.00    +0.000 C 
ATOM     11  O   UNL     1      -0.120  13.093  21.369  0.00  0.00    +0.000 OA
ATOM     12  N   UNL     1      -2.188  12.250  20.820  0.00  0.00    +0.000 N 
ATOM     13  C   UNL     1      -0.870  10.063  19.471  0.00  0.00    +0.000 C 
ATOM     14  C   UNL     1      -0.263   9.808  18.088  0.00  0.00    +0.000 C 
ATOM     15  H   UNL     1      -2.650  11.366  20.692  0.00  0.00    +0.000 HD
BRANCH  12  16
ATOM     16  C   UNL     1      -2.982  13.287  21.360  0.00  0.00    +0.000 A 
ATOM     17  C   UNL     1      -3.182  14.515  20.715  0.00  0.00    +0.000 A 
ATOM     18  C   UNL     1      -3.881  15.546  21.335  0.00  0.00    +0.000 A 
ATOM     19  C   UNL     1      -4.419  15.340  22.592  0.00  0.00    +0.000 A 
ATOM     20  F   UNL     1      -5.072  16.337  23.204  0.00  0.00    +0.000 F 
ATOM     21  C   UNL     1      -4.292  14.108  23.228  0.00  0.00    +0.000 A 
ATOM     22  C   UNL     1      -3.581  13.078  22.609  0.00  0.00    +0.000 A 
ENDBRANCH  12  16
ENDBRANCH   4   6
BRANCH   1  28
ATOM     23  C   UNL     1       0.952   3.609  17.953  0.00  0.00    +0.000 C 
ATOM     24  C   UNL     1       2.348   4.051  17.790  0.00  0.00    +0.000 A 
ATOM     25  O   UNL     1       3.181   3.192  17.152  0.00  0.00    +0.000 OA
ATOM     26  N   UNL     1       4.448   3.725  17.099  0.00  0.00    +0.000 NA
ATOM     27  C   UNL     1       4.396   4.928  17.701  0.00  0.00    +0.000 A 
ATOM     28  C   UNL     1       3.052   5.179  18.134  0.00  0.00    +0.000 A 
BRANCH  27  29
ATOM     29  C   UNL     1       5.620   5.719  17.887  0.00  0.00    +0.000 A 
ATOM     30  C   UNL     1       6.560   5.372  18.873  0.00  0.00    +0.000 A 
ATOM     31  C   UNL     1       7.723   6.124  19.071  0.00  0.00    +0.000 A 
ATOM     32  C   UNL     1       7.995   7.213  18.251  0.00  0.00    +0.000 A 
ATOM     33  C   UNL     1       7.096   7.554  17.244  0.00  0.00    +0.000 A 
ATOM     34  C   UNL     1       5.918   6.820  17.073  0.00  0.00    +0.000 A 
ATOM     35  F   UNL     1       5.078   7.218  16.106  0.00  0.00    +0.000 F 
ENDBRANCH  27  29
ENDBRANCH   1  28
TORSDOF 4
ENDMDL
MODEL 7
REMARK VINA RESULT:      -8.0      1.756      3.571
REMARK  Name = 
REMARK  5 active torsions:
REMARK  status: ('A' for Active; 'I' for Inactive)
REMARK    1  A    between atoms: C_1  and  C_2
REMARK    2  A    between atoms: C_5  and  C_6
REMARK    3  A    between atoms: C_13  and  C_14
REMARK    4  A    between atoms: C_17  and  C_18
REMARK    5  A    between atoms: N_24  and  C_25
REMARK                            x       y       z     vdW  Elec       q    Type
REMARK                         _______ _______ _______ _____ _____    ______ ____
ROOT
ATOM      1  C   UNL     1      -2.910  12.271  19.650  0.00  0.00    +0.000 A 
ATOM      2  C   UNL     1      -3.106  13.134  20.708  0.00  0.00    +0.000 A 
ATOM      3  S   UNL     1      -1.658  13.271  21.624  0.00  0.00    +0.000 S 
ATOM      4  C   UNL     1      -0.875  12.211  20.521  0.00  0.00    +0.000 A 
ATOM      5  N   UNL     1      -1.639  11.762  19.553  0.00  0.00    +0.000 NA
ENDROOT
BRANCH   4   6
ATOM      6  C   UNL     1       0.598  11.909  20.624  0.00  0.00    +0.000 C 
ATOM      7  C   UNL     1       1.228  11.921  19.227  0.00  0.00    +0.000 C 
ATOM      8  C   UNL     1       0.803  10.706  18.410  0.00  0.00    +0.000 C 
ATOM      9  N   UNL     1       1.132   9.469  19.115  0.00  0.00    +0.000 N 
ATOM     10  C   UNL     1       1.822   8.502  18.402  0.00  0.00    +0.000 C 
ATOM     11  O   UNL     1       2.231   8.746  17.264  0.00  0.00    +0.000 OA
ATOM     12  N   UNL     1       2.025   7.301  19.042  0.00  0.00    +0.000 N 
ATOM     13  C   UNL     1       0.541   9.341  20.447  0.00  0.00    +0.000 C 
ATOM     14  C   UNL     1       0.868  10.560  21.317  0.00  0.00    +0.000 C 
ATOM     15  H   UNL     1       1.370   7.060  19.765  0.00  0.00    +0.000 HD
BRANCH  12  16
ATOM     16  C   UNL     1       2.797   6.234  18.529  0.00  0.00    +0.000 A 
ATOM     17  C   UNL     1       4.199   6.218  18.559  0.00  0.00    +0.000 A 
ATOM     18  C   UNL     1       4.917   5.198  17.944  0.00  0.00    +0.000 A 
ATOM     19  C   UNL     1       4.236   4.164  17.328  0.00  0.00    +0.000 A 
ATOM     20  F   UNL     1       4.923   3.192  16.714  0.00  0.00    +0.000 F 
ATOM     21  C   UNL     1       2.845   4.120  17.341  0.00  0.00    +0.000 A 
ATOM     22  C   UNL     1       2.124   5.151  17.948  0.00  0.00    +0.000 A 
ENDBRANCH  12  16
ENDBRANCH   4   6
BRANCH   1  28
ATOM     23  C   UNL     1      -2.389  11.083  16.613  0.00  0.00    +0.000 C 
ATOM     24  C   UNL     1      -3.613  11.352  17.388  0.00  0.00    +0.000 A 
ATOM     25  O   UNL     1      -4.787  11.041  16.786  0.00  0.00    +0.000 OA
ATOM     26  N   UNL     1      -5.836  11.370  17.614  0.00  0.00    +0.000 NA
ATOM     27  C   UNL     1      -5.305  11.880  18.740  0.00  0.00    +0.000 A 
ATOM     28  C   UNL     1      -3.875  11.858  18.638  0.00  0.00    +0.000 A 
BRANCH  27  29
ATOM     29  C   UNL     1      -6.176  12.412  19.797  0.00  0.00    +0.000 A 
ATOM     30  C   UNL     1      -6.644  11.582  20.831  0.00  0.00    +0.000 A 
ATOM     31  C   UNL     1      -7.485  12.071  21.837  0.00  0.00    +0.000 A 
ATOM     32  C   UNL     1      -7.836  13.416  21.856  0.00  0.00    +0.000 A 
ATOM     33  C   UNL     1      -7.355  14.265  20.863  0.00  0.00    +0.000 A 
ATOM     34  C   UNL     1      -6.543  13.763  19.840  0.00  0.00    +0.000 A 
ATOM     35  F   UNL     1      -6.138  14.626  18.896  0.00  0.00    +0.000 F 
ENDBRANCH  27  29
ENDBRANCH   1  28
TORSDOF 4
ENDMDL
MODEL 8
REMARK VINA RESULT:      -8.0      4.801      7.357
REMARK  Name = 
REMARK  5 active torsions:
REMARK  status: ('A' for Active; 'I' for Inactive)
REMARK    1  A    between atoms: C_1  and  C_2
REMARK    2  A    between atoms: C_5  and  C_6
REMARK    3  A    between atoms: C_13  and  C_14
REMARK    4  A    between atoms: C_17  and  C_18
REMARK    5  A    between atoms: N_24  and  C_25
REMARK                            x       y       z     vdW  Elec       q    Type
REMARK                         _______ _______ _______ _____ _____    ______ ____
ROOT
ATOM      1  C   UNL     1       1.906  13.571  20.291  0.00  0.00    +0.000 A 
ATOM      2  C   UNL     1       2.642  13.641  19.127  0.00  0.00    +0.000 A 
ATOM      3  S   UNL     1       2.274  12.296  18.122  0.00  0.00    +0.000 S 
ATOM      4  C   UNL     1       1.137  11.752  19.290  0.00  0.00    +0.000 A 
ATOM      5  N   UNL     1       1.052  12.498  20.366  0.00  0.00    +0.000 NA
ENDROOT
BRANCH   4   6
ATOM      6  C   UNL     1       0.252  10.559  19.036  0.00  0.00    +0.000 C 
ATOM      7  C   UNL     1       0.151   9.710  20.309  0.00  0.00    +0.000 C 
ATOM      8  C   UNL     1       1.453   8.971  20.593  0.00  0.00    +0.000 C 
ATOM      9  N   UNL     1       1.840   8.146  19.450  0.00  0.00    +0.000 N 
ATOM     10  C   UNL     1       2.156   6.822  19.707  0.00  0.00    +0.000 C 
ATOM     11  O   UNL     1       1.996   6.354  20.838  0.00  0.00    +0.000 OA
ATOM     12  N   UNL     1       2.626   6.089  18.641  0.00  0.00    +0.000 N 
ATOM     13  C   UNL     1       2.004   8.872  18.192  0.00  0.00    +0.000 C 
ATOM     14  C   UNL     1       0.756   9.698  17.862  0.00  0.00    +0.000 C 
ATOM     15  H   UNL     1       3.066   6.605  17.899  0.00  0.00    +0.000 HD
BRANCH  12  16
ATOM     16  C   UNL     1       2.897   4.702  18.673  0.00  0.00    +0.000 A 
ATOM     17  C   UNL     1       3.990   4.149  19.355  0.00  0.00    +0.000 A 
ATOM     18  C   UNL     1       4.277   2.791  19.268  0.00  0.00    +0.000 A 
ATOM     19  C   UNL     1       3.449   1.969  18.526  0.00  0.00    +0.000 A 
ATOM     20  F   UNL     1       3.735   0.665  18.418  0.00  0.00    +0.000 F 
ATOM     21  C   UNL     1       2.320   2.480  17.892  0.00  0.00    +0.000 A 
ATOM     22  C   UNL     1       2.038   3.845  17.972  0.00  0.00    +0.000 A 
ENDBRANCH  12  16
ENDBRANCH   4   6
BRANCH   1  28
ATOM     23  C   UNL     1      -0.613  15.052  21.829  0.00  0.00    +0.000 C 
ATOM     24  C   UNL     1       0.845  15.076  22.042  0.00  0.00    +0.000 A 
ATOM     25  O   UNL     1       1.289  15.821  23.084  0.00  0.00    +0.000 OA
ATOM     26  N   UNL     1       2.663  15.768  23.141  0.00  0.00    +0.000 NA
ATOM     27  C   UNL     1       3.070  14.976  22.132  0.00  0.00    +0.000 A 
ATOM     28  C   UNL     1       1.923  14.492  21.421  0.00  0.00    +0.000 A 
BRANCH  27  29
ATOM     29  C   UNL     1       4.504  14.788  21.867  0.00  0.00    +0.000 A 
ATOM     30  C   UNL     1       5.262  13.878  22.623  0.00  0.00    +0.000 A 
ATOM     31  C   UNL     1       6.631  13.698  22.392  0.00  0.00    +0.000 A 
ATOM     32  C   UNL     1       7.258  14.391  21.363  0.00  0.00    +0.000 A 
ATOM     33  C   UNL     1       6.519  15.271  20.578  0.00  0.00    +0.000 A 
ATOM     34  C   UNL     1       5.160  15.473  20.836  0.00  0.00    +0.000 A 
ATOM     35  F   UNL     1       4.511  16.357  20.063  0.00  0.00    +0.000 F 
ENDBRANCH  27  29
ENDBRANCH   1  28
TORSDOF 4
ENDMDL
MODEL 9
REMARK VINA RESULT:      -7.9      2.100      2.984
REMARK  Name = 
REMARK  5 active torsions:
REMARK  status: ('A' for Active; 'I' for Inactive)
REMARK    1  A    between atoms: C_1  and  C_2
REMARK    2  A    between atoms: C_5  and  C_6
REMARK    3  A    between atoms: C_13  and  C_14
REMARK    4  A    between atoms: C_17  and  C_18
REMARK    5  A    between atoms: N_24  and  C_25
REMARK                            x       y       z     vdW  Elec       q    Type
REMARK                         _______ _______ _______ _____ _____    ______ ____
ROOT
ATOM      1  C   UNL     1      -3.046  13.233  21.425  0.00  0.00    +0.000 A 
ATOM      2  C   UNL     1      -3.055  12.312  22.452  0.00  0.00    +0.000 A 
ATOM      3  S   UNL     1      -1.529  11.527  22.545  0.00  0.00    +0.000 S 
ATOM      4  C   UNL     1      -0.964  12.500  21.246  0.00  0.00    +0.000 A 
ATOM      5  N   UNL     1      -1.852  13.333  20.755  0.00  0.00    +0.000 NA
ENDROOT
BRANCH   4   6
ATOM      6  C   UNL     1       0.469  12.448  20.784  0.00  0.00    +0.000 C 
ATOM      7  C   UNL     1       0.516  12.348  19.255  0.00  0.00    +0.000 C 
ATOM      8  C   UNL     1       0.071  10.973  18.770  0.00  0.00    +0.000 C 
ATOM      9  N   UNL     1       0.881   9.921  19.383  0.00  0.00    +0.000 N 
ATOM     10  C   UNL     1       1.434   8.977  18.534  0.00  0.00    +0.000 C 
ATOM     11  O   UNL     1       1.332   9.107  17.311  0.00  0.00    +0.000 OA
ATOM     12  N   UNL     1       2.098   7.932  19.134  0.00  0.00    +0.000 N 
ATOM     13  C   UNL     1       0.868   9.906  20.846  0.00  0.00    +0.000 C 
ATOM     14  C   UNL     1       1.244  11.277  21.418  0.00  0.00    +0.000 C 
ATOM     15  H   UNL     1       1.823   7.704  20.074  0.00  0.00    +0.000 HD
BRANCH  12  16
ATOM     16  C   UNL     1       2.821   6.932  18.444  0.00  0.00    +0.000 A 
ATOM     17  C   UNL     1       4.007   7.190  17.742  0.00  0.00    +0.000 A 
ATOM     18  C   UNL     1       4.625   6.198  16.988  0.00  0.00    +0.000 A 
ATOM     19  C   UNL     1       4.078   4.927  16.962  0.00  0.00    +0.000 A 
ATOM     20  F   UNL     1       4.655   3.975  16.217  0.00  0.00    +0.000 F 
ATOM     21  C   UNL     1       2.938   4.627  17.701  0.00  0.00    +0.000 A 
ATOM     22  C   UNL     1       2.313   5.627  18.450  0.00  0.00    +0.000 A 
ENDBRANCH  12  16
ENDBRANCH   4   6
BRANCH   1  28
ATOM     23  C   UNL     1      -3.401  16.496  21.787  0.00  0.00    +0.000 C 
ATOM     24  C   UNL     1      -4.233  15.462  21.146  0.00  0.00    +0.000 A 
ATOM     25  O   UNL     1      -5.371  15.891  20.548  0.00  0.00    +0.000 OA
ATOM     26  N   UNL     1      -6.052  14.817  20.020  0.00  0.00    +0.000 NA
ATOM     27  C   UNL     1      -5.324  13.718  20.287  0.00  0.00    +0.000 A 
ATOM     28  C   UNL     1      -4.133  14.101  20.988  0.00  0.00    +0.000 A 
BRANCH  27  29
ATOM     29  C   UNL     1      -5.830  12.386  19.928  0.00  0.00    +0.000 A 
ATOM     30  C   UNL     1      -6.858  11.781  20.671  0.00  0.00    +0.000 A 
ATOM     31  C   UNL     1      -7.341  10.508  20.349  0.00  0.00    +0.000 A 
ATOM     32  C   UNL     1      -6.837   9.833  19.243  0.00  0.00    +0.000 A 
ATOM     33  C   UNL     1      -5.843  10.427  18.471  0.00  0.00    +0.000 A 
ATOM     34  C   UNL     1      -5.341  11.685  18.818  0.00  0.00    +0.000 A 
ATOM     35  F   UNL     1      -4.362  12.190  18.051  0.00  0.00    +0.000 F 
ENDBRANCH  27  29
ENDBRANCH   1  28
TORSDOF 4
ENDMDL
