MODEL 1
REMARK VINA RESULT:      -7.6      0.000      0.000
REMARK  Name = 
REMARK  7 active torsions:
REMARK  status: ('A' for Active; 'I' for Inactive)
REMARK    1  A    between atoms: C_2  and  C_3
REMARK    2  A    between atoms: C_9  and  N_10
REMARK    3  A    between atoms: C_11  and  C_13
REMARK    4  A    between atoms: C_13  and  N_14
REMARK    5  A    between atoms: N_19  and  C_20
REMARK    6  A    between atoms: C_20  and  C_21
REMARK    7  A    between atoms: C_21  and  C_22
REMARK                            x       y       z     vdW  Elec       q    Type
REMARK                         _______ _______ _______ _____ _____    ______ ____
ROOT
ATOM      1  N   UNL     1       3.398   3.813  19.713  0.00  0.00    +0.000 N 
ATOM      2  C   UNL     1       3.031   2.755  18.950  0.00  0.00    +0.000 C 
ATOM      3  O   UNL     1       2.198   1.905  19.170  0.00  0.00    +0.000 OA
ATOM      4  C   UNL     1       3.964   2.803  17.725  0.00  0.00    +0.000 C 
ATOM      5  O   UNL     1       4.019   1.951  16.866  0.00  0.00    +0.000 OA
ATOM      6  N   UNL     1       4.710   3.929  17.888  0.00  0.00    +0.000 N 
ATOM      7  C   UNL     1       4.464   4.450  19.136  0.00  0.00    +0.000 C 
ATOM      8  O   UNL     1       5.134   5.311  19.692  0.00  0.00    +0.000 OA
ENDROOT
BRANCH   1   9
ATOM      9  C   UNL     1       2.762   4.208  20.960  0.00  0.00    +0.000 C 
BRANCH   9  11
ATOM     10  N   UNL     1       2.329   6.633  20.776  0.00  0.00    +0.000 N 
ATOM     11  C   UNL     1       1.776   5.354  20.678  0.00  0.00    +0.000 C 
ATOM     12  O   UNL     1       0.596   5.119  20.420  0.00  0.00    +0.000 OA
ATOM     13  H   UNL     1       3.239   6.709  21.222  0.00  0.00    +0.000 HD
BRANCH  10  20
ATOM     14  C   UNL     1       1.761   8.495  19.239  0.00  0.00    +0.000 A 
ATOM     15  C   UNL     1       1.109   9.720  18.995  0.00  0.00    +0.000 A 
ATOM     16  C   UNL     1       0.319  10.311  19.980  0.00  0.00    +0.000 A 
ATOM     17  C   UNL     1       0.160   9.667  21.199  0.00  0.00    +0.000 A 
ATOM     18 CL   UNL     1      -0.825  10.381  22.416  0.00  0.00    +0.000 Cl
ATOM     19  C   UNL     1       0.794   8.447  21.447  0.00  0.00    +0.000 A 
ATOM     20  C   UNL     1       1.634   7.852  20.492  0.00  0.00    +0.000 A 
BRANCH  14  22
ATOM     21  N   UNL     1       3.231   7.538  17.328  0.00  0.00    +0.000 NA
ATOM     22  C   UNL     1       2.577   7.964  18.186  0.00  0.00    +0.000 C 
ENDBRANCH  14  22
ENDBRANCH  10  20
ENDBRANCH   9  11
ENDBRANCH   1   9
BRANCH   6  23
ATOM     23  C   UNL     1       5.791   4.343  16.998  0.00  0.00    +0.000 C 
BRANCH  23  24
ATOM     24  C   UNL     1       5.285   5.114  15.763  0.00  0.00    +0.000 C 
BRANCH  24  25
ATOM     25  C   UNL     1       5.816   4.608  14.433  0.00  0.00    +0.000 C 
ATOM     26  C   UNL     1       5.048   3.873  13.605  0.00  0.00    +0.000 C 
ATOM     27  C   UNL     1       5.498   3.364  12.265  0.00  0.00    +0.000 C 
ATOM     28  C   UNL     1       7.009   3.460  12.065  0.00  0.00    +0.000 C 
ATOM     29  C   UNL     1       7.535   4.804  12.554  0.00  0.00    +0.000 C 
ATOM     30  C   UNL     1       7.216   5.024  14.039  0.00  0.00    +0.000 C 
ENDBRANCH  24  25
ENDBRANCH  23  24
ENDBRANCH   6  23
TORSDOF 7
ENDMDL
MODEL 2
REMARK VINA RESULT:      -7.3      4.631      7.452
REMARK  Name = 
REMARK  7 active torsions:
REMARK  status: ('A' for Active; 'I' for Inactive)
REMARK    1  A    between atoms: C_2  and  C_3
REMARK    2  A    between atoms: C_9  and  N_10
REMARK    3  A    between atoms: C_11  and  C_13
REMARK    4  A    between atoms: C_13  and  N_14
REMARK    5  A    between atoms: N_19  and  C_20
REMARK    6  A    between atoms: C_20  and  C_21
REMARK    7  A    between atoms: C_21  and  C_22
REMARK                            x       y       z     vdW  Elec       q    Type
REMARK                         _______ _______ _______ _____ _____    ______ ____
ROOT
ATOM      1  N   UNL     1       0.952  10.872  19.702  0.00  0.00    +0.000 N 
ATOM      2  C   UNL     1       0.979  11.201  21.016  0.00  0.00    +0.000 C 
ATOM      3  O   UNL     1       1.019  12.295  21.532  0.00  0.00    +0.000 OA
ATOM      4  C   UNL     1       1.016   9.854  21.764  0.00  0.00    +0.000 C 
ATOM      5  O   UNL     1       1.161   9.732  22.961  0.00  0.00    +0.000 OA
ATOM      6  N   UNL     1       0.930   8.904  20.794  0.00  0.00    +0.000 N 
ATOM      7  C   UNL     1       1.029   9.511  19.565  0.00  0.00    +0.000 C 
ATOM      8  O   UNL     1       1.226   8.938  18.501  0.00  0.00    +0.000 OA
ENDROOT
BRANCH   1   9
ATOM      9  C   UNL     1       0.863  11.820  18.603  0.00  0.00    +0.000 C 
BRANCH   9  11
ATOM     10  N   UNL     1      -1.550  11.389  18.297  0.00  0.00    +0.000 N 
ATOM     11  C   UNL     1      -0.573  12.363  18.524  0.00  0.00    +0.000 C 
ATOM     12  O   UNL     1      -0.797  13.568  18.629  0.00  0.00    +0.000 OA
ATOM     13  H   UNL     1      -1.227  10.474  17.995  0.00  0.00    +0.000 HD
BRANCH  10  20
ATOM     14  C   UNL     1      -3.713  11.389  17.083  0.00  0.00    +0.000 A 
ATOM     15  C   UNL     1      -5.090  11.685  17.044  0.00  0.00    +0.000 A 
ATOM     16  C   UNL     1      -5.734  12.213  18.162  0.00  0.00    +0.000 A 
ATOM     17  C   UNL     1      -5.009  12.423  19.326  0.00  0.00    +0.000 A 
ATOM     18 CL   UNL     1      -5.797  13.061  20.717  0.00  0.00    +0.000 Cl
ATOM     19  C   UNL     1      -3.645  12.123  19.379  0.00  0.00    +0.000 A 
ATOM     20  C   UNL     1      -2.960  11.636  18.255  0.00  0.00    +0.000 A 
BRANCH  14  22
ATOM     21  N   UNL     1      -2.634  10.448  14.920  0.00  0.00    +0.000 NA
ATOM     22  C   UNL     1      -3.118  10.873  15.885  0.00  0.00    +0.000 C 
ENDBRANCH  14  22
ENDBRANCH  10  20
ENDBRANCH   9  11
ENDBRANCH   1   9
BRANCH   6  23
ATOM     23  C   UNL     1       1.004   7.465  21.034  0.00  0.00    +0.000 C 
BRANCH  23  24
ATOM     24  C   UNL     1       2.208   6.805  20.334  0.00  0.00    +0.000 C 
BRANCH  24  25
ATOM     25  C   UNL     1       1.924   5.444  19.723  0.00  0.00    +0.000 C 
ATOM     26  C   UNL     1       1.305   4.475  20.427  0.00  0.00    +0.000 C 
ATOM     27  C   UNL     1       0.968   3.117  19.879  0.00  0.00    +0.000 C 
ATOM     28  C   UNL     1       1.688   2.806  18.568  0.00  0.00    +0.000 C 
ATOM     29  C   UNL     1       1.647   4.007  17.631  0.00  0.00    +0.000 C 
ATOM     30  C   UNL     1       2.296   5.240  18.271  0.00  0.00    +0.000 C 
ENDBRANCH  24  25
ENDBRANCH  23  24
ENDBRANCH   6  23
TORSDOF 7
ENDMDL
MODEL 3
REMARK VINA RESULT:      -7.1      1.366      2.276
REMARK  Name = 
REMARK  7 active torsions:
REMARK  status: ('A' for Active; 'I' for Inactive)
REMARK    1  A    between atoms: C_2  and  C_3
REMARK    2  A    between atoms: C_9  and  N_10
REMARK    3  A    between atoms: C_11  and  C_13
REMARK    4  A    between atoms: C_13  and  N_14
REMARK    5  A    between atoms: N_19  and  C_20
REMARK    6  A    between atoms: C_20  and  C_21
REMARK    7  A    between atoms: C_21  and  C_22
REMARK                            x       y       z     vdW  Elec       q    Type
REMARK                         _______ _______ _______ _____ _____    ______ ____
ROOT
ATOM      1  N   UNL     1       4.711   4.773  18.767  0.00  0.00    +0.000 N 
ATOM      2  C   UNL     1       5.996   5.167  18.938  0.00  0.00    +0.000 C 
ATOM      3  O   UNL     1       6.633   5.279  19.962  0.00  0.00    +0.000 OA
ATOM      4  C   UNL     1       6.496   5.525  17.526  0.00  0.00    +0.000 C 
ATOM      5  O   UNL     1       7.570   6.030  17.281  0.00  0.00    +0.000 OA
ATOM      6  N   UNL     1       5.464   5.224  16.694  0.00  0.00    +0.000 N 
ATOM      7  C   UNL     1       4.360   4.905  17.449  0.00  0.00    +0.000 C 
ATOM      8  O   UNL     1       3.213   4.817  17.032  0.00  0.00    +0.000 OA
ENDROOT
BRANCH   1   9
ATOM      9  C   UNL     1       3.835   4.290  19.822  0.00  0.00    +0.000 C 
BRANCH   9  11
ATOM     10  N   UNL     1       2.925   6.568  20.112  0.00  0.00    +0.000 N 
ATOM     11  C   UNL     1       2.614   5.219  19.924  0.00  0.00    +0.000 C 
ATOM     12  O   UNL     1       1.471   4.765  19.868  0.00  0.00    +0.000 OA
ATOM     13  H   UNL     1       3.881   6.788  20.377  0.00  0.00    +0.000 HD
BRANCH  10  20
ATOM     14  C   UNL     1       1.779   8.507  19.071  0.00  0.00    +0.000 A 
ATOM     15  C   UNL     1       0.869   9.577  19.161  0.00  0.00    +0.000 A 
ATOM     16  C   UNL     1       0.131   9.785  20.325  0.00  0.00    +0.000 A 
ATOM     17  C   UNL     1       0.283   8.908  21.390  0.00  0.00    +0.000 A 
ATOM     18 CL   UNL     1      -0.634   9.146  22.826  0.00  0.00    +0.000 Cl
ATOM     19  C   UNL     1       1.176   7.837  21.307  0.00  0.00    +0.000 A 
ATOM     20  C   UNL     1       1.968   7.631  20.166  0.00  0.00    +0.000 A 
BRANCH  14  22
ATOM     21  N   UNL     1       3.121   8.278  16.862  0.00  0.00    +0.000 NA
ATOM     22  C   UNL     1       2.521   8.375  17.850  0.00  0.00    +0.000 C 
ENDBRANCH  14  22
ENDBRANCH  10  20
ENDBRANCH   9  11
ENDBRANCH   1   9
BRANCH   6  23
ATOM     23  C   UNL     1       5.458   5.472  15.254  0.00  0.00    +0.000 C 
BRANCH  23  24
ATOM     24  C   UNL     1       6.625   4.780  14.525  0.00  0.00    +0.000 C 
BRANCH  24  25
ATOM     25  C   UNL     1       6.218   3.926  13.336  0.00  0.00    +0.000 C 
ATOM     26  C   UNL     1       4.945   3.897  12.897  0.00  0.00    +0.000 C 
ATOM     27  C   UNL     1       4.478   3.098  11.713  0.00  0.00    +0.000 C 
ATOM     28  C   UNL     1       5.497   2.057  11.254  0.00  0.00    +0.000 C 
ATOM     29  C   UNL     1       6.901   2.648  11.233  0.00  0.00    +0.000 C 
ATOM     30  C   UNL     1       7.312   3.167  12.617  0.00  0.00    +0.000 C 
ENDBRANCH  24  25
ENDBRANCH  23  24
ENDBRANCH   6  23
TORSDOF 7
ENDMDL
MODEL 4
REMARK VINA RESULT:      -7.1      0.981      1.052
REMARK  Name = 
REMARK  7 active torsions:
REMARK  status: ('A' for Active; 'I' for Inactive)
REMARK    1  A    between atoms: C_2  and  C_3
REMARK    2  A    between atoms: C_9  and  N_10
REMARK    3  A    between atoms: C_11  and  C_13
REMARK    4  A    between atoms: C_13  and  N_14
REMARK    5  A    between atoms: N_19  and  C_20
REMARK    6  A    between atoms: C_20  and  C_21
REMARK    7  A    between atoms: C_21  and  C_22
REMARK                            x       y       z     vdW  Elec       q    Type
REMARK                         _______ _______ _______ _____ _____    ______ ____
ROOT
ATOM      1  N   UNL     1       2.914   4.642  19.394  0.00  0.00    +0.000 N 
ATOM      2  C   UNL     1       2.271   3.728  18.626  0.00  0.00    +0.000 C 
ATOM      3  O   UNL     1       1.378   2.969  18.925  0.00  0.00    +0.000 OA
ATOM      4  C   UNL     1       2.972   3.796  17.255  0.00  0.00    +0.000 C 
ATOM      5  O   UNL     1       2.753   3.044  16.330  0.00  0.00    +0.000 OA
ATOM      6  N   UNL     1       3.887   4.795  17.370  0.00  0.00    +0.000 N 
ATOM      7  C   UNL     1       3.942   5.202  18.682  0.00  0.00    +0.000 C 
ATOM      8  O   UNL     1       4.814   5.906  19.173  0.00  0.00    +0.000 OA
ENDROOT
BRANCH   1   9
ATOM      9  C   UNL     1       2.570   4.972  20.767  0.00  0.00    +0.000 C 
BRANCH   9  11
ATOM     10  N   UNL     1       1.984   7.371  20.841  0.00  0.00    +0.000 N 
ATOM     11  C   UNL     1       1.490   6.066  20.764  0.00  0.00    +0.000 C 
ATOM     12  O   UNL     1       0.295   5.771  20.725  0.00  0.00    +0.000 OA
ATOM     13  H   UNL     1       2.959   7.479  21.104  0.00  0.00    +0.000 HD
BRANCH  10  20
ATOM     14  C   UNL     1       1.101   9.331  19.602  0.00  0.00    +0.000 A 
ATOM     15  C   UNL     1       0.349  10.521  19.579  0.00  0.00    +0.000 A 
ATOM     16  C   UNL     1      -0.336  10.949  20.716  0.00  0.00    +0.000 A 
ATOM     17  C   UNL     1      -0.289  10.176  21.867  0.00  0.00    +0.000 A 
ATOM     18 CL   UNL     1      -1.143  10.687  23.271  0.00  0.00    +0.000 Cl
ATOM     19  C   UNL     1       0.446   8.988  21.897  0.00  0.00    +0.000 A 
ATOM     20  C   UNL     1       1.184   8.557  20.783  0.00  0.00    +0.000 A 
BRANCH  14  22
ATOM     21  N   UNL     1       2.356   8.675  17.429  0.00  0.00    +0.000 NA
ATOM     22  C   UNL     1       1.799   8.971  18.402  0.00  0.00    +0.000 C 
ENDBRANCH  14  22
ENDBRANCH  10  20
ENDBRANCH   9  11
ENDBRANCH   1   9
BRANCH   6  23
ATOM     23  C   UNL     1       4.842   5.168  16.330  0.00  0.00    +0.000 C 
BRANCH  23  24
ATOM     24  C   UNL     1       5.739   3.994  15.893  0.00  0.00    +0.000 C 
BRANCH  24  25
ATOM     25  C   UNL     1       6.179   4.032  14.440  0.00  0.00    +0.000 C 
ATOM     26  C   UNL     1       5.479   3.399  13.478  0.00  0.00    +0.000 C 
ATOM     27  C   UNL     1       5.840   3.417  12.020  0.00  0.00    +0.000 C 
ATOM     28  C   UNL     1       7.255   3.931  11.760  0.00  0.00    +0.000 C 
ATOM     29  C   UNL     1       7.545   5.166  12.604  0.00  0.00    +0.000 C 
ATOM     30  C   UNL     1       7.392   4.870  14.102  0.00  0.00    +0.000 C 
ENDBRANCH  24  25
ENDBRANCH  23  24
ENDBRANCH   6  23
TORSDOF 7
ENDMDL
MODEL 5
REMARK VINA RESULT:      -7.0      4.851     10.645
REMARK  Name = 
REMARK  7 active torsions:
REMARK  status: ('A' for Active; 'I' for Inactive)
REMARK    1  A    between atoms: C_2  and  C_3
REMARK    2  A    between atoms: C_9  and  N_10
REMARK    3  A    between atoms: C_11  and  C_13
REMARK    4  A    between atoms: C_13  and  N_14
REMARK    5  A    between atoms: N_19  and  C_20
REMARK    6  A    between atoms: C_20  and  C_21
REMARK    7  A    between atoms: C_21  and  C_22
REMARK                            x       y       z     vdW  Elec       q    Type
REMARK                         _______ _______ _______ _____ _____    ______ ____
ROOT
ATOM      1  N   UNL     1       0.265  10.773  21.505  0.00  0.00    +0.000 N 
ATOM      2  C   UNL     1       0.433  11.176  20.222  0.00  0.00    +0.000 C 
ATOM      3  O   UNL     1       1.267  10.833  19.415  0.00  0.00    +0.000 OA
ATOM      4  C   UNL     1      -0.645  12.253  19.998  0.00  0.00    +0.000 C 
ATOM      5  O   UNL     1      -0.742  12.936  19.001  0.00  0.00    +0.000 OA
ATOM      6  N   UNL     1      -1.359  12.291  21.154  0.00  0.00    +0.000 N 
ATOM      7  C   UNL     1      -0.731  11.507  22.092  0.00  0.00    +0.000 C 
ATOM      8  O   UNL     1      -0.968  11.506  23.294  0.00  0.00    +0.000 OA
ENDROOT
BRANCH   1   9
ATOM      9  C   UNL     1       1.029   9.724  22.161  0.00  0.00    +0.000 C 
BRANCH   9  11
ATOM     10  N   UNL     1       1.909   7.848  20.817  0.00  0.00    +0.000 N 
ATOM     11  C   UNL     1       0.780   8.393  21.434  0.00  0.00    +0.000 C 
ATOM     12  O   UNL     1      -0.346   7.896  21.398  0.00  0.00    +0.000 OA
ATOM     13  H   UNL     1       2.716   8.456  20.713  0.00  0.00    +0.000 HD
BRANCH  10  20
ATOM     14  C   UNL     1       2.240   6.502  18.759  0.00  0.00    +0.000 A 
ATOM     15  C   UNL     1       2.223   5.257  18.100  0.00  0.00    +0.000 A 
ATOM     16  C   UNL     1       1.928   4.088  18.800  0.00  0.00    +0.000 A 
ATOM     17  C   UNL     1       1.675   4.159  20.162  0.00  0.00    +0.000 A 
ATOM     18 CL   UNL     1       1.323   2.720  21.039  0.00  0.00    +0.000 Cl
ATOM     19  C   UNL     1       1.699   5.388  20.828  0.00  0.00    +0.000 A 
ATOM     20  C   UNL     1       1.946   6.586  20.140  0.00  0.00    +0.000 A 
BRANCH  14  22
ATOM     21  N   UNL     1       2.751   8.598  17.319  0.00  0.00    +0.000 NA
ATOM     22  C   UNL     1       2.527   7.661  17.966  0.00  0.00    +0.000 C 
ENDBRANCH  14  22
ENDBRANCH  10  20
ENDBRANCH   9  11
ENDBRANCH   1   9
BRANCH   6  23
ATOM     23  C   UNL     1      -2.446  13.228  21.428  0.00  0.00    +0.000 C 
BRANCH  23  24
ATOM     24  C   UNL     1      -3.766  12.827  20.742  0.00  0.00    +0.000 C 
BRANCH  24  25
ATOM     25  C   UNL     1      -4.967  12.742  21.669  0.00  0.00    +0.000 C 
ATOM     26  C   UNL     1      -4.851  12.978  22.990  0.00  0.00    +0.000 C 
ATOM     27  C   UNL     1      -5.998  12.939  23.960  0.00  0.00    +0.000 C 
ATOM     28  C   UNL     1      -7.247  12.277  23.381  0.00  0.00    +0.000 C 
ATOM     29  C   UNL     1      -7.504  12.757  21.958  0.00  0.00    +0.000 C 
ATOM     30  C   UNL     1      -6.313  12.454  21.041  0.00  0.00    +0.000 C 
ENDBRANCH  24  25
ENDBRANCH  23  24
ENDBRANCH   6  23
TORSDOF 7
ENDMDL
MODEL 6
REMARK VINA RESULT:      -6.9      4.729      7.766
REMARK  Name = 
REMARK  7 active torsions:
REMARK  status: ('A' for Active; 'I' for Inactive)
REMARK    1  A    between atoms: C_2  and  C_3
REMARK    2  A    between atoms: C_9  and  N_10
REMARK    3  A    between atoms: C_11  and  C_13
REMARK    4  A    between atoms: C_13  and  N_14
REMARK    5  A    between atoms: N_19  and  C_20
REMARK    6  A    between atoms: C_20  and  C_21
REMARK    7  A    between atoms: C_21  and  C_22
REMARK                            x       y       z     vdW  Elec       q    Type
REMARK                         _______ _______ _______ _____ _____    ______ ____
ROOT
ATOM      1  N   UNL     1       0.378  10.680  19.615  0.00  0.00    +0.000 N 
ATOM      2  C   UNL     1       0.474  10.629  20.966  0.00  0.00    +0.000 C 
ATOM      3  O   UNL     1       0.111  11.437  21.791  0.00  0.00    +0.000 OA
ATOM      4  C   UNL     1       1.227   9.318  21.264  0.00  0.00    +0.000 C 
ATOM      5  O   UNL     1       1.606   8.974  22.362  0.00  0.00    +0.000 OA
ATOM      6  N   UNL     1       1.410   8.729  20.052  0.00  0.00    +0.000 N 
ATOM      7  C   UNL     1       1.025   9.605  19.066  0.00  0.00    +0.000 C 
ATOM      8  O   UNL     1       1.276   9.491  17.874  0.00  0.00    +0.000 OA
ENDROOT
BRANCH   1   9
ATOM      9  C   UNL     1      -0.302  11.722  18.862  0.00  0.00    +0.000 C 
BRANCH   9  11
ATOM     10  N   UNL     1      -2.461  12.417  19.841  0.00  0.00    +0.000 N 
ATOM     11  C   UNL     1      -1.821  11.517  18.984  0.00  0.00    +0.000 C 
ATOM     12  O   UNL     1      -2.384  10.603  18.382  0.00  0.00    +0.000 OA
ATOM     13  H   UNL     1      -1.870  12.968  20.457  0.00  0.00    +0.000 HD
BRANCH  10  20
ATOM     14  C   UNL     1      -4.408  12.586  21.370  0.00  0.00    +0.000 A 
ATOM     15  C   UNL     1      -5.801  12.590  21.574  0.00  0.00    +0.000 A 
ATOM     16  C   UNL     1      -6.677  12.496  20.493  0.00  0.00    +0.000 A 
ATOM     17  C   UNL     1      -6.161  12.424  19.207  0.00  0.00    +0.000 A 
ATOM     18 CL   UNL     1      -7.233  12.322  17.864  0.00  0.00    +0.000 Cl
ATOM     19  C   UNL     1      -4.780  12.429  18.993  0.00  0.00    +0.000 A 
ATOM     20  C   UNL     1      -3.874  12.474  20.064  0.00  0.00    +0.000 A 
BRANCH  14  22
ATOM     21  N   UNL     1      -2.903  12.713  23.479  0.00  0.00    +0.000 NA
ATOM     22  C   UNL     1      -3.573  12.659  22.533  0.00  0.00    +0.000 C 
ENDBRANCH  14  22
ENDBRANCH  10  20
ENDBRANCH   9  11
ENDBRANCH   1   9
BRANCH   6  23
ATOM     23  C   UNL     1       2.153   7.489  19.837  0.00  0.00    +0.000 C 
BRANCH  23  24
ATOM     24  C   UNL     1       1.594   6.309  20.655  0.00  0.00    +0.000 C 
BRANCH  24  25
ATOM     25  C   UNL     1       1.584   4.976  19.928  0.00  0.00    +0.000 C 
ATOM     26  C   UNL     1       1.975   4.876  18.642  0.00  0.00    +0.000 C 
ATOM     27  C   UNL     1       2.016   3.587  17.870  0.00  0.00    +0.000 C 
ATOM     28  C   UNL     1       1.258   2.453  18.558  0.00  0.00    +0.000 C 
ATOM     29  C   UNL     1       1.564   2.425  20.050  0.00  0.00    +0.000 C 
ATOM     30  C   UNL     1       1.190   3.751  20.724  0.00  0.00    +0.000 C 
ENDBRANCH  24  25
ENDBRANCH  23  24
ENDBRANCH   6  23
TORSDOF 7
ENDMDL
MODEL 7
REMARK VINA RESULT:      -6.9      4.274      5.588
REMARK  Name = 
REMARK  7 active torsions:
REMARK  status: ('A' for Active; 'I' for Inactive)
REMARK    1  A    between atoms: C_2  and  C_3
REMARK    2  A    between atoms: C_9  and  N_10
REMARK    3  A    between atoms: C_11  and  C_13
REMARK    4  A    between atoms: C_13  and  N_14
REMARK    5  A    between atoms: N_19  and  C_20
REMARK    6  A    between atoms: C_20  and  C_21
REMARK    7  A    between atoms: C_21  and  C_22
REMARK                            x       y       z     vdW  Elec       q    Type
REMARK                         _______ _______ _______ _____ _____    ______ ____
ROOT
ATOM      1  N   UNL     1       5.423   5.505  17.718  0.00  0.00    +0.000 N 
ATOM      2  C   UNL     1       5.933   4.917  18.828  0.00  0.00    +0.000 C 
ATOM      3  O   UNL     1       5.473   4.022  19.500  0.00  0.00    +0.000 OA
ATOM      4  C   UNL     1       7.235   5.686  19.125  0.00  0.00    +0.000 C 
ATOM      5  O   UNL     1       7.920   5.527  20.111  0.00  0.00    +0.000 OA
ATOM      6  N   UNL     1       7.363   6.578  18.107  0.00  0.00    +0.000 N 
ATOM      7  C   UNL     1       6.217   6.558  17.349  0.00  0.00    +0.000 C 
ATOM      8  O   UNL     1       5.903   7.393  16.510  0.00  0.00    +0.000 OA
ENDROOT
BRANCH   1   9
ATOM      9  C   UNL     1       4.214   5.085  17.028  0.00  0.00    +0.000 C 
BRANCH   9  11
ATOM     10  N   UNL     1       3.258   6.789  18.539  0.00  0.00    +0.000 N 
ATOM     11  C   UNL     1       2.992   5.655  17.767  0.00  0.00    +0.000 C 
ATOM     12  O   UNL     1       1.893   5.108  17.682  0.00  0.00    +0.000 OA
ATOM     13  H   UNL     1       4.234   7.006  18.719  0.00  0.00    +0.000 HD
BRANCH  10  20
ATOM     14  C   UNL     1       1.654   7.015  20.418  0.00  0.00    +0.000 A 
ATOM     15  C   UNL     1       0.654   7.746  21.086  0.00  0.00    +0.000 A 
ATOM     16  C   UNL     1       0.266   9.004  20.625  0.00  0.00    +0.000 A 
ATOM     17  C   UNL     1       0.897   9.541  19.511  0.00  0.00    +0.000 A 
ATOM     18 CL   UNL     1       0.438  11.098  18.941  0.00  0.00    +0.000 Cl
ATOM     19  C   UNL     1       1.899   8.827  18.848  0.00  0.00    +0.000 A 
ATOM     20  C   UNL     1       2.275   7.540  19.261  0.00  0.00    +0.000 A 
BRANCH  14  22
ATOM     21  N   UNL     1       2.234   4.670  21.366  0.00  0.00    +0.000 NA
ATOM     22  C   UNL     1       1.978   5.718  20.939  0.00  0.00    +0.000 C 
ENDBRANCH  14  22
ENDBRANCH  10  20
ENDBRANCH   9  11
ENDBRANCH   1   9
BRANCH   6  23
ATOM     23  C   UNL     1       8.422   7.580  18.010  0.00  0.00    +0.000 C 
BRANCH  23  24
ATOM     24  C   UNL     1       7.903   9.017  18.201  0.00  0.00    +0.000 C 
BRANCH  24  25
ATOM     25  C   UNL     1       8.954  10.023  18.640  0.00  0.00    +0.000 C 
ATOM     26  C   UNL     1       9.662  10.734  17.741  0.00  0.00    +0.000 C 
ATOM     27  C   UNL     1      10.695  11.763  18.103  0.00  0.00    +0.000 C 
ATOM     28  C   UNL     1      11.120  11.694  19.569  0.00  0.00    +0.000 C 
ATOM     29  C   UNL     1       9.907  11.521  20.475  0.00  0.00    +0.000 C 
ATOM     30  C   UNL     1       9.124  10.249  20.126  0.00  0.00    +0.000 C 
ENDBRANCH  24  25
ENDBRANCH  23  24
ENDBRANCH   6  23
TORSDOF 7
ENDMDL
MODEL 8
REMARK VINA RESULT:      -6.8      4.654      9.930
REMARK  Name = 
REMARK  7 active torsions:
REMARK  status: ('A' for Active; 'I' for Inactive)
REMARK    1  A    between atoms: C_2  and  C_3
REMARK    2  A    between atoms: C_9  and  N_10
REMARK    3  A    between atoms: C_11  and  C_13
REMARK    4  A    between atoms: C_13  and  N_14
REMARK    5  A    between atoms: N_19  and  C_20
REMARK    6  A    between atoms: C_20  and  C_21
REMARK    7  A    between atoms: C_21  and  C_22
REMARK                            x       y       z     vdW  Elec       q    Type
REMARK                         _______ _______ _______ _____ _____    ______ ____
ROOT
ATOM      1  N   UNL     1       0.113  10.781  21.760  0.00  0.00    +0.000 N 
ATOM      2  C   UNL     1       0.369  11.561  20.682  0.00  0.00    +0.000 C 
ATOM      3  O   UNL     1       1.357  11.603  19.984  0.00  0.00    +0.000 OA
ATOM      4  C   UNL     1      -0.866  12.473  20.546  0.00  0.00    +0.000 C 
ATOM      5  O   UNL     1      -0.963  13.391  19.761  0.00  0.00    +0.000 OA
ATOM      6  N   UNL     1      -1.724  12.060  21.517  0.00  0.00    +0.000 N 
ATOM      7  C   UNL     1      -1.083  11.148  22.320  0.00  0.00    +0.000 C 
ATOM      8  O   UNL     1      -1.476  10.760  23.413  0.00  0.00    +0.000 OA
ENDROOT
BRANCH   1   9
ATOM      9  C   UNL     1       0.979   9.722  22.253  0.00  0.00    +0.000 C 
BRANCH   9  11
ATOM     10  N   UNL     1       1.889   7.866  20.902  0.00  0.00    +0.000 N 
ATOM     11  C   UNL     1       0.733   8.449  21.427  0.00  0.00    +0.000 C 
ATOM     12  O   UNL     1      -0.410   8.029  21.243  0.00  0.00    +0.000 OA
ATOM     13  H   UNL     1       2.737   8.425  20.920  0.00  0.00    +0.000 HD
BRANCH  10  20
ATOM     14  C   UNL     1       2.174   6.633  18.767  0.00  0.00    +0.000 A 
ATOM     15  C   UNL     1       2.157   5.424  18.046  0.00  0.00    +0.000 A 
ATOM     16  C   UNL     1       1.908   4.215  18.694  0.00  0.00    +0.000 A 
ATOM     17  C   UNL     1       1.701   4.211  20.066  0.00  0.00    +0.000 A 
ATOM     18 CL   UNL     1       1.407   2.723  20.879  0.00  0.00    +0.000 Cl
ATOM     19  C   UNL     1       1.726   5.405  20.793  0.00  0.00    +0.000 A 
ATOM     20  C   UNL     1       1.926   6.641  20.160  0.00  0.00    +0.000 A 
BRANCH  14  22
ATOM     21  N   UNL     1       2.594   8.813  17.424  0.00  0.00    +0.000 NA
ATOM     22  C   UNL     1       2.411   7.838  18.025  0.00  0.00    +0.000 C 
ENDBRANCH  14  22
ENDBRANCH  10  20
ENDBRANCH   9  11
ENDBRANCH   1   9
BRANCH   6  23
ATOM     23  C   UNL     1      -3.006  12.693  21.815  0.00  0.00    +0.000 C 
BRANCH  23  24
ATOM     24  C   UNL     1      -3.663  13.325  20.573  0.00  0.00    +0.000 C 
BRANCH  24  25
ATOM     25  C   UNL     1      -4.696  12.451  19.882  0.00  0.00    +0.000 C 
ATOM     26  C   UNL     1      -4.425  11.835  18.715  0.00  0.00    +0.000 C 
ATOM     27  C   UNL     1      -5.387  10.936  17.991  0.00  0.00    +0.000 C 
ATOM     28  C   UNL     1      -6.818  11.047  18.514  0.00  0.00    +0.000 C 
ATOM     29  C   UNL     1      -6.837  11.068  20.037  0.00  0.00    +0.000 C 
ATOM     30  C   UNL     1      -6.015  12.238  20.592  0.00  0.00    +0.000 C 
ENDBRANCH  24  25
ENDBRANCH  23  24
ENDBRANCH   6  23
TORSDOF 7
ENDMDL
MODEL 9
REMARK VINA RESULT:      -6.8      4.231      6.713
REMARK  Name = 
REMARK  7 active torsions:
REMARK  status: ('A' for Active; 'I' for Inactive)
REMARK    1  A    between atoms: C_2  and  C_3
REMARK    2  A    between atoms: C_9  and  N_10
REMARK    3  A    between atoms: C_11  and  C_13
REMARK    4  A    between atoms: C_13  and  N_14
REMARK    5  A    between atoms: N_19  and  C_20
REMARK    6  A    between atoms: C_20  and  C_21
REMARK    7  A    between atoms: C_21  and  C_22
REMARK                            x       y       z     vdW  Elec       q    Type
REMARK                         _______ _______ _______ _____ _____    ______ ____
ROOT
ATOM      1  N   UNL     1       1.268  10.190  19.829  0.00  0.00    +0.000 N 
ATOM      2  C   UNL     1       1.088   9.284  20.821  0.00  0.00    +0.000 C 
ATOM      3  O   UNL     1       0.743   9.462  21.968  0.00  0.00    +0.000 OA
ATOM      4  C   UNL     1       1.488   7.930  20.203  0.00  0.00    +0.000 C 
ATOM      5  O   UNL     1       1.570   6.889  20.817  0.00  0.00    +0.000 OA
ATOM      6  N   UNL     1       1.780   8.203  18.903  0.00  0.00    +0.000 N 
ATOM      7  C   UNL     1       1.778   9.565  18.722  0.00  0.00    +0.000 C 
ATOM      8  O   UNL     1       2.228  10.154  17.747  0.00  0.00    +0.000 OA
ENDROOT
BRANCH   1   9
ATOM      9  C   UNL     1       0.972  11.610  19.927  0.00  0.00    +0.000 C 
BRANCH   9  11
ATOM     10  N   UNL     1      -1.215  11.040  18.931  0.00  0.00    +0.000 N 
ATOM     11  C   UNL     1      -0.159  11.955  18.945  0.00  0.00    +0.000 C 
ATOM     12  O   UNL     1      -0.085  12.950  18.224  0.00  0.00    +0.000 OA
ATOM     13  H   UNL     1      -1.057  10.147  19.388  0.00  0.00    +0.000 HD
BRANCH  10  20
ATOM     14  C   UNL     1      -3.554  11.828  18.677  0.00  0.00    +0.000 A 
ATOM     15  C   UNL     1      -4.738  11.911  17.918  0.00  0.00    +0.000 A 
ATOM     16  C   UNL     1      -4.798  11.365  16.637  0.00  0.00    +0.000 A 
ATOM     17  C   UNL     1      -3.669  10.760  16.104  0.00  0.00    +0.000 A 
ATOM     18 CL   UNL     1      -3.727  10.096  14.517  0.00  0.00    +0.000 Cl
ATOM     19  C   UNL     1      -2.487  10.682  16.845  0.00  0.00    +0.000 A 
ATOM     20  C   UNL     1      -2.411  11.179  18.155  0.00  0.00    +0.000 A 
BRANCH  14  22
ATOM     21  N   UNL     1      -3.591  12.846  21.063  0.00  0.00    +0.000 NA
ATOM     22  C   UNL     1      -3.580  12.390  19.997  0.00  0.00    +0.000 C 
ENDBRANCH  14  22
ENDBRANCH  10  20
ENDBRANCH   9  11
ENDBRANCH   1   9
BRANCH   6  23
ATOM     23  C   UNL     1       2.283   7.224  17.943  0.00  0.00    +0.000 C 
BRANCH  23  24
ATOM     24  C   UNL     1       3.507   6.448  18.467  0.00  0.00    +0.000 C 
BRANCH  24  25
ATOM     25  C   UNL     1       3.347   4.938  18.484  0.00  0.00    +0.000 C 
ATOM     26  C   UNL     1       4.199   4.150  19.170  0.00  0.00    +0.000 C 
ATOM     27  C   UNL     1       4.085   2.655  19.253  0.00  0.00    +0.000 C 
ATOM     28  C   UNL     1       3.123   2.069  18.220  0.00  0.00    +0.000 C 
ATOM     29  C   UNL     1       1.848   2.900  18.138  0.00  0.00    +0.000 C 
ATOM     30  C   UNL     1       2.151   4.356  17.764  0.00  0.00    +0.000 C 
ENDBRANCH  24  25
ENDBRANCH  23  24
ENDBRANCH   6  23
TORSDOF 7
ENDMDL
