MODEL 1
REMARK VINA RESULT:      -8.4      0.000      0.000
REMARK  Name = 
REMARK  2 active torsions:
REMARK  status: ('A' for Active; 'I' for Inactive)
REMARK    1  A    between atoms: C_1  and  C_2
REMARK    2  A    between atoms: C_19  and  C_20
REMARK                            x       y       z     vdW  Elec       q    Type
REMARK                         _______ _______ _______ _____ _____    ______ ____
ROOT
ATOM      1  C   UNL     1       1.766  11.403  18.044  0.00  0.00    +0.000 C 
ATOM      2  C   UNL     1       1.089  10.247  18.744  0.00  0.00    +0.000 C 
ATOM      3  O   UNL     1      -0.054  10.364  19.184  0.00  0.00    +0.000 OA
ATOM      4  N   UNL     1       1.859   9.113  18.960  0.00  0.00    +0.000 N 
ATOM      5  C   UNL     1       1.391   8.135  19.941  0.00  0.00    +0.000 C 
ATOM      6  C   UNL     1       2.491   7.096  20.214  0.00  0.00    +0.000 C 
ATOM      7  C   UNL     1       2.719   6.254  18.930  0.00  0.00    +0.000 C 
ATOM      8  C   UNL     1       2.441   7.137  17.669  0.00  0.00    +0.000 C 
ATOM      9  C   UNL     1       2.808   8.593  17.982  0.00  0.00    +0.000 C 
ATOM     10  O   UNL     1       1.695   5.190  19.003  0.00  0.00    +0.000 OA
ATOM     11  C   UNL     1       2.025   4.141  19.853  0.00  0.00    +0.000 A 
ATOM     12  C   UNL     1       1.038   3.547  20.618  0.00  0.00    +0.000 A 
ATOM     13  N   UNL     1       1.268   2.511  21.466  0.00  0.00    +0.000 NA
ATOM     14  C   UNL     1       2.532   2.034  21.529  0.00  0.00    +0.000 A 
ATOM     15  C   UNL     1       3.593   2.551  20.800  0.00  0.00    +0.000 A 
ATOM     16  C   UNL     1       3.332   3.637  19.972  0.00  0.00    +0.000 A 
ATOM     17  C   UNL     1       4.348   4.368  19.254  0.00  0.00    +0.000 A 
ATOM     18  N   UNL     1       5.574   3.963  18.817  0.00  0.00    +0.000 N 
ATOM     19  C   UNL     1       6.109   4.921  17.975  0.00  0.00    +0.000 A 
ATOM     20  C   UNL     1       5.231   6.007  18.003  0.00  0.00    +0.000 A 
ATOM     21  C   UNL     1       4.098   5.632  18.769  0.00  0.00    +0.000 A 
ATOM     22  H   UNL     1       5.998   3.053  18.959  0.00  0.00    +0.000 HD
ENDROOT
BRANCH  19  23
ATOM     23  C   UNL     1       7.315   4.693  17.217  0.00  0.00    +0.000 C 
ATOM     24  N   UNL     1       7.297   5.110  15.920  0.00  0.00    +0.000 N 
ATOM     25  O   UNL     1       8.300   4.126  17.675  0.00  0.00    +0.000 OA
ATOM     26  H   UNL     1       6.475   5.479  15.472  0.00  0.00    +0.000 HD
ATOM     27  H   UNL     1       8.098   4.881  15.348  0.00  0.00    +0.000 HD
ENDBRANCH  19  23
TORSDOF 1
ENDMDL
MODEL 2
REMARK VINA RESULT:      -7.7      1.921      4.550
REMARK  Name = 
REMARK  2 active torsions:
REMARK  status: ('A' for Active; 'I' for Inactive)
REMARK    1  A    between atoms: C_1  and  C_2
REMARK    2  A    between atoms: C_19  and  C_20
REMARK                            x       y       z     vdW  Elec       q    Type
REMARK                         _______ _______ _______ _____ _____    ______ ____
ROOT
ATOM      1  C   UNL     1      -0.699  10.970  20.408  0.00  0.00    +0.000 C 
ATOM      2  C   UNL     1       0.321  10.771  19.311  0.00  0.00    +0.000 C 
ATOM      3  O   UNL     1       0.638  11.704  18.574  0.00  0.00    +0.000 OA
ATOM      4  N   UNL     1       0.778   9.476  19.113  0.00  0.00    +0.000 N 
ATOM      5  C   UNL     1       1.456   9.166  17.854  0.00  0.00    +0.000 C 
ATOM      6  C   UNL     1       1.655   7.646  17.725  0.00  0.00    +0.000 C 
ATOM      7  C   UNL     1       2.656   7.174  18.813  0.00  0.00    +0.000 C 
ATOM      8  C   UNL     1       2.516   8.079  20.082  0.00  0.00    +0.000 C 
ATOM      9  C   UNL     1       1.061   8.552  20.205  0.00  0.00    +0.000 C 
ATOM     10  O   UNL     1       3.987   7.401  18.210  0.00  0.00    +0.000 OA
ATOM     11  C   UNL     1       4.375   6.420  17.305  0.00  0.00    +0.000 A 
ATOM     12  C   UNL     1       5.074   6.780  16.168  0.00  0.00    +0.000 A 
ATOM     13  N   UNL     1       5.502   5.888  15.237  0.00  0.00    +0.000 NA
ATOM     14  C   UNL     1       5.242   4.581  15.469  0.00  0.00    +0.000 A 
ATOM     15  C   UNL     1       4.555   4.112  16.579  0.00  0.00    +0.000 A 
ATOM     16  C   UNL     1       4.095   5.054  17.492  0.00  0.00    +0.000 A 
ATOM     17  C   UNL     1       3.255   4.742  18.623  0.00  0.00    +0.000 A 
ATOM     18  N   UNL     1       3.127   3.578  19.322  0.00  0.00    +0.000 N 
ATOM     19  C   UNL     1       2.384   3.802  20.467  0.00  0.00    +0.000 A 
ATOM     20  C   UNL     1       1.936   5.123  20.396  0.00  0.00    +0.000 A 
ATOM     21  C   UNL     1       2.531   5.725  19.258  0.00  0.00    +0.000 A 
ATOM     22  H   UNL     1       3.599   2.701  19.133  0.00  0.00    +0.000 HD
ENDROOT
BRANCH  19  23
ATOM     23  C   UNL     1       2.234   2.802  21.496  0.00  0.00    +0.000 C 
ATOM     24  N   UNL     1       0.975   2.630  21.989  0.00  0.00    +0.000 N 
ATOM     25  O   UNL     1       3.172   2.154  21.945  0.00  0.00    +0.000 OA
ATOM     26  H   UNL     1       0.198   3.215  21.728  0.00  0.00    +0.000 HD
ATOM     27  H   UNL     1       0.864   1.999  22.769  0.00  0.00    +0.000 HD
ENDBRANCH  19  23
TORSDOF 1
ENDMDL
MODEL 3
REMARK VINA RESULT:      -7.6      1.552      1.553
REMARK  Name = 
REMARK  2 active torsions:
REMARK  status: ('A' for Active; 'I' for Inactive)
REMARK    1  A    between atoms: C_1  and  C_2
REMARK    2  A    between atoms: C_19  and  C_20
REMARK                            x       y       z     vdW  Elec       q    Type
REMARK                         _______ _______ _______ _____ _____    ______ ____
ROOT
ATOM      1  C   UNL     1       1.113  11.571  19.733  0.00  0.00    +0.000 C 
ATOM      2  C   UNL     1       0.541  10.180  19.875  0.00  0.00    +0.000 C 
ATOM      3  O   UNL     1      -0.604  10.014  20.291  0.00  0.00    +0.000 OA
ATOM      4  N   UNL     1       1.405   9.123  19.626  0.00  0.00    +0.000 N 
ATOM      5  C   UNL     1       1.028   7.793  20.104  0.00  0.00    +0.000 C 
ATOM      6  C   UNL     1       2.214   6.825  19.955  0.00  0.00    +0.000 C 
ATOM      7  C   UNL     1       2.503   6.610  18.445  0.00  0.00    +0.000 C 
ATOM      8  C   UNL     1       2.142   7.910  17.652  0.00  0.00    +0.000 C 
ATOM      9  C   UNL     1       2.388   9.131  18.548  0.00  0.00    +0.000 C 
ATOM     10  O   UNL     1       1.572   5.533  18.044  0.00  0.00    +0.000 OA
ATOM     11  C   UNL     1       1.995   4.256  18.395  0.00  0.00    +0.000 A 
ATOM     12  C   UNL     1       1.067   3.323  18.819  0.00  0.00    +0.000 A 
ATOM     13  N   UNL     1       1.389   2.052  19.171  0.00  0.00    +0.000 NA
ATOM     14  C   UNL     1       2.688   1.693  19.067  0.00  0.00    +0.000 A 
ATOM     15  C   UNL     1       3.698   2.547  18.647  0.00  0.00    +0.000 A 
ATOM     16  C   UNL     1       3.341   3.854  18.333  0.00  0.00    +0.000 A 
ATOM     17  C   UNL     1       4.286   4.895  18.009  0.00  0.00    +0.000 A 
ATOM     18  N   UNL     1       5.539   4.805  17.479  0.00  0.00    +0.000 N 
ATOM     19  C   UNL     1       5.986   6.064  17.122  0.00  0.00    +0.000 A 
ATOM     20  C   UNL     1       5.020   6.968  17.571  0.00  0.00    +0.000 A 
ATOM     21  C   UNL     1       3.928   6.222  18.081  0.00  0.00    +0.000 A 
ATOM     22  H   UNL     1       6.039   3.955  17.246  0.00  0.00    +0.000 HD
ENDROOT
BRANCH  19  23
ATOM     23  C   UNL     1       7.201   6.266  16.372  0.00  0.00    +0.000 C 
ATOM     24  N   UNL     1       7.499   5.315  15.442  0.00  0.00    +0.000 N 
ATOM     25  O   UNL     1       7.959   7.209  16.562  0.00  0.00    +0.000 OA
ATOM     26  H   UNL     1       6.964   4.470  15.329  0.00  0.00    +0.000 HD
ATOM     27  H   UNL     1       8.388   5.391  14.968  0.00  0.00    +0.000 HD
ENDBRANCH  19  23
TORSDOF 1
ENDMDL
MODEL 4
REMARK VINA RESULT:      -7.4      3.474      6.167
REMARK  Name = 
REMARK  2 active torsions:
REMARK  status: ('A' for Active; 'I' for Inactive)
REMARK    1  A    between atoms: C_1  and  C_2
REMARK    2  A    between atoms: C_19  and  C_20
REMARK                            x       y       z     vdW  Elec       q    Type
REMARK                         _______ _______ _______ _____ _____    ______ ____
ROOT
ATOM      1  C   UNL     1       2.006   2.979  21.276  0.00  0.00    +0.000 C 
ATOM      2  C   UNL     1       2.150   2.590  19.823  0.00  0.00    +0.000 C 
ATOM      3  O   UNL     1       1.413   1.739  19.327  0.00  0.00    +0.000 OA
ATOM      4  N   UNL     1       3.214   3.150  19.130  0.00  0.00    +0.000 N 
ATOM      5  C   UNL     1       3.618   2.535  17.867  0.00  0.00    +0.000 C 
ATOM      6  C   UNL     1       4.952   3.137  17.392  0.00  0.00    +0.000 C 
ATOM      7  C   UNL     1       4.730   4.629  17.025  0.00  0.00    +0.000 C 
ATOM      8  C   UNL     1       3.606   5.230  17.934  0.00  0.00    +0.000 C 
ATOM      9  C   UNL     1       3.639   4.535  19.301  0.00  0.00    +0.000 C 
ATOM     10  O   UNL     1       4.246   4.595  15.628  0.00  0.00    +0.000 OA
ATOM     11  C   UNL     1       5.251   4.423  14.683  0.00  0.00    +0.000 A 
ATOM     12  C   UNL     1       5.013   3.640  13.569  0.00  0.00    +0.000 A 
ATOM     13  N   UNL     1       5.932   3.427  12.592  0.00  0.00    +0.000 NA
ATOM     14  C   UNL     1       7.127   4.045  12.724  0.00  0.00    +0.000 A 
ATOM     15  C   UNL     1       7.467   4.857  13.796  0.00  0.00    +0.000 A 
ATOM     16  C   UNL     1       6.519   5.022  14.800  0.00  0.00    +0.000 A 
ATOM     17  C   UNL     1       6.764   5.723  16.037  0.00  0.00    +0.000 A 
ATOM     18  N   UNL     1       7.654   6.716  16.317  0.00  0.00    +0.000 N 
ATOM     19  C   UNL     1       7.381   7.248  17.565  0.00  0.00    +0.000 A 
ATOM     20  C   UNL     1       6.367   6.461  18.117  0.00  0.00    +0.000 A 
ATOM     21  C   UNL     1       5.947   5.535  17.128  0.00  0.00    +0.000 A 
ATOM     22  H   UNL     1       8.336   7.118  15.683  0.00  0.00    +0.000 HD
ENDROOT
BRANCH  19  23
ATOM     23  C   UNL     1       8.040   8.433  18.058  0.00  0.00    +0.000 C 
ATOM     24  N   UNL     1       8.886   8.256  19.111  0.00  0.00    +0.000 N 
ATOM     25  O   UNL     1       7.841   9.552  17.600  0.00  0.00    +0.000 OA
ATOM     26  H   UNL     1       8.995   7.377  19.587  0.00  0.00    +0.000 HD
ATOM     27  H   UNL     1       9.289   9.084  19.527  0.00  0.00    +0.000 HD
ENDBRANCH  19  23
TORSDOF 1
ENDMDL
MODEL 5
REMARK VINA RESULT:      -7.3      2.127      4.709
REMARK  Name = 
REMARK  2 active torsions:
REMARK  status: ('A' for Active; 'I' for Inactive)
REMARK    1  A    between atoms: C_1  and  C_2
REMARK    2  A    between atoms: C_19  and  C_20
REMARK                            x       y       z     vdW  Elec       q    Type
REMARK                         _______ _______ _______ _____ _____    ______ ____
ROOT
ATOM      1  C   UNL     1      -0.420  10.709  19.707  0.00  0.00    +0.000 C 
ATOM      2  C   UNL     1       0.988  10.649  19.165  0.00  0.00    +0.000 C 
ATOM      3  O   UNL     1       1.664  11.672  19.061  0.00  0.00    +0.000 OA
ATOM      4  N   UNL     1       1.421   9.418  18.692  0.00  0.00    +0.000 N 
ATOM      5  C   UNL     1       2.602   9.384  17.830  0.00  0.00    +0.000 C 
ATOM      6  C   UNL     1       2.765   7.984  17.216  0.00  0.00    +0.000 C 
ATOM      7  C   UNL     1       3.101   6.974  18.346  0.00  0.00    +0.000 C 
ATOM      8  C   UNL     1       2.416   7.430  19.677  0.00  0.00    +0.000 C 
ATOM      9  C   UNL     1       1.104   8.154  19.345  0.00  0.00    +0.000 C 
ATOM     10  O   UNL     1       4.567   7.076  18.505  0.00  0.00    +0.000 OA
ATOM     11  C   UNL     1       5.293   6.377  17.548  0.00  0.00    +0.000 A 
ATOM     12  C   UNL     1       6.467   6.915  17.054  0.00  0.00    +0.000 A 
ATOM     13  N   UNL     1       7.244   6.298  16.127  0.00  0.00    +0.000 NA
ATOM     14  C   UNL     1       6.842   5.081  15.697  0.00  0.00    +0.000 A 
ATOM     15  C   UNL     1       5.686   4.447  16.131  0.00  0.00    +0.000 A 
ATOM     16  C   UNL     1       4.892   5.124  17.050  0.00  0.00    +0.000 A 
ATOM     17  C   UNL     1       3.600   4.662  17.497  0.00  0.00    +0.000 A 
ATOM     18  N   UNL     1       3.098   3.397  17.561  0.00  0.00    +0.000 N 
ATOM     19  C   UNL     1       1.910   3.402  18.270  0.00  0.00    +0.000 A 
ATOM     20  C   UNL     1       1.614   4.741  18.536  0.00  0.00    +0.000 A 
ATOM     21  C   UNL     1       2.709   5.526  18.092  0.00  0.00    +0.000 A 
ATOM     22  H   UNL     1       3.560   2.545  17.264  0.00  0.00    +0.000 HD
ENDROOT
BRANCH  19  23
ATOM     23  C   UNL     1       1.238   2.186  18.657  0.00  0.00    +0.000 C 
ATOM     24  N   UNL     1       2.036   1.172  19.098  0.00  0.00    +0.000 N 
ATOM     25  O   UNL     1       0.026   2.031  18.571  0.00  0.00    +0.000 OA
ATOM     26  H   UNL     1       3.041   1.217  19.081  0.00  0.00    +0.000 HD
ATOM     27  H   UNL     1       1.595   0.284  19.290  0.00  0.00    +0.000 HD
ENDBRANCH  19  23
TORSDOF 1
ENDMDL
MODEL 6
REMARK VINA RESULT:      -6.8      1.910      5.626
REMARK  Name = 
REMARK  2 active torsions:
REMARK  status: ('A' for Active; 'I' for Inactive)
REMARK    1  A    between atoms: C_1  and  C_2
REMARK    2  A    between atoms: C_19  and  C_20
REMARK                            x       y       z     vdW  Elec       q    Type
REMARK                         _______ _______ _______ _____ _____    ______ ____
ROOT
ATOM      1  C   UNL     1       6.861   5.638  13.207  0.00  0.00    +0.000 C 
ATOM      2  C   UNL     1       6.598   4.641  14.312  0.00  0.00    +0.000 C 
ATOM      3  O   UNL     1       7.174   3.554  14.324  0.00  0.00    +0.000 OA
ATOM      4  N   UNL     1       5.604   4.969  15.223  0.00  0.00    +0.000 N 
ATOM      5  C   UNL     1       5.058   3.905  16.064  0.00  0.00    +0.000 C 
ATOM      6  C   UNL     1       3.813   4.412  16.812  0.00  0.00    +0.000 C 
ATOM      7  C   UNL     1       4.246   5.504  17.828  0.00  0.00    +0.000 C 
ATOM      8  C   UNL     1       5.486   6.277  17.269  0.00  0.00    +0.000 C 
ATOM      9  C   UNL     1       5.405   6.319  15.737  0.00  0.00    +0.000 C 
ATOM     10  O   UNL     1       4.659   4.744  19.028  0.00  0.00    +0.000 OA
ATOM     11  C   UNL     1       3.601   4.308  19.816  0.00  0.00    +0.000 A 
ATOM     12  C   UNL     1       3.669   3.068  20.423  0.00  0.00    +0.000 A 
ATOM     13  N   UNL     1       2.688   2.568  21.218  0.00  0.00    +0.000 NA
ATOM     14  C   UNL     1       1.608   3.352  21.434  0.00  0.00    +0.000 A 
ATOM     15  C   UNL     1       1.442   4.614  20.880  0.00  0.00    +0.000 A 
ATOM     16  C   UNL     1       2.446   5.080  20.039  0.00  0.00    +0.000 A 
ATOM     17  C   UNL     1       2.364   6.307  19.285  0.00  0.00    +0.000 A 
ATOM     18  N   UNL     1       1.650   7.441  19.535  0.00  0.00    +0.000 N 
ATOM     19  C   UNL     1       2.054   8.446  18.674  0.00  0.00    +0.000 A 
ATOM     20  C   UNL     1       2.957   7.863  17.782  0.00  0.00    +0.000 A 
ATOM     21  C   UNL     1       3.188   6.529  18.205  0.00  0.00    +0.000 A 
ATOM     22  H   UNL     1       1.012   7.599  20.307  0.00  0.00    +0.000 HD
ENDROOT
BRANCH  19  23
ATOM     23  C   UNL     1       1.607   9.810  18.819  0.00  0.00    +0.000 C 
ATOM     24  N   UNL     1       1.923  10.658  17.800  0.00  0.00    +0.000 N 
ATOM     25  O   UNL     1       1.007  10.220  19.806  0.00  0.00    +0.000 OA
ATOM     26  H   UNL     1       2.507  10.391  17.024  0.00  0.00    +0.000 HD
ATOM     27  H   UNL     1       1.696  11.634  17.921  0.00  0.00    +0.000 HD
ENDBRANCH  19  23
TORSDOF 1
ENDMDL
MODEL 7
REMARK VINA RESULT:      -6.6      2.101      5.910
REMARK  Name = 
REMARK  2 active torsions:
REMARK  status: ('A' for Active; 'I' for Inactive)
REMARK    1  A    between atoms: C_1  and  C_2
REMARK    2  A    between atoms: C_19  and  C_20
REMARK                            x       y       z     vdW  Elec       q    Type
REMARK                         _______ _______ _______ _____ _____    ______ ____
ROOT
ATOM      1  C   UNL     1       6.861   3.780  14.507  0.00  0.00    +0.000 C 
ATOM      2  C   UNL     1       6.120   5.082  14.701  0.00  0.00    +0.000 C 
ATOM      3  O   UNL     1       6.175   5.968  13.848  0.00  0.00    +0.000 OA
ATOM      4  N   UNL     1       5.485   5.261  15.922  0.00  0.00    +0.000 N 
ATOM      5  C   UNL     1       5.086   6.616  16.302  0.00  0.00    +0.000 C 
ATOM      6  C   UNL     1       4.637   6.638  17.773  0.00  0.00    +0.000 C 
ATOM      7  C   UNL     1       3.331   5.812  17.915  0.00  0.00    +0.000 C 
ATOM      8  C   UNL     1       3.330   4.650  16.866  0.00  0.00    +0.000 C 
ATOM      9  C   UNL     1       4.773   4.195  16.617  0.00  0.00    +0.000 C 
ATOM     10  O   UNL     1       2.255   6.766  17.571  0.00  0.00    +0.000 OA
ATOM     11  C   UNL     1       1.917   7.637  18.600  0.00  0.00    +0.000 A 
ATOM     12  C   UNL     1       1.597   8.949  18.306  0.00  0.00    +0.000 A 
ATOM     13  N   UNL     1       1.245   9.864  19.246  0.00  0.00    +0.000 NA
ATOM     14  C   UNL     1       1.186   9.440  20.528  0.00  0.00    +0.000 A 
ATOM     15  C   UNL     1       1.480   8.146  20.932  0.00  0.00    +0.000 A 
ATOM     16  C   UNL     1       1.876   7.244  19.950  0.00  0.00    +0.000 A 
ATOM     17  C   UNL     1       2.341   5.905  20.222  0.00  0.00    +0.000 A 
ATOM     18  N   UNL     1       2.070   5.082  21.275  0.00  0.00    +0.000 N 
ATOM     19  C   UNL     1       2.542   3.810  21.005  0.00  0.00    +0.000 A 
ATOM     20  C   UNL     1       3.239   3.895  19.797  0.00  0.00    +0.000 A 
ATOM     21  C   UNL     1       3.064   5.205  19.283  0.00  0.00    +0.000 A 
ATOM     22  H   UNL     1       1.500   5.300  22.084  0.00  0.00    +0.000 HD
ENDROOT
BRANCH  19  23
ATOM     23  C   UNL     1       2.244   2.683  21.854  0.00  0.00    +0.000 C 
ATOM     24  N   UNL     1       0.950   2.564  22.264  0.00  0.00    +0.000 N 
ATOM     25  O   UNL     1       3.093   1.882  22.230  0.00  0.00    +0.000 OA
ATOM     26  H   UNL     1       0.247   3.256  22.070  0.00  0.00    +0.000 HD
ATOM     27  H   UNL     1       0.740   1.833  22.929  0.00  0.00    +0.000 HD
ENDBRANCH  19  23
TORSDOF 1
ENDMDL
MODEL 8
REMARK VINA RESULT:      -6.5      7.295     12.121
REMARK  Name = 
REMARK  2 active torsions:
REMARK  status: ('A' for Active; 'I' for Inactive)
REMARK    1  A    between atoms: C_1  and  C_2
REMARK    2  A    between atoms: C_19  and  C_20
REMARK                            x       y       z     vdW  Elec       q    Type
REMARK                         _______ _______ _______ _____ _____    ______ ____
ROOT
ATOM      1  C   UNL     1      -0.821  10.229  18.144  0.00  0.00    +0.000 C 
ATOM      2  C   UNL     1      -0.112  11.289  18.954  0.00  0.00    +0.000 C 
ATOM      3  O   UNL     1       1.015  11.670  18.637  0.00  0.00    +0.000 OA
ATOM      4  N   UNL     1      -0.742  11.711  20.116  0.00  0.00    +0.000 N 
ATOM      5  C   UNL     1       0.051  12.433  21.110  0.00  0.00    +0.000 C 
ATOM      6  C   UNL     1      -0.752  12.587  22.413  0.00  0.00    +0.000 C 
ATOM      7  C   UNL     1      -1.963  13.523  22.151  0.00  0.00    +0.000 C 
ATOM      8  C   UNL     1      -2.443  13.357  20.671  0.00  0.00    +0.000 C 
ATOM      9  C   UNL     1      -2.182  11.915  20.216  0.00  0.00    +0.000 C 
ATOM     10  O   UNL     1      -1.417  14.886  22.325  0.00  0.00    +0.000 OA
ATOM     11  C   UNL     1      -1.288  15.281  23.652  0.00  0.00    +0.000 A 
ATOM     12  C   UNL     1      -0.199  16.042  24.034  0.00  0.00    +0.000 A 
ATOM     13  N   UNL     1       0.001  16.480  25.304  0.00  0.00    +0.000 NA
ATOM     14  C   UNL     1      -0.943  16.167  26.221  0.00  0.00    +0.000 A 
ATOM     15  C   UNL     1      -2.075  15.416  25.943  0.00  0.00    +0.000 A 
ATOM     16  C   UNL     1      -2.230  14.948  24.642  0.00  0.00    +0.000 A 
ATOM     17  C   UNL     1      -3.279  14.049  24.226  0.00  0.00    +0.000 A 
ATOM     18  N   UNL     1      -4.521  13.851  24.751  0.00  0.00    +0.000 N 
ATOM     19  C   UNL     1      -5.270  13.066  23.893  0.00  0.00    +0.000 A 
ATOM     20  C   UNL     1      -4.408  12.665  22.869  0.00  0.00    +0.000 A 
ATOM     21  C   UNL     1      -3.170  13.331  23.057  0.00  0.00    +0.000 A 
ATOM     22  H   UNL     1      -4.912  14.302  25.570  0.00  0.00    +0.000 HD
ENDROOT
BRANCH  19  23
ATOM     23  C   UNL     1      -6.680  12.837  24.092  0.00  0.00    +0.000 C 
ATOM     24  N   UNL     1      -7.402  13.896  24.555  0.00  0.00    +0.000 N 
ATOM     25  O   UNL     1      -7.219  11.754  23.899  0.00  0.00    +0.000 OA
ATOM     26  H   UNL     1      -6.983  14.769  24.830  0.00  0.00    +0.000 HD
ATOM     27  H   UNL     1      -8.372  13.732  24.784  0.00  0.00    +0.000 HD
ENDBRANCH  19  23
TORSDOF 1
ENDMDL
MODEL 9
REMARK VINA RESULT:      -6.5      8.099     10.688
REMARK  Name = 
REMARK  2 active torsions:
REMARK  status: ('A' for Active; 'I' for Inactive)
REMARK    1  A    between atoms: C_1  and  C_2
REMARK    2  A    between atoms: C_19  and  C_20
REMARK                            x       y       z     vdW  Elec       q    Type
REMARK                         _______ _______ _______ _____ _____    ______ ____
ROOT
ATOM      1  C   UNL     1       3.498  14.134  20.921  0.00  0.00    +0.000 C 
ATOM      2  C   UNL     1       2.694  13.626  19.747  0.00  0.00    +0.000 C 
ATOM      3  O   UNL     1       3.241  13.376  18.674  0.00  0.00    +0.000 OA
ATOM      4  N   UNL     1       1.317  13.573  19.912  0.00  0.00    +0.000 N 
ATOM      5  C   UNL     1       0.481  13.457  18.718  0.00  0.00    +0.000 C 
ATOM      6  C   UNL     1      -0.997  13.666  19.088  0.00  0.00    +0.000 C 
ATOM      7  C   UNL     1      -1.464  12.489  19.985  0.00  0.00    +0.000 C 
ATOM      8  C   UNL     1      -0.261  11.975  20.844  0.00  0.00    +0.000 C 
ATOM      9  C   UNL     1       0.676  13.150  21.152  0.00  0.00    +0.000 C 
ATOM     10  O   UNL     1      -1.853  11.431  19.028  0.00  0.00    +0.000 OA
ATOM     11  C   UNL     1      -3.110  11.611  18.462  0.00  0.00    +0.000 A 
ATOM     12  C   UNL     1      -3.313  11.281  17.135  0.00  0.00    +0.000 A 
ATOM     13  N   UNL     1      -4.509  11.414  16.504  0.00  0.00    +0.000 NA
ATOM     14  C   UNL     1      -5.547  11.870  17.240  0.00  0.00    +0.000 A 
ATOM     15  C   UNL     1      -5.455  12.222  18.578  0.00  0.00    +0.000 A 
ATOM     16  C   UNL     1      -4.208  12.113  19.184  0.00  0.00    +0.000 A 
ATOM     17  C   UNL     1      -3.917  12.562  20.524  0.00  0.00    +0.000 A 
ATOM     18  N   UNL     1      -4.745  12.705  21.597  0.00  0.00    +0.000 N 
ATOM     19  C   UNL     1      -3.996  12.938  22.736  0.00  0.00    +0.000 A 
ATOM     20  C   UNL     1      -2.670  13.070  22.317  0.00  0.00    +0.000 A 
ATOM     21  C   UNL     1      -2.620  12.780  20.930  0.00  0.00    +0.000 A 
ATOM     22  H   UNL     1      -5.745  12.540  21.618  0.00  0.00    +0.000 HD
ENDROOT
BRANCH  19  23
ATOM     23  C   UNL     1      -4.582  12.951  24.054  0.00  0.00    +0.000 C 
ATOM     24  N   UNL     1      -4.909  14.175  24.555  0.00  0.00    +0.000 N 
ATOM     25  O   UNL     1      -4.754  11.939  24.723  0.00  0.00    +0.000 OA
ATOM     26  H   UNL     1      -4.685  15.038  24.088  0.00  0.00    +0.000 HD
ATOM     27  H   UNL     1      -5.238  14.213  25.509  0.00  0.00    +0.000 HD
ENDBRANCH  19  23
TORSDOF 1
ENDMDL
