MODEL 1
REMARK VINA RESULT:      -8.0      0.000      0.000
REMARK  Name = 
REMARK  4 active torsions:
REMARK  status: ('A' for Active; 'I' for Inactive)
REMARK    1  A    between atoms: N_3  and  C_4
REMARK    2  A    between atoms: C_4  and  C_5
REMARK    3  A    between atoms: C_5  and  C_6
REMARK    4  A    between atoms: C_6  and  C_8
REMARK                            x       y       z     vdW  Elec       q    Type
REMARK                         _______ _______ _______ _____ _____    ______ ____
ROOT
ATOM      1  O   UNL     1       7.254   7.121  17.629  0.00  0.00    +0.000 OA
ATOM      2  C   UNL     1       6.719   6.308  16.878  0.00  0.00    +0.000 C 
ATOM      3  N   UNL     1       5.515   5.735  17.129  0.00  0.00    +0.000 N 
ATOM      4  N   UNL     1       7.330   5.964  15.710  0.00  0.00    +0.000 N 
ATOM      5  C   UNL     1       6.869   5.111  14.696  0.00  0.00    +0.000 A 
ATOM      6  C   UNL     1       7.654   4.956  13.561  0.00  0.00    +0.000 A 
ATOM      7  C   UNL     1       7.187   4.151  12.518  0.00  0.00    +0.000 A 
ATOM      8  C   UNL     1       5.956   3.522  12.646  0.00  0.00    +0.000 A 
ATOM      9 BR   UNL     1       5.260   2.462  11.253  0.00  0.00    +0.000 Br
ATOM     10  C   UNL     1       5.248   3.704  13.818  0.00  0.00    +0.000 A 
ATOM     11  N   UNL     1       5.682   4.481  14.838  0.00  0.00    +0.000 NA
ATOM     12  H   UNL     1       5.352   4.880  16.594  0.00  0.00    +0.000 HD
ATOM     13  H   UNL     1       8.211   6.436  15.573  0.00  0.00    +0.000 HD
ENDROOT
BRANCH   3  14
ATOM     14  C   UNL     1       4.792   5.868  18.371  0.00  0.00    +0.000 C 
BRANCH  14  15
ATOM     15  C   UNL     1       3.468   6.603  18.172  0.00  0.00    +0.000 C 
BRANCH  15  16
ATOM     16  C   UNL     1       2.508   6.422  19.337  0.00  0.00    +0.000 C 
ATOM     17  O   UNL     1       2.055   7.376  19.969  0.00  0.00    +0.000 OA
BRANCH  16  18
ATOM     18  C   UNL     1       2.093   5.048  19.745  0.00  0.00    +0.000 A 
ATOM     19  C   UNL     1       2.356   4.640  21.064  0.00  0.00    +0.000 A 
ATOM     20  C   UNL     1       1.967   3.375  21.512  0.00  0.00    +0.000 A 
ATOM     21  C   UNL     1       1.312   2.502  20.647  0.00  0.00    +0.000 A 
ATOM     22  C   UNL     1       1.054   2.893  19.334  0.00  0.00    +0.000 A 
ATOM     23  C   UNL     1       1.446   4.156  18.890  0.00  0.00    +0.000 A 
ATOM     24  F   UNL     1       1.168   4.476  17.619  0.00  0.00    +0.000 F 
ENDBRANCH  16  18
ENDBRANCH  15  16
ENDBRANCH  14  15
ENDBRANCH   3  14
TORSDOF 4
ENDMDL
MODEL 2
REMARK VINA RESULT:      -7.9      4.222      6.065
REMARK  Name = 
REMARK  4 active torsions:
REMARK  status: ('A' for Active; 'I' for Inactive)
REMARK    1  A    between atoms: N_3  and  C_4
REMARK    2  A    between atoms: C_4  and  C_5
REMARK    3  A    between atoms: C_5  and  C_6
REMARK    4  A    between atoms: C_6  and  C_8
REMARK                            x       y       z     vdW  Elec       q    Type
REMARK                         _______ _______ _______ _____ _____    ______ ____
ROOT
ATOM      1  O   UNL     1       4.812   6.776  16.314  0.00  0.00    +0.000 OA
ATOM      2  C   UNL     1       4.128   6.830  17.334  0.00  0.00    +0.000 C 
ATOM      3  N   UNL     1       4.235   5.946  18.358  0.00  0.00    +0.000 N 
ATOM      4  N   UNL     1       3.222   7.837  17.487  0.00  0.00    +0.000 N 
ATOM      5  C   UNL     1       2.394   8.114  18.584  0.00  0.00    +0.000 A 
ATOM      6  C   UNL     1       1.585   9.241  18.528  0.00  0.00    +0.000 A 
ATOM      7  C   UNL     1       0.791   9.563  19.633  0.00  0.00    +0.000 A 
ATOM      8  C   UNL     1       0.826   8.744  20.754  0.00  0.00    +0.000 A 
ATOM      9 BR   UNL     1      -0.190   9.155  22.286  0.00  0.00    +0.000 Br
ATOM     10  C   UNL     1       1.636   7.626  20.721  0.00  0.00    +0.000 A 
ATOM     11  N   UNL     1       2.413   7.299  19.662  0.00  0.00    +0.000 NA
ATOM     12  H   UNL     1       3.419   5.934  18.972  0.00  0.00    +0.000 HD
ATOM     13  H   UNL     1       3.202   8.470  16.701  0.00  0.00    +0.000 HD
ENDROOT
BRANCH   3  14
ATOM     14  C   UNL     1       5.032   4.743  18.315  0.00  0.00    +0.000 C 
BRANCH  14  15
ATOM     15  C   UNL     1       4.464   3.731  17.322  0.00  0.00    +0.000 C 
BRANCH  15  16
ATOM     16  C   UNL     1       3.709   2.597  17.997  0.00  0.00    +0.000 C 
ATOM     17  O   UNL     1       3.786   1.433  17.607  0.00  0.00    +0.000 OA
BRANCH  16  18
ATOM     18  C   UNL     1       2.835   2.888  19.171  0.00  0.00    +0.000 A 
ATOM     19  C   UNL     1       3.254   2.444  20.437  0.00  0.00    +0.000 A 
ATOM     20  C   UNL     1       2.491   2.711  21.576  0.00  0.00    +0.000 A 
ATOM     21  C   UNL     1       1.298   3.423  21.465  0.00  0.00    +0.000 A 
ATOM     22  C   UNL     1       0.869   3.860  20.213  0.00  0.00    +0.000 A 
ATOM     23  C   UNL     1       1.632   3.590  19.077  0.00  0.00    +0.000 A 
ATOM     24  F   UNL     1       1.170   4.038  17.902  0.00  0.00    +0.000 F 
ENDBRANCH  16  18
ENDBRANCH  15  16
ENDBRANCH  14  15
ENDBRANCH   3  14
TORSDOF 4
ENDMDL
MODEL 3
REMARK VINA RESULT:      -7.8      1.024      1.144
REMARK  Name = 
REMARK  4 active torsions:
REMARK  status: ('A' for Active; 'I' for Inactive)
REMARK    1  A    between atoms: N_3  and  C_4
REMARK    2  A    between atoms: C_4  and  C_5
REMARK    3  A    between atoms: C_5  and  C_6
REMARK    4  A    between atoms: C_6  and  C_8
REMARK                            x       y       z     vdW  Elec       q    Type
REMARK                         _______ _______ _______ _____ _____    ______ ____
ROOT
ATOM      1  O   UNL     1       7.652   6.731  17.859  0.00  0.00    +0.000 OA
ATOM      2  C   UNL     1       7.147   5.904  17.104  0.00  0.00    +0.000 C 
ATOM      3  N   UNL     1       6.169   5.042  17.482  0.00  0.00    +0.000 N 
ATOM      4  N   UNL     1       7.549   5.841  15.804  0.00  0.00    +0.000 N 
ATOM      5  C   UNL     1       7.067   5.021  14.774  0.00  0.00    +0.000 A 
ATOM      6  C   UNL     1       7.604   5.179  13.503  0.00  0.00    +0.000 A 
ATOM      7  C   UNL     1       7.099   4.407  12.452  0.00  0.00    +0.000 A 
ATOM      8  C   UNL     1       6.081   3.498  12.707  0.00  0.00    +0.000 A 
ATOM      9 BR   UNL     1       5.335   2.465  11.319  0.00  0.00    +0.000 Br
ATOM     10  C   UNL     1       5.619   3.381  14.003  0.00  0.00    +0.000 A 
ATOM     11  N   UNL     1       6.093   4.120  15.034  0.00  0.00    +0.000 NA
ATOM     12  H   UNL     1       6.073   4.237  16.860  0.00  0.00    +0.000 HD
ATOM     13  H   UNL     1       8.265   6.517  15.581  0.00  0.00    +0.000 HD
ENDROOT
BRANCH   3  14
ATOM     14  C   UNL     1       5.718   4.866  18.842  0.00  0.00    +0.000 C 
BRANCH  14  15
ATOM     15  C   UNL     1       4.784   5.995  19.271  0.00  0.00    +0.000 C 
BRANCH  15  16
ATOM     16  C   UNL     1       3.412   5.910  18.623  0.00  0.00    +0.000 C 
ATOM     17  O   UNL     1       2.994   6.774  17.852  0.00  0.00    +0.000 OA
BRANCH  16  18
ATOM     18  C   UNL     1       2.525   4.748  18.922  0.00  0.00    +0.000 A 
ATOM     19  C   UNL     1       1.818   4.748  20.137  0.00  0.00    +0.000 A 
ATOM     20  C   UNL     1       0.953   3.700  20.460  0.00  0.00    +0.000 A 
ATOM     21  C   UNL     1       0.783   2.638  19.574  0.00  0.00    +0.000 A 
ATOM     22  C   UNL     1       1.486   2.624  18.370  0.00  0.00    +0.000 A 
ATOM     23  C   UNL     1       2.351   3.670  18.052  0.00  0.00    +0.000 A 
ATOM     24  F   UNL     1       2.997   3.602  16.880  0.00  0.00    +0.000 F 
ENDBRANCH  16  18
ENDBRANCH  15  16
ENDBRANCH  14  15
ENDBRANCH   3  14
TORSDOF 4
ENDMDL
MODEL 4
REMARK VINA RESULT:      -7.8      4.307      5.923
REMARK  Name = 
REMARK  4 active torsions:
REMARK  status: ('A' for Active; 'I' for Inactive)
REMARK    1  A    between atoms: N_3  and  C_4
REMARK    2  A    between atoms: C_4  and  C_5
REMARK    3  A    between atoms: C_5  and  C_6
REMARK    4  A    between atoms: C_6  and  C_8
REMARK                            x       y       z     vdW  Elec       q    Type
REMARK                         _______ _______ _______ _____ _____    ______ ____
ROOT
ATOM      1  O   UNL     1       4.941   6.626  16.001  0.00  0.00    +0.000 OA
ATOM      2  C   UNL     1       4.251   6.685  17.016  0.00  0.00    +0.000 C 
ATOM      3  N   UNL     1       4.298   5.762  18.010  0.00  0.00    +0.000 N 
ATOM      4  N   UNL     1       3.402   7.736  17.195  0.00  0.00    +0.000 N 
ATOM      5  C   UNL     1       2.579   8.022  18.294  0.00  0.00    +0.000 A 
ATOM      6  C   UNL     1       1.835   9.195  18.269  0.00  0.00    +0.000 A 
ATOM      7  C   UNL     1       1.049   9.523  19.377  0.00  0.00    +0.000 A 
ATOM      8  C   UNL     1       1.026   8.667  20.470  0.00  0.00    +0.000 A 
ATOM      9 BR   UNL     1       0.018   9.084  22.006  0.00  0.00    +0.000 Br
ATOM     10  C   UNL     1       1.773   7.507  20.406  0.00  0.00    +0.000 A 
ATOM     11  N   UNL     1       2.541   7.172  19.343  0.00  0.00    +0.000 NA
ATOM     12  H   UNL     1       3.476   5.775  18.617  0.00  0.00    +0.000 HD
ATOM     13  H   UNL     1       3.426   8.394  16.431  0.00  0.00    +0.000 HD
ENDROOT
BRANCH   3  14
ATOM     14  C   UNL     1       5.026   4.518  17.934  0.00  0.00    +0.000 C 
BRANCH  14  15
ATOM     15  C   UNL     1       5.488   4.055  19.314  0.00  0.00    +0.000 C 
BRANCH  15  16
ATOM     16  C   UNL     1       4.680   2.883  19.848  0.00  0.00    +0.000 C 
ATOM     17  O   UNL     1       5.211   1.899  20.363  0.00  0.00    +0.000 OA
BRANCH  16  18
ATOM     18  C   UNL     1       3.192   2.906  19.747  0.00  0.00    +0.000 A 
ATOM     19  C   UNL     1       2.474   3.651  20.698  0.00  0.00    +0.000 A 
ATOM     20  C   UNL     1       1.080   3.732  20.640  0.00  0.00    +0.000 A 
ATOM     21  C   UNL     1       0.386   3.067  19.630  0.00  0.00    +0.000 A 
ATOM     22  C   UNL     1       1.088   2.318  18.688  0.00  0.00    +0.000 A 
ATOM     23  C   UNL     1       2.479   2.238  18.750  0.00  0.00    +0.000 A 
ATOM     24  F   UNL     1       3.098   1.505  17.815  0.00  0.00    +0.000 F 
ENDBRANCH  16  18
ENDBRANCH  15  16
ENDBRANCH  14  15
ENDBRANCH   3  14
TORSDOF 4
ENDMDL
MODEL 5
REMARK VINA RESULT:      -7.8      3.286      4.545
REMARK  Name = 
REMARK  4 active torsions:
REMARK  status: ('A' for Active; 'I' for Inactive)
REMARK    1  A    between atoms: N_3  and  C_4
REMARK    2  A    between atoms: C_4  and  C_5
REMARK    3  A    between atoms: C_5  and  C_6
REMARK    4  A    between atoms: C_6  and  C_8
REMARK                            x       y       z     vdW  Elec       q    Type
REMARK                         _______ _______ _______ _____ _____    ______ ____
ROOT
ATOM      1  O   UNL     1       3.439   1.289  18.172  0.00  0.00    +0.000 OA
ATOM      2  C   UNL     1       3.991   2.363  18.396  0.00  0.00    +0.000 C 
ATOM      3  N   UNL     1       4.062   2.928  19.629  0.00  0.00    +0.000 N 
ATOM      4  N   UNL     1       4.599   3.037  17.379  0.00  0.00    +0.000 N 
ATOM      5  C   UNL     1       5.327   4.234  17.431  0.00  0.00    +0.000 A 
ATOM      6  C   UNL     1       5.906   4.701  16.258  0.00  0.00    +0.000 A 
ATOM      7  C   UNL     1       6.679   5.865  16.299  0.00  0.00    +0.000 A 
ATOM      8  C   UNL     1       6.843   6.527  17.508  0.00  0.00    +0.000 A 
ATOM      9 BR   UNL     1       7.911   8.074  17.628  0.00  0.00    +0.000 Br
ATOM     10  C   UNL     1       6.213   6.013  18.625  0.00  0.00    +0.000 A 
ATOM     11  N   UNL     1       5.462   4.887  18.606  0.00  0.00    +0.000 NA
ATOM     12  H   UNL     1       4.267   3.928  19.607  0.00  0.00    +0.000 HD
ATOM     13  H   UNL     1       4.526   2.559  16.494  0.00  0.00    +0.000 HD
ENDROOT
BRANCH   3  14
ATOM     14  C   UNL     1       3.361   2.436  20.791  0.00  0.00    +0.000 C 
BRANCH  14  15
ATOM     15  C   UNL     1       2.383   3.474  21.336  0.00  0.00    +0.000 C 
BRANCH  15  16
ATOM     16  C   UNL     1       1.465   4.042  20.265  0.00  0.00    +0.000 C 
ATOM     17  O   UNL     1       0.508   3.411  19.817  0.00  0.00    +0.000 OA
BRANCH  16  18
ATOM     18  C   UNL     1       1.721   5.409  19.723  0.00  0.00    +0.000 A 
ATOM     19  C   UNL     1       1.689   6.493  20.616  0.00  0.00    +0.000 A 
ATOM     20  C   UNL     1       1.947   7.793  20.172  0.00  0.00    +0.000 A 
ATOM     21  C   UNL     1       2.239   8.024  18.829  0.00  0.00    +0.000 A 
ATOM     22  C   UNL     1       2.264   6.957  17.933  0.00  0.00    +0.000 A 
ATOM     23  C   UNL     1       2.003   5.661  18.380  0.00  0.00    +0.000 A 
ATOM     24  F   UNL     1       2.044   4.675  17.473  0.00  0.00    +0.000 F 
ENDBRANCH  16  18
ENDBRANCH  15  16
ENDBRANCH  14  15
ENDBRANCH   3  14
TORSDOF 4
ENDMDL
MODEL 6
REMARK VINA RESULT:      -7.7      3.831      6.878
REMARK  Name = 
REMARK  4 active torsions:
REMARK  status: ('A' for Active; 'I' for Inactive)
REMARK    1  A    between atoms: N_3  and  C_4
REMARK    2  A    between atoms: C_4  and  C_5
REMARK    3  A    between atoms: C_5  and  C_6
REMARK    4  A    between atoms: C_6  and  C_8
REMARK                            x       y       z     vdW  Elec       q    Type
REMARK                         _______ _______ _______ _____ _____    ______ ____
ROOT
ATOM      1  O   UNL     1       2.035   2.496  21.957  0.00  0.00    +0.000 OA
ATOM      2  C   UNL     1       2.154   3.355  21.086  0.00  0.00    +0.000 C 
ATOM      3  N   UNL     1       2.406   3.073  19.783  0.00  0.00    +0.000 N 
ATOM      4  N   UNL     1       2.002   4.671  21.409  0.00  0.00    +0.000 N 
ATOM      5  C   UNL     1       2.039   5.791  20.567  0.00  0.00    +0.000 A 
ATOM      6  C   UNL     1       1.800   7.040  21.126  0.00  0.00    +0.000 A 
ATOM      7  C   UNL     1       1.780   8.163  20.294  0.00  0.00    +0.000 A 
ATOM      8  C   UNL     1       2.006   8.004  18.934  0.00  0.00    +0.000 A 
ATOM      9 BR   UNL     1       1.947   9.477  17.762  0.00  0.00    +0.000 Br
ATOM     10  C   UNL     1       2.263   6.732  18.459  0.00  0.00    +0.000 A 
ATOM     11  N   UNL     1       2.285   5.632  19.249  0.00  0.00    +0.000 NA
ATOM     12  H   UNL     1       2.774   3.868  19.258  0.00  0.00    +0.000 HD
ATOM     13  H   UNL     1       1.800   4.814  22.388  0.00  0.00    +0.000 HD
ENDROOT
BRANCH   3  14
ATOM     14  C   UNL     1       2.733   1.759  19.283  0.00  0.00    +0.000 C 
BRANCH  14  15
ATOM     15  C   UNL     1       3.711   1.834  18.112  0.00  0.00    +0.000 C 
BRANCH  15  16
ATOM     16  C   UNL     1       3.564   3.110  17.298  0.00  0.00    +0.000 C 
ATOM     17  O   UNL     1       2.491   3.454  16.804  0.00  0.00    +0.000 OA
BRANCH  16  18
ATOM     18  C   UNL     1       4.753   3.984  17.075  0.00  0.00    +0.000 A 
ATOM     19  C   UNL     1       5.105   4.299  15.752  0.00  0.00    +0.000 A 
ATOM     20  C   UNL     1       6.192   5.135  15.481  0.00  0.00    +0.000 A 
ATOM     21  C   UNL     1       6.941   5.664  16.530  0.00  0.00    +0.000 A 
ATOM     22  C   UNL     1       6.606   5.350  17.846  0.00  0.00    +0.000 A 
ATOM     23  C   UNL     1       5.521   4.514  18.112  0.00  0.00    +0.000 A 
ATOM     24  F   UNL     1       5.246   4.250  19.396  0.00  0.00    +0.000 F 
ENDBRANCH  16  18
ENDBRANCH  15  16
ENDBRANCH  14  15
ENDBRANCH   3  14
TORSDOF 4
ENDMDL
MODEL 7
REMARK VINA RESULT:      -7.7      4.230      5.886
REMARK  Name = 
REMARK  4 active torsions:
REMARK  status: ('A' for Active; 'I' for Inactive)
REMARK    1  A    between atoms: N_3  and  C_4
REMARK    2  A    between atoms: C_4  and  C_5
REMARK    3  A    between atoms: C_5  and  C_6
REMARK    4  A    between atoms: C_6  and  C_8
REMARK                            x       y       z     vdW  Elec       q    Type
REMARK                         _______ _______ _______ _____ _____    ______ ____
ROOT
ATOM      1  O   UNL     1       5.161   6.587  16.094  0.00  0.00    +0.000 OA
ATOM      2  C   UNL     1       4.425   6.691  17.072  0.00  0.00    +0.000 C 
ATOM      3  N   UNL     1       4.439   5.826  18.118  0.00  0.00    +0.000 N 
ATOM      4  N   UNL     1       3.555   7.737  17.156  0.00  0.00    +0.000 N 
ATOM      5  C   UNL     1       2.680   8.071  18.199  0.00  0.00    +0.000 A 
ATOM      6  C   UNL     1       1.923   9.229  18.076  0.00  0.00    +0.000 A 
ATOM      7  C   UNL     1       1.083   9.606  19.129  0.00  0.00    +0.000 A 
ATOM      8  C   UNL     1       1.023   8.811  20.266  0.00  0.00    +0.000 A 
ATOM      9 BR   UNL     1      -0.058   9.296  21.730  0.00  0.00    +0.000 Br
ATOM     10  C   UNL     1       1.787   7.660  20.300  0.00  0.00    +0.000 A 
ATOM     11  N   UNL     1       2.607   7.279  19.292  0.00  0.00    +0.000 NA
ATOM     12  H   UNL     1       3.591   5.860  18.686  0.00  0.00    +0.000 HD
ATOM     13  H   UNL     1       3.604   8.353  16.357  0.00  0.00    +0.000 HD
ENDROOT
BRANCH   3  14
ATOM     14  C   UNL     1       5.186   4.591  18.144  0.00  0.00    +0.000 C 
BRANCH  14  15
ATOM     15  C   UNL     1       4.557   3.538  17.235  0.00  0.00    +0.000 C 
BRANCH  15  16
ATOM     16  C   UNL     1       3.105   3.246  17.582  0.00  0.00    +0.000 C 
ATOM     17  O   UNL     1       2.254   3.030  16.720  0.00  0.00    +0.000 OA
BRANCH  16  18
ATOM     18  C   UNL     1       2.679   3.222  19.012  0.00  0.00    +0.000 A 
ATOM     19  C   UNL     1       1.555   3.981  19.382  0.00  0.00    +0.000 A 
ATOM     20  C   UNL     1       1.093   3.976  20.700  0.00  0.00    +0.000 A 
ATOM     21  C   UNL     1       1.748   3.215  21.666  0.00  0.00    +0.000 A 
ATOM     22  C   UNL     1       2.869   2.467  21.311  0.00  0.00    +0.000 A 
ATOM     23  C   UNL     1       3.330   2.475  19.995  0.00  0.00    +0.000 A 
ATOM     24  F   UNL     1       4.410   1.734  19.714  0.00  0.00    +0.000 F 
ENDBRANCH  16  18
ENDBRANCH  15  16
ENDBRANCH  14  15
ENDBRANCH   3  14
TORSDOF 4
ENDMDL
MODEL 8
REMARK VINA RESULT:      -7.6      1.900      2.823
REMARK  Name = 
REMARK  4 active torsions:
REMARK  status: ('A' for Active; 'I' for Inactive)
REMARK    1  A    between atoms: N_3  and  C_4
REMARK    2  A    between atoms: C_4  and  C_5
REMARK    3  A    between atoms: C_5  and  C_6
REMARK    4  A    between atoms: C_6  and  C_8
REMARK                            x       y       z     vdW  Elec       q    Type
REMARK                         _______ _______ _______ _____ _____    ______ ____
ROOT
ATOM      1  O   UNL     1       6.423   5.149  19.945  0.00  0.00    +0.000 OA
ATOM      2  C   UNL     1       6.158   4.620  18.869  0.00  0.00    +0.000 C 
ATOM      3  N   UNL     1       5.227   3.643  18.722  0.00  0.00    +0.000 N 
ATOM      4  N   UNL     1       6.795   5.034  17.737  0.00  0.00    +0.000 N 
ATOM      5  C   UNL     1       6.601   4.609  16.415  0.00  0.00    +0.000 A 
ATOM      6  C   UNL     1       7.340   5.224  15.413  0.00  0.00    +0.000 A 
ATOM      7  C   UNL     1       7.123   4.850  14.083  0.00  0.00    +0.000 A 
ATOM      8  C   UNL     1       6.180   3.871  13.799  0.00  0.00    +0.000 A 
ATOM      9 BR   UNL     1       5.817   3.362  12.022  0.00  0.00    +0.000 Br
ATOM     10  C   UNL     1       5.506   3.289  14.854  0.00  0.00    +0.000 A 
ATOM     11  N   UNL     1       5.700   3.637  16.148  0.00  0.00    +0.000 NA
ATOM     12  H   UNL     1       5.335   3.105  17.861  0.00  0.00    +0.000 HD
ATOM     13  H   UNL     1       7.461   5.772  17.909  0.00  0.00    +0.000 HD
ENDROOT
BRANCH   3  14
ATOM     14  C   UNL     1       4.557   2.984  19.817  0.00  0.00    +0.000 C 
BRANCH  14  15
ATOM     15  C   UNL     1       3.151   2.536  19.425  0.00  0.00    +0.000 C 
BRANCH  15  16
ATOM     16  C   UNL     1       2.067   3.475  19.931  0.00  0.00    +0.000 C 
ATOM     17  O   UNL     1       1.139   3.086  20.640  0.00  0.00    +0.000 OA
BRANCH  16  18
ATOM     18  C   UNL     1       2.110   4.919  19.560  0.00  0.00    +0.000 A 
ATOM     19  C   UNL     1       1.942   5.872  20.579  0.00  0.00    +0.000 A 
ATOM     20  C   UNL     1       1.999   7.239  20.297  0.00  0.00    +0.000 A 
ATOM     21  C   UNL     1       2.223   7.671  18.992  0.00  0.00    +0.000 A 
ATOM     22  C   UNL     1       2.382   6.735  17.971  0.00  0.00    +0.000 A 
ATOM     23  C   UNL     1       2.322   5.371  18.256  0.00  0.00    +0.000 A 
ATOM     24  F   UNL     1       2.485   4.519  17.235  0.00  0.00    +0.000 F 
ENDBRANCH  16  18
ENDBRANCH  15  16
ENDBRANCH  14  15
ENDBRANCH   3  14
TORSDOF 4
ENDMDL
MODEL 9
REMARK VINA RESULT:      -7.6      1.194      1.582
REMARK  Name = 
REMARK  4 active torsions:
REMARK  status: ('A' for Active; 'I' for Inactive)
REMARK    1  A    between atoms: N_3  and  C_4
REMARK    2  A    between atoms: C_4  and  C_5
REMARK    3  A    between atoms: C_5  and  C_6
REMARK    4  A    between atoms: C_6  and  C_8
REMARK                            x       y       z     vdW  Elec       q    Type
REMARK                         _______ _______ _______ _____ _____    ______ ____
ROOT
ATOM      1  O   UNL     1       7.621   6.832  17.942  0.00  0.00    +0.000 OA
ATOM      2  C   UNL     1       7.095   6.016  17.189  0.00  0.00    +0.000 C 
ATOM      3  N   UNL     1       6.063   5.214  17.554  0.00  0.00    +0.000 N 
ATOM      4  N   UNL     1       7.530   5.906  15.902  0.00  0.00    +0.000 N 
ATOM      5  C   UNL     1       7.034   5.091  14.875  0.00  0.00    +0.000 A 
ATOM      6  C   UNL     1       7.614   5.194  13.617  0.00  0.00    +0.000 A 
ATOM      7  C   UNL     1       7.099   4.428  12.567  0.00  0.00    +0.000 A 
ATOM      8  C   UNL     1       6.028   3.578  12.809  0.00  0.00    +0.000 A 
ATOM      9 BR   UNL     1       5.269   2.557  11.421  0.00  0.00    +0.000 Br
ATOM     10  C   UNL     1       5.525   3.512  14.094  0.00  0.00    +0.000 A 
ATOM     11  N   UNL     1       6.008   4.247  15.123  0.00  0.00    +0.000 NA
ATOM     12  H   UNL     1       5.943   4.403  16.946  0.00  0.00    +0.000 HD
ATOM     13  H   UNL     1       8.286   6.539  15.688  0.00  0.00    +0.000 HD
ENDROOT
BRANCH   3  14
ATOM     14  C   UNL     1       5.565   5.091  18.904  0.00  0.00    +0.000 C 
BRANCH  14  15
ATOM     15  C   UNL     1       4.621   6.237  19.259  0.00  0.00    +0.000 C 
BRANCH  15  16
ATOM     16  C   UNL     1       3.256   6.106  18.602  0.00  0.00    +0.000 C 
ATOM     17  O   UNL     1       2.824   6.943  17.810  0.00  0.00    +0.000 OA
BRANCH  16  18
ATOM     18  C   UNL     1       2.394   4.930  18.920  0.00  0.00    +0.000 A 
ATOM     19  C   UNL     1       2.253   3.927  17.945  0.00  0.00    +0.000 A 
ATOM     20  C   UNL     1       1.480   2.791  18.196  0.00  0.00    +0.000 A 
ATOM     21  C   UNL     1       0.837   2.643  19.423  0.00  0.00    +0.000 A 
ATOM     22  C   UNL     1       0.962   3.636  20.393  0.00  0.00    +0.000 A 
ATOM     23  C   UNL     1       1.733   4.771  20.139  0.00  0.00    +0.000 A 
ATOM     24  F   UNL     1       1.818   5.689  21.110  0.00  0.00    +0.000 F 
ENDBRANCH  16  18
ENDBRANCH  15  16
ENDBRANCH  14  15
ENDBRANCH   3  14
TORSDOF 4
ENDMDL
