MODEL 1
REMARK VINA RESULT:      -7.4      0.000      0.000
REMARK  Name = 
REMARK  11 active torsions:
REMARK  status: ('A' for Active; 'I' for Inactive)
REMARK    1  A    between atoms: C_1  and  C_2
REMARK    2  A    between atoms: C_4  and  N_5
REMARK    3  A    between atoms: S_6  and  C_7
REMARK    4  A    between atoms: S_6  and  C_8
REMARK    5  A    between atoms: N_16  and  C_17
REMARK    6  A    between atoms: C_23  and  O_24
REMARK    7  A    between atoms: O_24  and  C_25
REMARK    8  A    between atoms: C_25  and  C_26
REMARK    9  A    between atoms: C_25  and  C_27
REMARK   10  A    between atoms: N_29  and  C_30
REMARK   11  A    between atoms: N_29  and  C_31
REMARK                            x       y       z     vdW  Elec       q    Type
REMARK                         _______ _______ _______ _____ _____    ______ ____
ROOT
ATOM      1  C   UNL     1       2.153   9.441  17.486  0.00  0.00    +0.000 C 
ATOM      2  C   UNL     1       1.928   8.540  18.671  0.00  0.00    +0.000 A 
ATOM      3  C   UNL     1       2.334   7.205  18.531  0.00  0.00    +0.000 A 
ATOM      4  C   UNL     1       2.263   6.319  19.595  0.00  0.00    +0.000 A 
ATOM      5  C   UNL     1       1.681   6.745  20.786  0.00  0.00    +0.000 A 
ATOM      6  C   UNL     1       1.236   8.045  20.963  0.00  0.00    +0.000 A 
ATOM      7  N   UNL     1       0.726   8.329  22.163  0.00  0.00    +0.000 NA
ATOM      8  C   UNL     1       0.293   9.576  22.354  0.00  0.00    +0.000 A 
ATOM      9  N   UNL     1       0.322  10.553  21.456  0.00  0.00    +0.000 NA
ATOM     10  C   UNL     1       0.925  10.286  20.285  0.00  0.00    +0.000 A 
ATOM     11  N   UNL     1       1.145  11.349  19.361  0.00  0.00    +0.000 N 
ATOM     12  C   UNL     1       1.373   8.982  19.927  0.00  0.00    +0.000 A 
ATOM     13  H   UNL     1       2.155  11.361  19.223  0.00  0.00    +0.000 HD
ENDROOT
BRANCH  11  14
ATOM     14  C   UNL     1       0.765  12.712  19.487  0.00  0.00    +0.000 A 
ATOM     15  C   UNL     1       1.574  13.488  20.339  0.00  0.00    +0.000 A 
ATOM     16  C   UNL     1       1.253  14.811  20.611  0.00  0.00    +0.000 A 
ATOM     17  C   UNL     1       0.109  15.352  20.047  0.00  0.00    +0.000 A 
ATOM     18  F   UNL     1      -0.190  16.636  20.278  0.00  0.00    +0.000 F 
ATOM     19  C   UNL     1      -0.744  14.587  19.249  0.00  0.00    +0.000 A 
ATOM     20  C   UNL     1      -0.443  13.250  18.986  0.00  0.00    +0.000 A 
BRANCH  20  21
ATOM     21  O   UNL     1      -1.226  12.398  18.263  0.00  0.00    +0.000 OA
BRANCH  21  22
ATOM     22  C   UNL     1      -2.075  11.422  18.855  0.00  0.00    +0.000 C 
ATOM     23  C   UNL     1      -1.931  10.123  18.064  0.00  0.00    +0.000 C 
BRANCH  22  24
ATOM     24  C   UNL     1      -3.530  11.939  18.722  0.00  0.00    +0.000 C 
ATOM     25  O   UNL     1      -4.154  11.791  17.666  0.00  0.00    +0.000 OA
ATOM     26  N   UNL     1      -4.125  12.559  19.819  0.00  0.00    +0.000 N 
ATOM     27  C   UNL     1      -3.484  12.815  21.099  0.00  0.00    +0.000 C 
ATOM     28  C   UNL     1      -5.520  12.961  19.727  0.00  0.00    +0.000 C 
ENDBRANCH  22  24
ENDBRANCH  21  22
ENDBRANCH  20  21
ENDBRANCH  11  14
BRANCH   4  29
ATOM     29  N   UNL     1       2.864   5.041  19.397  0.00  0.00    +0.000 NA
ATOM     30  S   UNL     1       2.113   3.819  18.822  0.00  0.00    +0.000 S 
ATOM     31  C   UNL     1       0.993   3.236  20.088  0.00  0.00    +0.000 C 
ATOM     32  C   UNL     1       3.290   2.493  18.740  0.00  0.00    +0.000 C 
ATOM     33  O   UNL     1       1.385   3.821  17.575  0.00  0.00    +0.000 OA
ENDBRANCH   4  29
TORSDOF 5
ENDMDL
MODEL 2
REMARK VINA RESULT:      -7.1      1.605      2.436
REMARK  Name = 
REMARK  11 active torsions:
REMARK  status: ('A' for Active; 'I' for Inactive)
REMARK    1  A    between atoms: C_1  and  C_2
REMARK    2  A    between atoms: C_4  and  N_5
REMARK    3  A    between atoms: S_6  and  C_7
REMARK    4  A    between atoms: S_6  and  C_8
REMARK    5  A    between atoms: N_16  and  C_17
REMARK    6  A    between atoms: C_23  and  O_24
REMARK    7  A    between atoms: O_24  and  C_25
REMARK    8  A    between atoms: C_25  and  C_26
REMARK    9  A    between atoms: C_25  and  C_27
REMARK   10  A    between atoms: N_29  and  C_30
REMARK   11  A    between atoms: N_29  and  C_31
REMARK                            x       y       z     vdW  Elec       q    Type
REMARK                         _______ _______ _______ _____ _____    ______ ____
ROOT
ATOM      1  C   UNL     1       0.203   8.138  21.762  0.00  0.00    +0.000 C 
ATOM      2  C   UNL     1       1.102   8.039  20.559  0.00  0.00    +0.000 A 
ATOM      3  C   UNL     1       1.711   6.797  20.330  0.00  0.00    +0.000 A 
ATOM      4  C   UNL     1       2.477   6.573  19.196  0.00  0.00    +0.000 A 
ATOM      5  C   UNL     1       2.725   7.635  18.332  0.00  0.00    +0.000 A 
ATOM      6  C   UNL     1       2.172   8.890  18.532  0.00  0.00    +0.000 A 
ATOM      7  N   UNL     1       2.466   9.811  17.612  0.00  0.00    +0.000 NA
ATOM      8  C   UNL     1       1.942  11.025  17.786  0.00  0.00    +0.000 A 
ATOM      9  N   UNL     1       1.161  11.395  18.793  0.00  0.00    +0.000 NA
ATOM     10  C   UNL     1       0.791  10.438  19.660  0.00  0.00    +0.000 A 
ATOM     11  N   UNL     1      -0.190  10.742  20.650  0.00  0.00    +0.000 N 
ATOM     12  C   UNL     1       1.326   9.119  19.629  0.00  0.00    +0.000 A 
ATOM     13  H   UNL     1      -0.940  10.073  20.477  0.00  0.00    +0.000 HD
ENDROOT
BRANCH  11  14
ATOM     14  C   UNL     1      -0.838  11.982  20.889  0.00  0.00    +0.000 A 
ATOM     15  C   UNL     1      -0.664  12.516  22.180  0.00  0.00    +0.000 A 
ATOM     16  C   UNL     1      -1.319  13.678  22.562  0.00  0.00    +0.000 A 
ATOM     17  C   UNL     1      -2.167  14.297  21.658  0.00  0.00    +0.000 A 
ATOM     18  F   UNL     1      -2.777  15.436  22.008  0.00  0.00    +0.000 F 
ATOM     19  C   UNL     1      -2.407  13.756  20.393  0.00  0.00    +0.000 A 
ATOM     20  C   UNL     1      -1.770  12.575  20.006  0.00  0.00    +0.000 A 
BRANCH  20  21
ATOM     21  O   UNL     1      -1.966  11.933  18.819  0.00  0.00    +0.000 OA
BRANCH  21  22
ATOM     22  C   UNL     1      -2.969  10.944  18.619  0.00  0.00    +0.000 C 
ATOM     23  C   UNL     1      -2.327   9.749  17.916  0.00  0.00    +0.000 C 
BRANCH  22  24
ATOM     24  C   UNL     1      -4.045  11.563  17.691  0.00  0.00    +0.000 C 
ATOM     25  O   UNL     1      -3.868  11.607  16.469  0.00  0.00    +0.000 OA
ATOM     26  N   UNL     1      -5.219  12.054  18.258  0.00  0.00    +0.000 N 
ATOM     27  C   UNL     1      -5.527  12.083  19.679  0.00  0.00    +0.000 C 
ATOM     28  C   UNL     1      -6.269  12.549  17.380  0.00  0.00    +0.000 C 
ENDBRANCH  22  24
ENDBRANCH  21  22
ENDBRANCH  20  21
ENDBRANCH  11  14
BRANCH   4  29
ATOM     29  N   UNL     1       2.900   5.229  18.972  0.00  0.00    +0.000 NA
ATOM     30  S   UNL     1       1.952   4.095  18.520  0.00  0.00    +0.000 S 
ATOM     31  C   UNL     1       0.919   3.672  19.917  0.00  0.00    +0.000 C 
ATOM     32  C   UNL     1       2.950   2.637  18.350  0.00  0.00    +0.000 C 
ATOM     33  O   UNL     1       1.095   4.164  17.360  0.00  0.00    +0.000 OA
ENDBRANCH   4  29
TORSDOF 5
ENDMDL
MODEL 3
REMARK VINA RESULT:      -7.1      1.242      1.732
REMARK  Name = 
REMARK  11 active torsions:
REMARK  status: ('A' for Active; 'I' for Inactive)
REMARK    1  A    between atoms: C_1  and  C_2
REMARK    2  A    between atoms: C_4  and  N_5
REMARK    3  A    between atoms: S_6  and  C_7
REMARK    4  A    between atoms: S_6  and  C_8
REMARK    5  A    between atoms: N_16  and  C_17
REMARK    6  A    between atoms: C_23  and  O_24
REMARK    7  A    between atoms: O_24  and  C_25
REMARK    8  A    between atoms: C_25  and  C_26
REMARK    9  A    between atoms: C_25  and  C_27
REMARK   10  A    between atoms: N_29  and  C_30
REMARK   11  A    between atoms: N_29  and  C_31
REMARK                            x       y       z     vdW  Elec       q    Type
REMARK                         _______ _______ _______ _____ _____    ______ ____
ROOT
ATOM      1  C   UNL     1       2.232   9.743  17.581  0.00  0.00    +0.000 C 
ATOM      2  C   UNL     1       1.976   8.778  18.707  0.00  0.00    +0.000 A 
ATOM      3  C   UNL     1       2.333   7.440  18.481  0.00  0.00    +0.000 A 
ATOM      4  C   UNL     1       2.231   6.492  19.487  0.00  0.00    +0.000 A 
ATOM      5  C   UNL     1       1.666   6.861  20.704  0.00  0.00    +0.000 A 
ATOM      6  C   UNL     1       1.268   8.163  20.965  0.00  0.00    +0.000 A 
ATOM      7  N   UNL     1       0.769   8.388  22.182  0.00  0.00    +0.000 NA
ATOM      8  C   UNL     1       0.382   9.635  22.453  0.00  0.00    +0.000 A 
ATOM      9  N   UNL     1       0.445  10.666  21.619  0.00  0.00    +0.000 NA
ATOM     10  C   UNL     1       1.038  10.452  20.432  0.00  0.00    +0.000 A 
ATOM     11  N   UNL     1       1.295  11.564  19.576  0.00  0.00    +0.000 N 
ATOM     12  C   UNL     1       1.438   9.159  19.990  0.00  0.00    +0.000 A 
ATOM     13  H   UNL     1       2.305  11.548  19.436  0.00  0.00    +0.000 HD
ENDROOT
BRANCH  11  14
ATOM     14  C   UNL     1       0.965  12.928  19.790  0.00  0.00    +0.000 A 
ATOM     15  C   UNL     1       1.609  13.543  20.880  0.00  0.00    +0.000 A 
ATOM     16  C   UNL     1       1.303  14.847  21.243  0.00  0.00    +0.000 A 
ATOM     17  C   UNL     1       0.335  15.531  20.525  0.00  0.00    +0.000 A 
ATOM     18  F   UNL     1       0.056  16.800  20.848  0.00  0.00    +0.000 F 
ATOM     19  C   UNL     1      -0.364  14.925  19.479  0.00  0.00    +0.000 A 
ATOM     20  C   UNL     1      -0.080  13.607  19.120  0.00  0.00    +0.000 A 
BRANCH  20  21
ATOM     21  O   UNL     1      -0.730  12.902  18.151  0.00  0.00    +0.000 OA
BRANCH  21  22
ATOM     22  C   UNL     1      -2.028  12.345  18.325  0.00  0.00    +0.000 C 
ATOM     23  C   UNL     1      -2.243  12.091  19.816  0.00  0.00    +0.000 C 
BRANCH  22  24
ATOM     24  C   UNL     1      -2.049  10.991  17.570  0.00  0.00    +0.000 C 
ATOM     25  O   UNL     1      -1.109  10.196  17.680  0.00  0.00    +0.000 OA
ATOM     26  N   UNL     1      -3.154  10.680  16.780  0.00  0.00    +0.000 N 
ATOM     27  C   UNL     1      -4.302  11.541  16.552  0.00  0.00    +0.000 C 
ATOM     28  C   UNL     1      -3.218   9.371  16.147  0.00  0.00    +0.000 C 
ENDBRANCH  22  24
ENDBRANCH  21  22
ENDBRANCH  20  21
ENDBRANCH  11  14
BRANCH   4  29
ATOM     29  N   UNL     1       2.786   5.208  19.206  0.00  0.00    +0.000 NA
ATOM     30  S   UNL     1       1.977   4.036  18.606  0.00  0.00    +0.000 S 
ATOM     31  C   UNL     1       0.889   3.426  19.887  0.00  0.00    +0.000 C 
ATOM     32  C   UNL     1       3.110   2.683  18.416  0.00  0.00    +0.000 C 
ATOM     33  O   UNL     1       1.202   4.118  17.390  0.00  0.00    +0.000 OA
ENDBRANCH   4  29
TORSDOF 5
ENDMDL
MODEL 4
REMARK VINA RESULT:      -7.1      1.186      1.295
REMARK  Name = 
REMARK  11 active torsions:
REMARK  status: ('A' for Active; 'I' for Inactive)
REMARK    1  A    between atoms: C_1  and  C_2
REMARK    2  A    between atoms: C_4  and  N_5
REMARK    3  A    between atoms: S_6  and  C_7
REMARK    4  A    between atoms: S_6  and  C_8
REMARK    5  A    between atoms: N_16  and  C_17
REMARK    6  A    between atoms: C_23  and  O_24
REMARK    7  A    between atoms: O_24  and  C_25
REMARK    8  A    between atoms: C_25  and  C_26
REMARK    9  A    between atoms: C_25  and  C_27
REMARK   10  A    between atoms: N_29  and  C_30
REMARK   11  A    between atoms: N_29  and  C_31
REMARK                            x       y       z     vdW  Elec       q    Type
REMARK                         _______ _______ _______ _____ _____    ______ ____
ROOT
ATOM      1  C   UNL     1       2.223   9.199  17.456  0.00  0.00    +0.000 C 
ATOM      2  C   UNL     1       1.960   8.421  18.717  0.00  0.00    +0.000 A 
ATOM      3  C   UNL     1       2.336   7.070  18.711  0.00  0.00    +0.000 A 
ATOM      4  C   UNL     1       2.228   6.291  19.853  0.00  0.00    +0.000 A 
ATOM      5  C   UNL     1       1.639   6.841  20.988  0.00  0.00    +0.000 A 
ATOM      6  C   UNL     1       1.223   8.162  21.034  0.00  0.00    +0.000 A 
ATOM      7  N   UNL     1       0.702   8.570  22.193  0.00  0.00    +0.000 NA
ATOM      8  C   UNL     1       0.297   9.839  22.257  0.00  0.00    +0.000 A 
ATOM      9  N   UNL     1       0.362  10.725  21.271  0.00  0.00    +0.000 NA
ATOM     10  C   UNL     1       0.976  10.334  20.141  0.00  0.00    +0.000 A 
ATOM     11  N   UNL     1       1.234  11.300  19.125  0.00  0.00    +0.000 N 
ATOM     12  C   UNL     1       1.397   8.993  19.916  0.00  0.00    +0.000 A 
ATOM     13  H   UNL     1       2.246  11.276  19.003  0.00  0.00    +0.000 HD
ENDROOT
BRANCH  11  14
ATOM     14  C   UNL     1       0.886  12.677  19.114  0.00  0.00    +0.000 A 
ATOM     15  C   UNL     1       1.727  13.519  19.866  0.00  0.00    +0.000 A 
ATOM     16  C   UNL     1       1.439  14.869  20.005  0.00  0.00    +0.000 A 
ATOM     17  C   UNL     1       0.296  15.374  19.407  0.00  0.00    +0.000 A 
ATOM     18  F   UNL     1       0.028  16.682  19.509  0.00  0.00    +0.000 F 
ATOM     19  C   UNL     1      -0.589  14.550  18.708  0.00  0.00    +0.000 A 
ATOM     20  C   UNL     1      -0.321  13.187  18.581  0.00  0.00    +0.000 A 
BRANCH  20  21
ATOM     21  O   UNL     1      -1.135  12.283  17.965  0.00  0.00    +0.000 OA
BRANCH  21  22
ATOM     22  C   UNL     1      -1.941  11.346  18.670  0.00  0.00    +0.000 C 
ATOM     23  C   UNL     1      -1.942  10.033  17.888  0.00  0.00    +0.000 C 
BRANCH  22  24
ATOM     24  C   UNL     1      -3.381  11.917  18.706  0.00  0.00    +0.000 C 
ATOM     25  O   UNL     1      -4.126  11.805  17.726  0.00  0.00    +0.000 OA
ATOM     26  N   UNL     1      -3.827  12.544  19.868  0.00  0.00    +0.000 N 
ATOM     27  C   UNL     1      -3.038  12.759  21.070  0.00  0.00    +0.000 C 
ATOM     28  C   UNL     1      -5.208  12.997  19.937  0.00  0.00    +0.000 C 
ENDBRANCH  22  24
ENDBRANCH  21  22
ENDBRANCH  20  21
ENDBRANCH  11  14
BRANCH   4  29
ATOM     29  N   UNL     1       2.801   4.987  19.787  0.00  0.00    +0.000 NA
ATOM     30  S   UNL     1       4.210   4.696  19.222  0.00  0.00    +0.000 S 
ATOM     31  C   UNL     1       4.123   4.886  17.446  0.00  0.00    +0.000 C 
ATOM     32  C   UNL     1       4.474   2.949  19.389  0.00  0.00    +0.000 C 
ATOM     33  O   UNL     1       5.418   5.354  19.663  0.00  0.00    +0.000 OA
ENDBRANCH   4  29
TORSDOF 5
ENDMDL
MODEL 5
REMARK VINA RESULT:      -6.9      4.496      9.652
REMARK  Name = 
REMARK  11 active torsions:
REMARK  status: ('A' for Active; 'I' for Inactive)
REMARK    1  A    between atoms: C_1  and  C_2
REMARK    2  A    between atoms: C_4  and  N_5
REMARK    3  A    between atoms: S_6  and  C_7
REMARK    4  A    between atoms: S_6  and  C_8
REMARK    5  A    between atoms: N_16  and  C_17
REMARK    6  A    between atoms: C_23  and  O_24
REMARK    7  A    between atoms: O_24  and  C_25
REMARK    8  A    between atoms: C_25  and  C_26
REMARK    9  A    between atoms: C_25  and  C_27
REMARK   10  A    between atoms: N_29  and  C_30
REMARK   11  A    between atoms: N_29  and  C_31
REMARK                            x       y       z     vdW  Elec       q    Type
REMARK                         _______ _______ _______ _____ _____    ______ ____
ROOT
ATOM      1  C   UNL     1       2.913   8.789  16.986  0.00  0.00    +0.000 C 
ATOM      2  C   UNL     1       2.190   9.326  18.192  0.00  0.00    +0.000 A 
ATOM      3  C   UNL     1       1.887  10.695  18.185  0.00  0.00    +0.000 A 
ATOM      4  C   UNL     1       1.137  11.268  19.200  0.00  0.00    +0.000 A 
ATOM      5  C   UNL     1       0.774  10.485  20.291  0.00  0.00    +0.000 A 
ATOM      6  C   UNL     1       1.078   9.134  20.360  0.00  0.00    +0.000 A 
ATOM      7  N   UNL     1       0.646   8.493  21.449  0.00  0.00    +0.000 NA
ATOM      8  C   UNL     1       0.927   7.193  21.533  0.00  0.00    +0.000 A 
ATOM      9  N   UNL     1       1.601   6.485  20.635  0.00  0.00    +0.000 NA
ATOM     10  C   UNL     1       1.947   7.114  19.499  0.00  0.00    +0.000 A 
ATOM     11  N   UNL     1       2.507   6.355  18.430  0.00  0.00    +0.000 N 
ATOM     12  C   UNL     1       1.765   8.513  19.306  0.00  0.00    +0.000 A 
ATOM     13  H   UNL     1       1.873   6.512  17.648  0.00  0.00    +0.000 HD
ENDROOT
BRANCH  11  14
ATOM     14  C   UNL     1       2.804   4.967  18.403  0.00  0.00    +0.000 A 
ATOM     15  C   UNL     1       1.715   4.111  18.655  0.00  0.00    +0.000 A 
ATOM     16  C   UNL     1       1.897   2.738  18.742  0.00  0.00    +0.000 A 
ATOM     17  C   UNL     1       3.174   2.221  18.596  0.00  0.00    +0.000 A 
ATOM     18  F   UNL     1       3.353   0.896  18.646  0.00  0.00    +0.000 F 
ATOM     19  C   UNL     1       4.281   3.051  18.407  0.00  0.00    +0.000 A 
ATOM     20  C   UNL     1       4.113   4.435  18.340  0.00  0.00    +0.000 A 
BRANCH  20  21
ATOM     21  O   UNL     1       5.124   5.341  18.208  0.00  0.00    +0.000 OA
BRANCH  21  22
ATOM     22  C   UNL     1       6.488   4.974  18.038  0.00  0.00    +0.000 C 
ATOM     23  C   UNL     1       7.302   5.635  19.149  0.00  0.00    +0.000 C 
BRANCH  22  24
ATOM     24  C   UNL     1       6.946   5.536  16.668  0.00  0.00    +0.000 C 
ATOM     25  O   UNL     1       7.521   6.629  16.599  0.00  0.00    +0.000 OA
ATOM     26  N   UNL     1       6.713   4.783  15.520  0.00  0.00    +0.000 N 
ATOM     27  C   UNL     1       6.024   3.503  15.472  0.00  0.00    +0.000 C 
ATOM     28  C   UNL     1       7.225   5.265  14.247  0.00  0.00    +0.000 C 
ENDBRANCH  22  24
ENDBRANCH  21  22
ENDBRANCH  20  21
ENDBRANCH  11  14
BRANCH   4  29
ATOM     29  N   UNL     1       0.736  12.623  19.005  0.00  0.00    +0.000 NA
ATOM     30  S   UNL     1       1.632  13.839  19.331  0.00  0.00    +0.000 S 
ATOM     31  C   UNL     1       1.708  13.985  21.112  0.00  0.00    +0.000 C 
ATOM     32  C   UNL     1       0.706  15.286  18.886  0.00  0.00    +0.000 C 
ATOM     33  O   UNL     1       2.975  14.020  18.830  0.00  0.00    +0.000 OA
ENDBRANCH   4  29
TORSDOF 5
ENDMDL
MODEL 6
REMARK VINA RESULT:      -6.9      4.226      9.141
REMARK  Name = 
REMARK  11 active torsions:
REMARK  status: ('A' for Active; 'I' for Inactive)
REMARK    1  A    between atoms: C_1  and  C_2
REMARK    2  A    between atoms: C_4  and  N_5
REMARK    3  A    between atoms: S_6  and  C_7
REMARK    4  A    between atoms: S_6  and  C_8
REMARK    5  A    between atoms: N_16  and  C_17
REMARK    6  A    between atoms: C_23  and  O_24
REMARK    7  A    between atoms: O_24  and  C_25
REMARK    8  A    between atoms: C_25  and  C_26
REMARK    9  A    between atoms: C_25  and  C_27
REMARK   10  A    between atoms: N_29  and  C_30
REMARK   11  A    between atoms: N_29  and  C_31
REMARK                            x       y       z     vdW  Elec       q    Type
REMARK                         _______ _______ _______ _____ _____    ______ ____
ROOT
ATOM      1  C   UNL     1       2.225   9.919  17.586  0.00  0.00    +0.000 C 
ATOM      2  C   UNL     1       1.488  10.581  18.719  0.00  0.00    +0.000 A 
ATOM      3  C   UNL     1       1.082  11.908  18.514  0.00  0.00    +0.000 A 
ATOM      4  C   UNL     1       0.312  12.575  19.454  0.00  0.00    +0.000 A 
ATOM      5  C   UNL     1       0.030  11.943  20.661  0.00  0.00    +0.000 A 
ATOM      6  C   UNL     1       0.435  10.644  20.924  0.00  0.00    +0.000 A 
ATOM      7  N   UNL     1       0.073  10.148  22.110  0.00  0.00    +0.000 NA
ATOM      8  C   UNL     1       0.452   8.899  22.381  0.00  0.00    +0.000 A 
ATOM      9  N   UNL     1       1.160   8.112  21.579  0.00  0.00    +0.000 NA
ATOM     10  C   UNL     1       1.436   8.584  20.351  0.00  0.00    +0.000 A 
ATOM     11  N   UNL     1       2.030   7.712  19.393  0.00  0.00    +0.000 N 
ATOM     12  C   UNL     1       1.146   9.920  19.955  0.00  0.00    +0.000 A 
ATOM     13  H   UNL     1       1.371   7.702  18.615  0.00  0.00    +0.000 HD
ENDROOT
BRANCH  11  14
ATOM     14  C   UNL     1       2.430   6.360  19.566  0.00  0.00    +0.000 A 
ATOM     15  C   UNL     1       1.754   5.655  20.580  0.00  0.00    +0.000 A 
ATOM     16  C   UNL     1       2.115   4.355  20.903  0.00  0.00    +0.000 A 
ATOM     17  C   UNL     1       3.170   3.766  20.224  0.00  0.00    +0.000 A 
ATOM     18  F   UNL     1       3.504   2.501  20.508  0.00  0.00    +0.000 F 
ATOM     19  C   UNL     1       3.898   4.462  19.258  0.00  0.00    +0.000 A 
ATOM     20  C   UNL     1       3.557   5.778  18.940  0.00  0.00    +0.000 A 
BRANCH  20  21
ATOM     21  O   UNL     1       4.225   6.567  18.052  0.00  0.00    +0.000 OA
BRANCH  21  22
ATOM     22  C   UNL     1       5.505   6.242  17.523  0.00  0.00    +0.000 C 
ATOM     23  C   UNL     1       6.421   7.451  17.710  0.00  0.00    +0.000 C 
BRANCH  22  24
ATOM     24  C   UNL     1       5.320   5.974  16.007  0.00  0.00    +0.000 C 
ATOM     25  O   UNL     1       5.036   6.898  15.237  0.00  0.00    +0.000 OA
ATOM     26  N   UNL     1       5.495   4.677  15.528  0.00  0.00    +0.000 N 
ATOM     27  C   UNL     1       5.800   3.509  16.337  0.00  0.00    +0.000 C 
ATOM     28  C   UNL     1       5.414   4.442  14.094  0.00  0.00    +0.000 C 
ENDBRANCH  22  24
ENDBRANCH  21  22
ENDBRANCH  20  21
ENDBRANCH  11  14
BRANCH   4  29
ATOM     29  N   UNL     1      -0.193  13.852  19.068  0.00  0.00    +0.000 NA
ATOM     30  S   UNL     1       0.633  15.156  19.132  0.00  0.00    +0.000 S 
ATOM     31  C   UNL     1       0.799  15.601  20.856  0.00  0.00    +0.000 C 
ATOM     32  C   UNL     1      -0.416  16.452  18.521  0.00  0.00    +0.000 C 
ATOM     33  O   UNL     1       1.929  15.331  18.518  0.00  0.00    +0.000 OA
ENDBRANCH   4  29
TORSDOF 5
ENDMDL
MODEL 7
REMARK VINA RESULT:      -6.8      0.923      1.227
REMARK  Name = 
REMARK  11 active torsions:
REMARK  status: ('A' for Active; 'I' for Inactive)
REMARK    1  A    between atoms: C_1  and  C_2
REMARK    2  A    between atoms: C_4  and  N_5
REMARK    3  A    between atoms: S_6  and  C_7
REMARK    4  A    between atoms: S_6  and  C_8
REMARK    5  A    between atoms: N_16  and  C_17
REMARK    6  A    between atoms: C_23  and  O_24
REMARK    7  A    between atoms: O_24  and  C_25
REMARK    8  A    between atoms: C_25  and  C_26
REMARK    9  A    between atoms: C_25  and  C_27
REMARK   10  A    between atoms: N_29  and  C_30
REMARK   11  A    between atoms: N_29  and  C_31
REMARK                            x       y       z     vdW  Elec       q    Type
REMARK                         _______ _______ _______ _____ _____    ______ ____
ROOT
ATOM      1  C   UNL     1       2.221   9.280  17.429  0.00  0.00    +0.000 C 
ATOM      2  C   UNL     1       1.976   8.422  18.641  0.00  0.00    +0.000 A 
ATOM      3  C   UNL     1       2.385   7.083  18.556  0.00  0.00    +0.000 A 
ATOM      4  C   UNL     1       2.295   6.236  19.649  0.00  0.00    +0.000 A 
ATOM      5  C   UNL     1       1.693   6.703  20.813  0.00  0.00    +0.000 A 
ATOM      6  C   UNL     1       1.244   8.008  20.936  0.00  0.00    +0.000 A 
ATOM      7  N   UNL     1       0.713   8.334  22.117  0.00  0.00    +0.000 NA
ATOM      8  C   UNL     1       0.277   9.587  22.255  0.00  0.00    +0.000 A 
ATOM      9  N   UNL     1       0.321  10.531  21.323  0.00  0.00    +0.000 NA
ATOM     10  C   UNL     1       0.945  10.223  20.174  0.00  0.00    +0.000 A 
ATOM     11  N   UNL     1       1.180  11.253  19.217  0.00  0.00    +0.000 N 
ATOM     12  C   UNL     1       1.399   8.908  19.870  0.00  0.00    +0.000 A 
ATOM     13  H   UNL     1       2.192  11.261  19.096  0.00  0.00    +0.000 HD
ENDROOT
BRANCH  11  14
ATOM     14  C   UNL     1       0.798  12.619  19.287  0.00  0.00    +0.000 A 
ATOM     15  C   UNL     1       1.586  13.425  20.131  0.00  0.00    +0.000 A 
ATOM     16  C   UNL     1       1.259  14.755  20.350  0.00  0.00    +0.000 A 
ATOM     17  C   UNL     1       0.129  15.276  19.741  0.00  0.00    +0.000 A 
ATOM     18  F   UNL     1      -0.175  16.567  19.922  0.00  0.00    +0.000 F 
ATOM     19  C   UNL     1      -0.705  14.484  18.949  0.00  0.00    +0.000 A 
ATOM     20  C   UNL     1      -0.398  13.139  18.739  0.00  0.00    +0.000 A 
BRANCH  20  21
ATOM     21  O   UNL     1      -1.163  12.263  18.027  0.00  0.00    +0.000 OA
BRANCH  21  22
ATOM     22  C   UNL     1      -1.989  11.274  18.631  0.00  0.00    +0.000 C 
ATOM     23  C   UNL     1      -1.814   9.969  17.857  0.00  0.00    +0.000 C 
BRANCH  22  24
ATOM     24  C   UNL     1      -3.456  11.755  18.491  0.00  0.00    +0.000 C 
ATOM     25  O   UNL     1      -4.051  12.245  19.457  0.00  0.00    +0.000 OA
ATOM     26  N   UNL     1      -4.086  11.639  17.253  0.00  0.00    +0.000 N 
ATOM     27  C   UNL     1      -3.501  11.056  16.056  0.00  0.00    +0.000 C 
ATOM     28  C   UNL     1      -5.430  12.175  17.096  0.00  0.00    +0.000 C 
ENDBRANCH  22  24
ENDBRANCH  21  22
ENDBRANCH  20  21
ENDBRANCH  11  14
BRANCH   4  29
ATOM     29  N   UNL     1       2.901   4.952  19.507  0.00  0.00    +0.000 NA
ATOM     30  S   UNL     1       2.197   3.738  18.861  0.00  0.00    +0.000 S 
ATOM     31  C   UNL     1       0.954   3.165  20.011  0.00  0.00    +0.000 C 
ATOM     32  C   UNL     1       3.363   2.400  18.889  0.00  0.00    +0.000 C 
ATOM     33  O   UNL     1       1.593   3.749  17.549  0.00  0.00    +0.000 OA
ENDBRANCH   4  29
TORSDOF 5
ENDMDL
MODEL 8
REMARK VINA RESULT:      -6.8      4.319      9.501
REMARK  Name = 
REMARK  11 active torsions:
REMARK  status: ('A' for Active; 'I' for Inactive)
REMARK    1  A    between atoms: C_1  and  C_2
REMARK    2  A    between atoms: C_4  and  N_5
REMARK    3  A    between atoms: S_6  and  C_7
REMARK    4  A    between atoms: S_6  and  C_8
REMARK    5  A    between atoms: N_16  and  C_17
REMARK    6  A    between atoms: C_23  and  O_24
REMARK    7  A    between atoms: O_24  and  C_25
REMARK    8  A    between atoms: C_25  and  C_26
REMARK    9  A    between atoms: C_25  and  C_27
REMARK   10  A    between atoms: N_29  and  C_30
REMARK   11  A    between atoms: N_29  and  C_31
REMARK                            x       y       z     vdW  Elec       q    Type
REMARK                         _______ _______ _______ _____ _____    ______ ____
ROOT
ATOM      1  C   UNL     1       3.164   8.378  16.899  0.00  0.00    +0.000 C 
ATOM      2  C   UNL     1       2.395   8.949  18.060  0.00  0.00    +0.000 A 
ATOM      3  C   UNL     1       2.072  10.312  17.990  0.00  0.00    +0.000 A 
ATOM      4  C   UNL     1       1.282  10.911  18.958  0.00  0.00    +0.000 A 
ATOM      5  C   UNL     1       0.895  10.165  20.067  0.00  0.00    +0.000 A 
ATOM      6  C   UNL     1       1.216   8.823  20.198  0.00  0.00    +0.000 A 
ATOM      7  N   UNL     1       0.758   8.217  21.296  0.00  0.00    +0.000 NA
ATOM      8  C   UNL     1       1.055   6.925  21.439  0.00  0.00    +0.000 A 
ATOM      9  N   UNL     1       1.768   6.194  20.590  0.00  0.00    +0.000 NA
ATOM     10  C   UNL     1       2.141   6.785  19.443  0.00  0.00    +0.000 A 
ATOM     11  N   UNL     1       2.746   5.995  18.422  0.00  0.00    +0.000 N 
ATOM     12  C   UNL     1       1.946   8.173  19.190  0.00  0.00    +0.000 A 
ATOM     13  H   UNL     1       2.135   6.112  17.614  0.00  0.00    +0.000 HD
ENDROOT
BRANCH  11  14
ATOM     14  C   UNL     1       3.063   4.611  18.457  0.00  0.00    +0.000 A 
ATOM     15  C   UNL     1       1.969   3.736  18.323  0.00  0.00    +0.000 A 
ATOM     16  C   UNL     1       2.140   2.363  18.430  0.00  0.00    +0.000 A 
ATOM     17  C   UNL     1       3.406   1.865  18.692  0.00  0.00    +0.000 A 
ATOM     18  F   UNL     1       3.586   0.541  18.765  0.00  0.00    +0.000 F 
ATOM     19  C   UNL     1       4.498   2.712  18.891  0.00  0.00    +0.000 A 
ATOM     20  C   UNL     1       4.333   4.096  18.808  0.00  0.00    +0.000 A 
BRANCH  20  21
ATOM     21  O   UNL     1       5.314   5.016  19.031  0.00  0.00    +0.000 OA
BRANCH  21  22
ATOM     22  C   UNL     1       6.552   5.028  18.330  0.00  0.00    +0.000 C 
ATOM     23  C   UNL     1       7.564   5.815  19.161  0.00  0.00    +0.000 C 
BRANCH  22  24
ATOM     24  C   UNL     1       6.312   5.766  16.989  0.00  0.00    +0.000 C 
ATOM     25  O   UNL     1       6.343   7.001  16.938  0.00  0.00    +0.000 OA
ATOM     26  N   UNL     1       6.077   5.013  15.840  0.00  0.00    +0.000 N 
ATOM     27  C   UNL     1       5.990   3.563  15.781  0.00  0.00    +0.000 C 
ATOM     28  C   UNL     1       5.945   5.701  14.565  0.00  0.00    +0.000 C 
ENDBRANCH  22  24
ENDBRANCH  21  22
ENDBRANCH  20  21
ENDBRANCH  11  14
BRANCH   4  29
ATOM     29  N   UNL     1       0.868  12.252  18.698  0.00  0.00    +0.000 NA
ATOM     30  S   UNL     1      -0.278  12.959  19.458  0.00  0.00    +0.000 S 
ATOM     31  C   UNL     1      -1.815  12.240  18.896  0.00  0.00    +0.000 C 
ATOM     32  C   UNL     1      -0.383  14.604  18.800  0.00  0.00    +0.000 C 
ATOM     33  O   UNL     1      -0.357  13.068  20.896  0.00  0.00    +0.000 OA
ENDBRANCH   4  29
TORSDOF 5
ENDMDL
MODEL 9
REMARK VINA RESULT:      -6.8      4.275      9.369
REMARK  Name = 
REMARK  11 active torsions:
REMARK  status: ('A' for Active; 'I' for Inactive)
REMARK    1  A    between atoms: C_1  and  C_2
REMARK    2  A    between atoms: C_4  and  N_5
REMARK    3  A    between atoms: S_6  and  C_7
REMARK    4  A    between atoms: S_6  and  C_8
REMARK    5  A    between atoms: N_16  and  C_17
REMARK    6  A    between atoms: C_23  and  O_24
REMARK    7  A    between atoms: O_24  and  C_25
REMARK    8  A    between atoms: C_25  and  C_26
REMARK    9  A    between atoms: C_25  and  C_27
REMARK   10  A    between atoms: N_29  and  C_30
REMARK   11  A    between atoms: N_29  and  C_31
REMARK                            x       y       z     vdW  Elec       q    Type
REMARK                         _______ _______ _______ _____ _____    ______ ____
ROOT
ATOM      1  C   UNL     1       0.880   8.179  22.250  0.00  0.00    +0.000 C 
ATOM      2  C   UNL     1       1.084   9.173  21.138  0.00  0.00    +0.000 A 
ATOM      3  C   UNL     1       0.840  10.519  21.447  0.00  0.00    +0.000 A 
ATOM      4  C   UNL     1       1.092  11.523  20.524  0.00  0.00    +0.000 A 
ATOM      5  C   UNL     1       1.496  11.169  19.240  0.00  0.00    +0.000 A 
ATOM      6  C   UNL     1       1.720   9.850  18.877  0.00  0.00    +0.000 A 
ATOM      7  N   UNL     1       2.132   9.653  17.623  0.00  0.00    +0.000 NA
ATOM      8  C   UNL     1       2.355   8.390  17.255  0.00  0.00    +0.000 A 
ATOM      9  N   UNL     1       2.198   7.319  18.023  0.00  0.00    +0.000 NA
ATOM     10  C   UNL     1       1.877   7.535  19.310  0.00  0.00    +0.000 A 
ATOM     11  N   UNL     1       1.877   6.434  20.216  0.00  0.00    +0.000 N 
ATOM     12  C   UNL     1       1.549   8.823  19.818  0.00  0.00    +0.000 A 
ATOM     13  H   UNL     1       2.549   6.698  20.936  0.00  0.00    +0.000 HD
ENDROOT
BRANCH  11  14
ATOM     14  C   UNL     1       2.142   5.067  19.936  0.00  0.00    +0.000 A 
ATOM     15  C   UNL     1       1.076   4.182  20.184  0.00  0.00    +0.000 A 
ATOM     16  C   UNL     1       1.240   2.813  20.033  0.00  0.00    +0.000 A 
ATOM     17  C   UNL     1       2.480   2.326  19.652  0.00  0.00    +0.000 A 
ATOM     18  F   UNL     1       2.639   1.009  19.472  0.00  0.00    +0.000 F 
ATOM     19  C   UNL     1       3.571   3.176  19.459  0.00  0.00    +0.000 A 
ATOM     20  C   UNL     1       3.423   4.553  19.631  0.00  0.00    +0.000 A 
BRANCH  20  21
ATOM     21  O   UNL     1       4.427   5.468  19.518  0.00  0.00    +0.000 OA
BRANCH  21  22
ATOM     22  C   UNL     1       5.636   5.223  18.808  0.00  0.00    +0.000 C 
ATOM     23  C   UNL     1       6.796   5.772  19.637  0.00  0.00    +0.000 C 
BRANCH  22  24
ATOM     24  C   UNL     1       5.550   6.005  17.473  0.00  0.00    +0.000 C 
ATOM     25  O   UNL     1       5.648   7.237  17.460  0.00  0.00    +0.000 OA
ATOM     26  N   UNL     1       5.376   5.293  16.288  0.00  0.00    +0.000 N 
ATOM     27  C   UNL     1       5.220   3.851  16.180  0.00  0.00    +0.000 C 
ATOM     28  C   UNL     1       5.389   6.017  15.025  0.00  0.00    +0.000 C 
ENDBRANCH  22  24
ENDBRANCH  21  22
ENDBRANCH  20  21
ENDBRANCH  11  14
BRANCH   4  29
ATOM     29  N   UNL     1       0.980  12.863  20.999  0.00  0.00    +0.000 NA
ATOM     30  S   UNL     1      -0.188  13.368  21.877  0.00  0.00    +0.000 S 
ATOM     31  C   UNL     1      -1.633  13.483  20.830  0.00  0.00    +0.000 C 
ATOM     32  C   UNL     1       0.143  15.075  22.229  0.00  0.00    +0.000 C 
ATOM     33  O   UNL     1      -0.605  12.749  23.114  0.00  0.00    +0.000 OA
ENDBRANCH   4  29
TORSDOF 5
ENDMDL
