MODEL 1
REMARK VINA RESULT:      -7.3      0.000      0.000
REMARK  Name = 
REMARK  18 active torsions:
REMARK  status: ('A' for Active; 'I' for Inactive)
REMARK    1  A    between atoms: C_1  and  C_2
REMARK    2  A    between atoms: C_2  and  C_3
REMARK    3  A    between atoms: C_3  and  C_5
REMARK    4  A    between atoms: C_5  and  C_6
REMARK    5  A    between atoms: C_5  and  C_24
REMARK    6  A    between atoms: C_6  and  C_7
REMARK    7  A    between atoms: C_7  and  C_8
REMARK    8  A    between atoms: C_8  and  C_22
REMARK    9  A    between atoms: C_9  and  C_10
REMARK   10  A    between atoms: C_10  and  C_11
REMARK   11  A    between atoms: C_11  and  C_12
REMARK   12  A    between atoms: C_15  and  O_16
REMARK   13  A    between atoms: O_16  and  C_17
REMARK   14  A    between atoms: C_18  and  O_19
REMARK   15  A    between atoms: O_19  and  C_20
REMARK   16  A    between atoms: C_22  and  C_23
REMARK   17  A    between atoms: C_24  and  C_26
REMARK   18  A    between atoms: C_26  and  C_27
REMARK                            x       y       z     vdW  Elec       q    Type
REMARK                         _______ _______ _______ _____ _____    ______ ____
ROOT
ATOM      1  C   UNL     1       3.253   5.028  18.100  0.00  0.00    +0.000 C 
ATOM      2  C   UNL     1       3.485   6.295  18.504  0.00  0.00    +0.000 C 
ENDROOT
BRANCH   1   3
ATOM      3  C   UNL     1       1.914   4.519  17.595  0.00  0.00    +0.000 C 
ATOM      4  C   UNL     1       1.384   3.335  18.397  0.00  0.00    +0.000 C 
ENDBRANCH   1   3
BRANCH   1   5
ATOM      5  C   UNL     1       4.356   3.992  18.202  0.00  0.00    +0.000 C 
BRANCH   5   6
ATOM      6  C   UNL     1       5.090   3.794  16.867  0.00  0.00    +0.000 C 
BRANCH   6   7
ATOM      7  C   UNL     1       6.025   4.953  16.481  0.00  0.00    +0.000 C 
BRANCH   7   8
ATOM      8  C   UNL     1       6.416   4.924  15.004  0.00  0.00    +0.000 C 
ATOM      9  O   UNL     1       7.459   5.440  14.602  0.00  0.00    +0.000 OA
BRANCH   8  11
ATOM     10  C   UNL     1       6.280   3.630  12.854  0.00  0.00    +0.000 C 
ATOM     11  C   UNL     1       5.513   4.139  14.064  0.00  0.00    +0.000 C 
ENDBRANCH   8  11
ENDBRANCH   7   8
BRANCH   7  12
ATOM     12  C   UNL     1       7.210   5.034  17.429  0.00  0.00    +0.000 C 
ATOM     13  O   UNL     1       8.078   4.161  17.451  0.00  0.00    +0.000 OA
BRANCH  12  14
ATOM     14  C   UNL     1       7.302   6.270  18.311  0.00  0.00    +0.000 C 
ATOM     15  C   UNL     1       7.662   7.517  17.523  0.00  0.00    +0.000 C 
ENDBRANCH  12  14
ENDBRANCH   7  12
ENDBRANCH   6   7
ENDBRANCH   5   6
ENDBRANCH   1   5
BRANCH   2  16
ATOM     16  C   UNL     1       2.464   7.394  18.599  0.00  0.00    +0.000 C 
BRANCH  16  17
ATOM     17  C   UNL     1       1.973   7.667  20.027  0.00  0.00    +0.000 C 
BRANCH  17  18
ATOM     18  C   UNL     1       1.235   8.988  20.032  0.00  0.00    +0.000 A 
ATOM     19  C   UNL     1       1.165   9.765  18.876  0.00  0.00    +0.000 A 
ATOM     20  C   UNL     1       0.656  11.062  18.943  0.00  0.00    +0.000 A 
ATOM     21  C   UNL     1       0.202  11.597  20.155  0.00  0.00    +0.000 A 
ATOM     22  C   UNL     1       0.255  10.820  21.327  0.00  0.00    +0.000 A 
ATOM     23  C   UNL     1       0.761   9.514  21.243  0.00  0.00    +0.000 A 
BRANCH  21  24
ATOM     24  O   UNL     1      -0.190  12.907  20.043  0.00  0.00    +0.000 OA
ATOM     25  C   UNL     1      -1.580  13.148  19.877  0.00  0.00    +0.000 C 
ENDBRANCH  21  24
BRANCH  22  26
ATOM     26  O   UNL     1      -0.136  11.395  22.506  0.00  0.00    +0.000 OA
ATOM     27  C   UNL     1      -1.286  10.867  23.156  0.00  0.00    +0.000 C 
ENDBRANCH  22  26
ENDBRANCH  17  18
ENDBRANCH  16  17
ENDBRANCH   2  16
TORSDOF 13
ENDMDL
MODEL 2
REMARK VINA RESULT:      -6.9      1.685      2.165
REMARK  Name = 
REMARK  18 active torsions:
REMARK  status: ('A' for Active; 'I' for Inactive)
REMARK    1  A    between atoms: C_1  and  C_2
REMARK    2  A    between atoms: C_2  and  C_3
REMARK    3  A    between atoms: C_3  and  C_5
REMARK    4  A    between atoms: C_5  and  C_6
REMARK    5  A    between atoms: C_5  and  C_24
REMARK    6  A    between atoms: C_6  and  C_7
REMARK    7  A    between atoms: C_7  and  C_8
REMARK    8  A    between atoms: C_8  and  C_22
REMARK    9  A    between atoms: C_9  and  C_10
REMARK   10  A    between atoms: C_10  and  C_11
REMARK   11  A    between atoms: C_11  and  C_12
REMARK   12  A    between atoms: C_15  and  O_16
REMARK   13  A    between atoms: O_16  and  C_17
REMARK   14  A    between atoms: C_18  and  O_19
REMARK   15  A    between atoms: O_19  and  C_20
REMARK   16  A    between atoms: C_22  and  C_23
REMARK   17  A    between atoms: C_24  and  C_26
REMARK   18  A    between atoms: C_26  and  C_27
REMARK                            x       y       z     vdW  Elec       q    Type
REMARK                         _______ _______ _______ _____ _____    ______ ____
ROOT
ATOM      1  C   UNL     1       3.041   5.408  18.499  0.00  0.00    +0.000 C 
ATOM      2  C   UNL     1       2.614   6.551  17.920  0.00  0.00    +0.000 C 
ENDROOT
BRANCH   1   3
ATOM      3  C   UNL     1       3.205   5.213  19.996  0.00  0.00    +0.000 C 
ATOM      4  C   UNL     1       1.899   4.863  20.700  0.00  0.00    +0.000 C 
ENDBRANCH   1   3
BRANCH   1   5
ATOM      5  C   UNL     1       3.458   4.236  17.632  0.00  0.00    +0.000 C 
BRANCH   5   6
ATOM      6  C   UNL     1       4.984   4.082  17.559  0.00  0.00    +0.000 C 
BRANCH   6   7
ATOM      7  C   UNL     1       5.725   5.344  17.084  0.00  0.00    +0.000 C 
BRANCH   7   8
ATOM      8  C   UNL     1       5.516   5.620  15.596  0.00  0.00    +0.000 C 
ATOM      9  O   UNL     1       5.379   6.766  15.166  0.00  0.00    +0.000 OA
BRANCH   8  11
ATOM     10  C   UNL     1       6.827   4.489  13.775  0.00  0.00    +0.000 C 
ATOM     11  C   UNL     1       5.587   4.429  14.654  0.00  0.00    +0.000 C 
ENDBRANCH   8  11
ENDBRANCH   7   8
BRANCH   7  12
ATOM     12  C   UNL     1       7.185   5.307  17.503  0.00  0.00    +0.000 C 
ATOM     13  O   UNL     1       7.943   4.415  17.120  0.00  0.00    +0.000 OA
BRANCH  12  14
ATOM     14  C   UNL     1       7.680   6.452  18.374  0.00  0.00    +0.000 C 
ATOM     15  C   UNL     1       7.712   7.774  17.628  0.00  0.00    +0.000 C 
ENDBRANCH  12  14
ENDBRANCH   7  12
ENDBRANCH   6   7
ENDBRANCH   5   6
ENDBRANCH   1   5
BRANCH   2  16
ATOM     16  C   UNL     1       2.302   7.838  18.629  0.00  0.00    +0.000 C 
BRANCH  16  17
ATOM     17  C   UNL     1       2.198   9.053  17.697  0.00  0.00    +0.000 C 
BRANCH  17  18
ATOM     18  C   UNL     1       1.146   9.990  18.252  0.00  0.00    +0.000 A 
ATOM     19  C   UNL     1      -0.209   9.705  18.094  0.00  0.00    +0.000 A 
ATOM     20  C   UNL     1      -1.162  10.666  18.435  0.00  0.00    +0.000 A 
ATOM     21  C   UNL     1      -0.779  11.914  18.944  0.00  0.00    +0.000 A 
ATOM     22  C   UNL     1       0.585  12.209  19.121  0.00  0.00    +0.000 A 
ATOM     23  C   UNL     1       1.531  11.230  18.783  0.00  0.00    +0.000 A 
BRANCH  21  24
ATOM     24  O   UNL     1      -1.845  12.753  19.147  0.00  0.00    +0.000 OA
ATOM     25  C   UNL     1      -2.449  12.722  20.432  0.00  0.00    +0.000 C 
ENDBRANCH  21  24
BRANCH  22  26
ATOM     26  O   UNL     1       0.927  13.459  19.559  0.00  0.00    +0.000 OA
ATOM     27  C   UNL     1       1.909  14.178  18.822  0.00  0.00    +0.000 C 
ENDBRANCH  22  26
ENDBRANCH  17  18
ENDBRANCH  16  17
ENDBRANCH   2  16
TORSDOF 13
ENDMDL
MODEL 3
REMARK VINA RESULT:      -6.8      1.587      8.643
REMARK  Name = 
REMARK  18 active torsions:
REMARK  status: ('A' for Active; 'I' for Inactive)
REMARK    1  A    between atoms: C_1  and  C_2
REMARK    2  A    between atoms: C_2  and  C_3
REMARK    3  A    between atoms: C_3  and  C_5
REMARK    4  A    between atoms: C_5  and  C_6
REMARK    5  A    between atoms: C_5  and  C_24
REMARK    6  A    between atoms: C_6  and  C_7
REMARK    7  A    between atoms: C_7  and  C_8
REMARK    8  A    between atoms: C_8  and  C_22
REMARK    9  A    between atoms: C_9  and  C_10
REMARK   10  A    between atoms: C_10  and  C_11
REMARK   11  A    between atoms: C_11  and  C_12
REMARK   12  A    between atoms: C_15  and  O_16
REMARK   13  A    between atoms: O_16  and  C_17
REMARK   14  A    between atoms: C_18  and  O_19
REMARK   15  A    between atoms: O_19  and  C_20
REMARK   16  A    between atoms: C_22  and  C_23
REMARK   17  A    between atoms: C_24  and  C_26
REMARK   18  A    between atoms: C_26  and  C_27
REMARK                            x       y       z     vdW  Elec       q    Type
REMARK                         _______ _______ _______ _____ _____    ______ ____
ROOT
ATOM      1  C   UNL     1       2.132   5.262  20.044  0.00  0.00    +0.000 C 
ATOM      2  C   UNL     1       2.313   5.418  18.715  0.00  0.00    +0.000 C 
ENDROOT
BRANCH   1   3
ATOM      3  C   UNL     1       2.281   3.943  20.782  0.00  0.00    +0.000 C 
ATOM      4  C   UNL     1       0.995   3.123  20.805  0.00  0.00    +0.000 C 
ENDBRANCH   1   3
BRANCH   1   5
ATOM      5  C   UNL     1       1.686   6.442  20.886  0.00  0.00    +0.000 C 
BRANCH   5   6
ATOM      6  C   UNL     1       1.832   7.775  20.138  0.00  0.00    +0.000 C 
BRANCH   6   7
ATOM      7  C   UNL     1       0.719   8.794  20.438  0.00  0.00    +0.000 C 
BRANCH   7   8
ATOM      8  C   UNL     1       0.683   9.937  19.425  0.00  0.00    +0.000 C 
ATOM      9  O   UNL     1       1.601  10.119  18.624  0.00  0.00    +0.000 OA
BRANCH   8  11
ATOM     10  C   UNL     1      -0.303  12.168  18.823  0.00  0.00    +0.000 C 
ATOM     11  C   UNL     1      -0.582  10.780  19.376  0.00  0.00    +0.000 C 
ENDBRANCH   8  11
ENDBRANCH   7   8
BRANCH   7  12
ATOM     12  C   UNL     1       0.781   9.256  21.884  0.00  0.00    +0.000 C 
ATOM     13  O   UNL     1       1.817   9.708  22.373  0.00  0.00    +0.000 OA
BRANCH  12  14
ATOM     14  C   UNL     1      -0.510   9.183  22.685  0.00  0.00    +0.000 C 
ATOM     15  C   UNL     1      -0.988  10.552  23.137  0.00  0.00    +0.000 C 
ENDBRANCH  12  14
ENDBRANCH   7  12
ENDBRANCH   6   7
ENDBRANCH   5   6
ENDBRANCH   1   5
BRANCH   2  16
ATOM     16  C   UNL     1       2.614   4.325  17.730  0.00  0.00    +0.000 C 
BRANCH  16  17
ATOM     17  C   UNL     1       4.011   3.708  17.890  0.00  0.00    +0.000 C 
BRANCH  17  18
ATOM     18  C   UNL     1       4.928   4.334  16.862  0.00  0.00    +0.000 A 
ATOM     19  C   UNL     1       5.055   3.776  15.592  0.00  0.00    +0.000 A 
ATOM     20  C   UNL     1       6.043   4.243  14.725  0.00  0.00    +0.000 A 
ATOM     21  C   UNL     1       6.909   5.276  15.107  0.00  0.00    +0.000 A 
ATOM     22  C   UNL     1       6.784   5.858  16.382  0.00  0.00    +0.000 A 
ATOM     23  C   UNL     1       5.780   5.384  17.239  0.00  0.00    +0.000 A 
BRANCH  21  24
ATOM     24  O   UNL     1       7.862   5.547  14.159  0.00  0.00    +0.000 OA
ATOM     25  C   UNL     1       7.675   4.962  12.877  0.00  0.00    +0.000 C 
ENDBRANCH  21  24
BRANCH  22  26
ATOM     26  O   UNL     1       7.687   6.819  16.748  0.00  0.00    +0.000 OA
ATOM     27  C   UNL     1       7.828   7.107  18.134  0.00  0.00    +0.000 C 
ENDBRANCH  22  26
ENDBRANCH  17  18
ENDBRANCH  16  17
ENDBRANCH   2  16
TORSDOF 13
ENDMDL
MODEL 4
REMARK VINA RESULT:      -6.7      1.200      1.474
REMARK  Name = 
REMARK  18 active torsions:
REMARK  status: ('A' for Active; 'I' for Inactive)
REMARK    1  A    between atoms: C_1  and  C_2
REMARK    2  A    between atoms: C_2  and  C_3
REMARK    3  A    between atoms: C_3  and  C_5
REMARK    4  A    between atoms: C_5  and  C_6
REMARK    5  A    between atoms: C_5  and  C_24
REMARK    6  A    between atoms: C_6  and  C_7
REMARK    7  A    between atoms: C_7  and  C_8
REMARK    8  A    between atoms: C_8  and  C_22
REMARK    9  A    between atoms: C_9  and  C_10
REMARK   10  A    between atoms: C_10  and  C_11
REMARK   11  A    between atoms: C_11  and  C_12
REMARK   12  A    between atoms: C_15  and  O_16
REMARK   13  A    between atoms: O_16  and  C_17
REMARK   14  A    between atoms: C_18  and  O_19
REMARK   15  A    between atoms: O_19  and  C_20
REMARK   16  A    between atoms: C_22  and  C_23
REMARK   17  A    between atoms: C_24  and  C_26
REMARK   18  A    between atoms: C_26  and  C_27
REMARK                            x       y       z     vdW  Elec       q    Type
REMARK                         _______ _______ _______ _____ _____    ______ ____
ROOT
ATOM      1  C   UNL     1       2.941   5.842  18.474  0.00  0.00    +0.000 C 
ATOM      2  C   UNL     1       2.832   7.186  18.555  0.00  0.00    +0.000 C 
ENDROOT
BRANCH   1   3
ATOM      3  C   UNL     1       1.888   4.930  17.872  0.00  0.00    +0.000 C 
ATOM      4  C   UNL     1       1.426   3.836  18.830  0.00  0.00    +0.000 C 
ENDBRANCH   1   3
BRANCH   1   5
ATOM      5  C   UNL     1       4.150   5.149  19.073  0.00  0.00    +0.000 C 
BRANCH   5   6
ATOM      6  C   UNL     1       5.026   4.483  18.002  0.00  0.00    +0.000 C 
BRANCH   6   7
ATOM      7  C   UNL     1       5.926   5.460  17.224  0.00  0.00    +0.000 C 
BRANCH   7   8
ATOM      8  C   UNL     1       5.781   5.311  15.711  0.00  0.00    +0.000 C 
ATOM      9  O   UNL     1       5.567   6.283  14.985  0.00  0.00    +0.000 OA
BRANCH   8  11
ATOM     10  C   UNL     1       5.734   3.903  13.631  0.00  0.00    +0.000 C 
ATOM     11  C   UNL     1       6.014   3.927  15.125  0.00  0.00    +0.000 C 
ENDBRANCH   8  11
ENDBRANCH   7   8
BRANCH   7  12
ATOM     12  C   UNL     1       7.362   5.382  17.715  0.00  0.00    +0.000 C 
ATOM     13  O   UNL     1       8.069   4.400  17.486  0.00  0.00    +0.000 OA
BRANCH  12  14
ATOM     14  C   UNL     1       7.903   6.596  18.455  0.00  0.00    +0.000 C 
ATOM     15  C   UNL     1       7.719   7.882  17.668  0.00  0.00    +0.000 C 
ENDBRANCH  12  14
ENDBRANCH   7  12
ENDBRANCH   6   7
ENDBRANCH   5   6
ENDBRANCH   1   5
BRANCH   2  16
ATOM     16  C   UNL     1       1.641   8.002  18.139  0.00  0.00    +0.000 C 
BRANCH  16  17
ATOM     17  C   UNL     1       1.994   9.409  17.638  0.00  0.00    +0.000 C 
BRANCH  17  18
ATOM     18  C   UNL     1       1.518  10.414  18.665  0.00  0.00    +0.000 A 
ATOM     19  C   UNL     1       1.893  11.753  18.573  0.00  0.00    +0.000 A 
ATOM     20  C   UNL     1       1.612  12.625  19.626  0.00  0.00    +0.000 A 
ATOM     21  C   UNL     1       0.948  12.178  20.775  0.00  0.00    +0.000 A 
ATOM     22  C   UNL     1       0.553  10.832  20.876  0.00  0.00    +0.000 A 
ATOM     23  C   UNL     1       0.833   9.968  19.806  0.00  0.00    +0.000 A 
BRANCH  21  24
ATOM     24  O   UNL     1       0.830  13.153  21.732  0.00  0.00    +0.000 OA
ATOM     25  C   UNL     1      -0.182  14.130  21.529  0.00  0.00    +0.000 C 
ENDBRANCH  21  24
BRANCH  22  26
ATOM     26  O   UNL     1      -0.035  10.413  22.039  0.00  0.00    +0.000 OA
ATOM     27  C   UNL     1      -0.311   9.024  22.184  0.00  0.00    +0.000 C 
ENDBRANCH  22  26
ENDBRANCH  17  18
ENDBRANCH  16  17
ENDBRANCH   2  16
TORSDOF 13
ENDMDL
MODEL 5
REMARK VINA RESULT:      -6.7      1.283      1.460
REMARK  Name = 
REMARK  18 active torsions:
REMARK  status: ('A' for Active; 'I' for Inactive)
REMARK    1  A    between atoms: C_1  and  C_2
REMARK    2  A    between atoms: C_2  and  C_3
REMARK    3  A    between atoms: C_3  and  C_5
REMARK    4  A    between atoms: C_5  and  C_6
REMARK    5  A    between atoms: C_5  and  C_24
REMARK    6  A    between atoms: C_6  and  C_7
REMARK    7  A    between atoms: C_7  and  C_8
REMARK    8  A    between atoms: C_8  and  C_22
REMARK    9  A    between atoms: C_9  and  C_10
REMARK   10  A    between atoms: C_10  and  C_11
REMARK   11  A    between atoms: C_11  and  C_12
REMARK   12  A    between atoms: C_15  and  O_16
REMARK   13  A    between atoms: O_16  and  C_17
REMARK   14  A    between atoms: C_18  and  O_19
REMARK   15  A    between atoms: O_19  and  C_20
REMARK   16  A    between atoms: C_22  and  C_23
REMARK   17  A    between atoms: C_24  and  C_26
REMARK   18  A    between atoms: C_26  and  C_27
REMARK                            x       y       z     vdW  Elec       q    Type
REMARK                         _______ _______ _______ _____ _____    ______ ____
ROOT
ATOM      1  C   UNL     1       3.236   4.700  18.136  0.00  0.00    +0.000 C 
ATOM      2  C   UNL     1       2.746   5.934  17.890  0.00  0.00    +0.000 C 
ENDROOT
BRANCH   1   3
ATOM      3  C   UNL     1       3.465   4.127  19.523  0.00  0.00    +0.000 C 
ATOM      4  C   UNL     1       2.196   3.564  20.154  0.00  0.00    +0.000 C 
ENDBRANCH   1   3
BRANCH   1   5
ATOM      5  C   UNL     1       3.662   3.816  16.979  0.00  0.00    +0.000 C 
BRANCH   5   6
ATOM      6  C   UNL     1       5.175   3.883  16.725  0.00  0.00    +0.000 C 
BRANCH   6   7
ATOM      7  C   UNL     1       5.633   5.136  15.959  0.00  0.00    +0.000 C 
BRANCH   7   8
ATOM      8  C   UNL     1       6.417   4.794  14.693  0.00  0.00    +0.000 C 
ATOM      9  O   UNL     1       7.562   5.211  14.511  0.00  0.00    +0.000 OA
BRANCH   8  11
ATOM     10  C   UNL     1       6.580   3.702  12.436  0.00  0.00    +0.000 C 
ATOM     11  C   UNL     1       5.765   3.832  13.712  0.00  0.00    +0.000 C 
ENDBRANCH   8  11
ENDBRANCH   7   8
BRANCH   7  12
ATOM     12  C   UNL     1       6.350   6.106  16.883  0.00  0.00    +0.000 C 
ATOM     13  O   UNL     1       6.320   7.322  16.689  0.00  0.00    +0.000 OA
BRANCH  12  14
ATOM     14  C   UNL     1       7.060   5.510  18.088  0.00  0.00    +0.000 C 
ATOM     15  C   UNL     1       7.994   6.503  18.758  0.00  0.00    +0.000 C 
ENDBRANCH  12  14
ENDBRANCH   7  12
ENDBRANCH   6   7
ENDBRANCH   5   6
ENDBRANCH   1   5
BRANCH   2  16
ATOM     16  C   UNL     1       2.415   6.975  18.922  0.00  0.00    +0.000 C 
BRANCH  16  17
ATOM     17  C   UNL     1       2.468   8.415  18.394  0.00  0.00    +0.000 C 
BRANCH  17  18
ATOM     18  C   UNL     1       1.239   9.148  18.885  0.00  0.00    +0.000 A 
ATOM     19  C   UNL     1       0.561  10.034  18.050  0.00  0.00    +0.000 A 
ATOM     20  C   UNL     1      -0.447  10.845  18.572  0.00  0.00    +0.000 A 
ATOM     21  C   UNL     1      -0.799  10.777  19.927  0.00  0.00    +0.000 A 
ATOM     22  C   UNL     1      -0.132   9.878  20.778  0.00  0.00    +0.000 A 
ATOM     23  C   UNL     1       0.873   9.062  20.237  0.00  0.00    +0.000 A 
BRANCH  21  24
ATOM     24  O   UNL     1      -1.752  11.700  20.274  0.00  0.00    +0.000 OA
ATOM     25  C   UNL     1      -1.681  12.966  19.632  0.00  0.00    +0.000 C 
ENDBRANCH  21  24
BRANCH  22  26
ATOM     26  O   UNL     1      -0.455   9.882  22.108  0.00  0.00    +0.000 OA
ATOM     27  C   UNL     1       0.519   9.409  23.032  0.00  0.00    +0.000 C 
ENDBRANCH  22  26
ENDBRANCH  17  18
ENDBRANCH  16  17
ENDBRANCH   2  16
TORSDOF 13
ENDMDL
MODEL 6
REMARK VINA RESULT:      -6.6      2.484      4.427
REMARK  Name = 
REMARK  18 active torsions:
REMARK  status: ('A' for Active; 'I' for Inactive)
REMARK    1  A    between atoms: C_1  and  C_2
REMARK    2  A    between atoms: C_2  and  C_3
REMARK    3  A    between atoms: C_3  and  C_5
REMARK    4  A    between atoms: C_5  and  C_6
REMARK    5  A    between atoms: C_5  and  C_24
REMARK    6  A    between atoms: C_6  and  C_7
REMARK    7  A    between atoms: C_7  and  C_8
REMARK    8  A    between atoms: C_8  and  C_22
REMARK    9  A    between atoms: C_9  and  C_10
REMARK   10  A    between atoms: C_10  and  C_11
REMARK   11  A    between atoms: C_11  and  C_12
REMARK   12  A    between atoms: C_15  and  O_16
REMARK   13  A    between atoms: O_16  and  C_17
REMARK   14  A    between atoms: C_18  and  O_19
REMARK   15  A    between atoms: O_19  and  C_20
REMARK   16  A    between atoms: C_22  and  C_23
REMARK   17  A    between atoms: C_24  and  C_26
REMARK   18  A    between atoms: C_26  and  C_27
REMARK                            x       y       z     vdW  Elec       q    Type
REMARK                         _______ _______ _______ _____ _____    ______ ____
ROOT
ATOM      1  C   UNL     1       4.411   6.397  18.415  0.00  0.00    +0.000 C 
ATOM      2  C   UNL     1       3.159   6.801  18.719  0.00  0.00    +0.000 C 
ENDROOT
BRANCH   1   3
ATOM      3  C   UNL     1       5.136   6.744  17.127  0.00  0.00    +0.000 C 
ATOM      4  C   UNL     1       5.002   5.665  16.057  0.00  0.00    +0.000 C 
ENDBRANCH   1   3
BRANCH   1   5
ATOM      5  C   UNL     1       5.157   5.479  19.365  0.00  0.00    +0.000 C 
BRANCH   5   6
ATOM      6  C   UNL     1       5.108   4.013  18.912  0.00  0.00    +0.000 C 
BRANCH   6   7
ATOM      7  C   UNL     1       3.800   3.284  19.266  0.00  0.00    +0.000 C 
BRANCH   7   8
ATOM      8  C   UNL     1       3.892   2.527  20.590  0.00  0.00    +0.000 C 
ATOM      9  O   UNL     1       4.928   1.959  20.938  0.00  0.00    +0.000 OA
BRANCH   8  11
ATOM     10  C   UNL     1       1.882   3.864  21.287  0.00  0.00    +0.000 C 
ATOM     11  C   UNL     1       2.682   2.590  21.509  0.00  0.00    +0.000 C 
ENDBRANCH   8  11
ENDBRANCH   7   8
BRANCH   7  12
ATOM     12  C   UNL     1       3.321   2.433  18.102  0.00  0.00    +0.000 C 
ATOM     13  O   UNL     1       3.593   1.234  18.026  0.00  0.00    +0.000 OA
BRANCH  12  14
ATOM     14  C   UNL     1       2.445   3.117  17.065  0.00  0.00    +0.000 C 
ATOM     15  C   UNL     1       1.401   4.023  17.695  0.00  0.00    +0.000 C 
ENDBRANCH  12  14
ENDBRANCH   7  12
ENDBRANCH   6   7
ENDBRANCH   5   6
ENDBRANCH   1   5
BRANCH   2  16
ATOM     16  C   UNL     1       2.242   7.588  17.826  0.00  0.00    +0.000 C 
BRANCH  16  17
ATOM     17  C   UNL     1       2.433   9.108  17.922  0.00  0.00    +0.000 C 
BRANCH  17  18
ATOM     18  C   UNL     1       1.109   9.729  18.311  0.00  0.00    +0.000 A 
ATOM     19  C   UNL     1      -0.069   9.345  17.673  0.00  0.00    +0.000 A 
ATOM     20  C   UNL     1      -1.245  10.059  17.901  0.00  0.00    +0.000 A 
ATOM     21  C   UNL     1      -1.266  11.156  18.772  0.00  0.00    +0.000 A 
ATOM     22  C   UNL     1      -0.088  11.547  19.433  0.00  0.00    +0.000 A 
ATOM     23  C   UNL     1       1.086  10.814  19.201  0.00  0.00    +0.000 A 
BRANCH  21  24
ATOM     24  O   UNL     1      -2.487  11.780  18.810  0.00  0.00    +0.000 OA
ATOM     25  C   UNL     1      -3.392  11.482  17.756  0.00  0.00    +0.000 C 
ENDBRANCH  21  24
BRANCH  22  26
ATOM     26  O   UNL     1      -0.127  12.662  20.226  0.00  0.00    +0.000 OA
ATOM     27  C   UNL     1      -0.158  12.475  21.637  0.00  0.00    +0.000 C 
ENDBRANCH  22  26
ENDBRANCH  17  18
ENDBRANCH  16  17
ENDBRANCH   2  16
TORSDOF 13
ENDMDL
MODEL 7
REMARK VINA RESULT:      -6.6      1.323      8.878
REMARK  Name = 
REMARK  18 active torsions:
REMARK  status: ('A' for Active; 'I' for Inactive)
REMARK    1  A    between atoms: C_1  and  C_2
REMARK    2  A    between atoms: C_2  and  C_3
REMARK    3  A    between atoms: C_3  and  C_5
REMARK    4  A    between atoms: C_5  and  C_6
REMARK    5  A    between atoms: C_5  and  C_24
REMARK    6  A    between atoms: C_6  and  C_7
REMARK    7  A    between atoms: C_7  and  C_8
REMARK    8  A    between atoms: C_8  and  C_22
REMARK    9  A    between atoms: C_9  and  C_10
REMARK   10  A    between atoms: C_10  and  C_11
REMARK   11  A    between atoms: C_11  and  C_12
REMARK   12  A    between atoms: C_15  and  O_16
REMARK   13  A    between atoms: O_16  and  C_17
REMARK   14  A    between atoms: C_18  and  O_19
REMARK   15  A    between atoms: O_19  and  C_20
REMARK   16  A    between atoms: C_22  and  C_23
REMARK   17  A    between atoms: C_24  and  C_26
REMARK   18  A    between atoms: C_26  and  C_27
REMARK                            x       y       z     vdW  Elec       q    Type
REMARK                         _______ _______ _______ _____ _____    ______ ____
ROOT
ATOM      1  C   UNL     1       1.938   6.747  19.813  0.00  0.00    +0.000 C 
ATOM      2  C   UNL     1       2.053   5.484  20.278  0.00  0.00    +0.000 C 
ENDROOT
BRANCH   1   3
ATOM      3  C   UNL     1       1.902   7.120  18.342  0.00  0.00    +0.000 C 
ATOM      4  C   UNL     1       3.199   7.757  17.855  0.00  0.00    +0.000 C 
ENDBRANCH   1   3
BRANCH   1   5
ATOM      5  C   UNL     1       1.908   7.907  20.789  0.00  0.00    +0.000 C 
BRANCH   5   6
ATOM      6  C   UNL     1       0.666   8.791  20.600  0.00  0.00    +0.000 C 
BRANCH   6   7
ATOM      7  C   UNL     1       0.971  10.294  20.476  0.00  0.00    +0.000 C 
BRANCH   7   8
ATOM      8  C   UNL     1       0.335  11.115  21.595  0.00  0.00    +0.000 C 
ATOM      9  O   UNL     1       0.501  12.333  21.677  0.00  0.00    +0.000 OA
BRANCH   8  11
ATOM     10  C   UNL     1      -1.642  11.321  23.133  0.00  0.00    +0.000 C 
ATOM     11  C   UNL     1      -0.599  10.383  22.547  0.00  0.00    +0.000 C 
ENDBRANCH   8  11
ENDBRANCH   7   8
BRANCH   7  12
ATOM     12  C   UNL     1       0.647  10.800  19.080  0.00  0.00    +0.000 C 
ATOM     13  O   UNL     1       1.372  11.614  18.506  0.00  0.00    +0.000 OA
BRANCH  12  14
ATOM     14  C   UNL     1      -0.583  10.216  18.405  0.00  0.00    +0.000 C 
ATOM     15  C   UNL     1      -1.685  11.244  18.221  0.00  0.00    +0.000 C 
ENDBRANCH  12  14
ENDBRANCH   7  12
ENDBRANCH   6   7
ENDBRANCH   5   6
ENDBRANCH   1   5
BRANCH   2  16
ATOM     16  C   UNL     1       2.237   4.248  19.444  0.00  0.00    +0.000 C 
BRANCH  16  17
ATOM     17  C   UNL     1       3.653   3.659  19.507  0.00  0.00    +0.000 C 
BRANCH  17  18
ATOM     18  C   UNL     1       4.507   4.360  18.473  0.00  0.00    +0.000 A 
ATOM     19  C   UNL     1       4.223   4.231  17.114  0.00  0.00    +0.000 A 
ATOM     20  C   UNL     1       5.126   4.718  16.169  0.00  0.00    +0.000 A 
ATOM     21  C   UNL     1       6.315   5.346  16.563  0.00  0.00    +0.000 A 
ATOM     22  C   UNL     1       6.608   5.494  17.930  0.00  0.00    +0.000 A 
ATOM     23  C   UNL     1       5.687   5.008  18.870  0.00  0.00    +0.000 A 
BRANCH  21  24
ATOM     24  O   UNL     1       7.111   5.687  15.499  0.00  0.00    +0.000 OA
ATOM     25  C   UNL     1       7.094   4.812  14.380  0.00  0.00    +0.000 C 
ENDBRANCH  21  24
BRANCH  22  26
ATOM     26  O   UNL     1       7.807   6.053  18.280  0.00  0.00    +0.000 OA
ATOM     27  C   UNL     1       7.931   7.468  18.200  0.00  0.00    +0.000 C 
ENDBRANCH  22  26
ENDBRANCH  17  18
ENDBRANCH  16  17
ENDBRANCH   2  16
TORSDOF 13
ENDMDL
MODEL 8
REMARK VINA RESULT:      -6.5      1.426      2.973
REMARK  Name = 
REMARK  18 active torsions:
REMARK  status: ('A' for Active; 'I' for Inactive)
REMARK    1  A    between atoms: C_1  and  C_2
REMARK    2  A    between atoms: C_2  and  C_3
REMARK    3  A    between atoms: C_3  and  C_5
REMARK    4  A    between atoms: C_5  and  C_6
REMARK    5  A    between atoms: C_5  and  C_24
REMARK    6  A    between atoms: C_6  and  C_7
REMARK    7  A    between atoms: C_7  and  C_8
REMARK    8  A    between atoms: C_8  and  C_22
REMARK    9  A    between atoms: C_9  and  C_10
REMARK   10  A    between atoms: C_10  and  C_11
REMARK   11  A    between atoms: C_11  and  C_12
REMARK   12  A    between atoms: C_15  and  O_16
REMARK   13  A    between atoms: O_16  and  C_17
REMARK   14  A    between atoms: C_18  and  O_19
REMARK   15  A    between atoms: O_19  and  C_20
REMARK   16  A    between atoms: C_22  and  C_23
REMARK   17  A    between atoms: C_24  and  C_26
REMARK   18  A    between atoms: C_26  and  C_27
REMARK                            x       y       z     vdW  Elec       q    Type
REMARK                         _______ _______ _______ _____ _____    ______ ____
ROOT
ATOM      1  C   UNL     1       2.828   6.121  18.868  0.00  0.00    +0.000 C 
ATOM      2  C   UNL     1       2.596   7.377  18.432  0.00  0.00    +0.000 C 
ENDROOT
BRANCH   1   3
ATOM      3  C   UNL     1       2.194   5.511  20.105  0.00  0.00    +0.000 C 
ATOM      4  C   UNL     1       1.424   4.227  19.811  0.00  0.00    +0.000 C 
ENDBRANCH   1   3
BRANCH   1   5
ATOM      5  C   UNL     1       3.833   5.247  18.142  0.00  0.00    +0.000 C 
BRANCH   5   6
ATOM      6  C   UNL     1       4.853   6.075  17.346  0.00  0.00    +0.000 C 
BRANCH   6   7
ATOM      7  C   UNL     1       6.292   5.537  17.409  0.00  0.00    +0.000 C 
BRANCH   7   8
ATOM      8  C   UNL     1       7.253   6.513  18.086  0.00  0.00    +0.000 C 
ATOM      9  O   UNL     1       7.832   6.227  19.135  0.00  0.00    +0.000 OA
BRANCH   8  11
ATOM     10  C   UNL     1       8.375   8.758  18.212  0.00  0.00    +0.000 C 
ATOM     11  C   UNL     1       7.547   7.814  17.354  0.00  0.00    +0.000 C 
ENDBRANCH   8  11
ENDBRANCH   7   8
BRANCH   7  12
ATOM     12  C   UNL     1       6.756   5.064  16.042  0.00  0.00    +0.000 C 
ATOM     13  O   UNL     1       7.853   4.526  15.884  0.00  0.00    +0.000 OA
BRANCH  12  14
ATOM     14  C   UNL     1       5.783   5.239  14.887  0.00  0.00    +0.000 C 
ATOM     15  C   UNL     1       5.751   4.030  13.968  0.00  0.00    +0.000 C 
ENDBRANCH  12  14
ENDBRANCH   7  12
ENDBRANCH   6   7
ENDBRANCH   5   6
ENDBRANCH   1   5
BRANCH   2  16
ATOM     16  C   UNL     1       1.743   8.408  19.117  0.00  0.00    +0.000 C 
BRANCH  16  17
ATOM     17  C   UNL     1       1.501   9.672  18.281  0.00  0.00    +0.000 C 
BRANCH  17  18
ATOM     18  C   UNL     1       0.932  10.741  19.189  0.00  0.00    +0.000 A 
ATOM     19  C   UNL     1       0.910  12.075  18.786  0.00  0.00    +0.000 A 
ATOM     20  C   UNL     1       0.566  13.069  19.703  0.00  0.00    +0.000 A 
ATOM     21  C   UNL     1       0.231  12.749  21.025  0.00  0.00    +0.000 A 
ATOM     22  C   UNL     1       0.237  11.405  21.441  0.00  0.00    +0.000 A 
ATOM     23  C   UNL     1       0.576  10.415  20.507  0.00  0.00    +0.000 A 
BRANCH  21  24
ATOM     24  O   UNL     1      -0.001  13.858  21.797  0.00  0.00    +0.000 OA
ATOM     25  C   UNL     1       1.026  14.839  21.833  0.00  0.00    +0.000 C 
ENDBRANCH  21  24
BRANCH  22  26
ATOM     26  O   UNL     1      -0.031  11.132  22.755  0.00  0.00    +0.000 OA
ATOM     27  C   UNL     1      -0.672   9.898  23.062  0.00  0.00    +0.000 C 
ENDBRANCH  22  26
ENDBRANCH  17  18
ENDBRANCH  16  17
ENDBRANCH   2  16
TORSDOF 13
ENDMDL
MODEL 9
REMARK VINA RESULT:      -6.5      1.569      1.957
REMARK  Name = 
REMARK  18 active torsions:
REMARK  status: ('A' for Active; 'I' for Inactive)
REMARK    1  A    between atoms: C_1  and  C_2
REMARK    2  A    between atoms: C_2  and  C_3
REMARK    3  A    between atoms: C_3  and  C_5
REMARK    4  A    between atoms: C_5  and  C_6
REMARK    5  A    between atoms: C_5  and  C_24
REMARK    6  A    between atoms: C_6  and  C_7
REMARK    7  A    between atoms: C_7  and  C_8
REMARK    8  A    between atoms: C_8  and  C_22
REMARK    9  A    between atoms: C_9  and  C_10
REMARK   10  A    between atoms: C_10  and  C_11
REMARK   11  A    between atoms: C_11  and  C_12
REMARK   12  A    between atoms: C_15  and  O_16
REMARK   13  A    between atoms: O_16  and  C_17
REMARK   14  A    between atoms: C_18  and  O_19
REMARK   15  A    between atoms: O_19  and  C_20
REMARK   16  A    between atoms: C_22  and  C_23
REMARK   17  A    between atoms: C_24  and  C_26
REMARK   18  A    between atoms: C_26  and  C_27
REMARK                            x       y       z     vdW  Elec       q    Type
REMARK                         _______ _______ _______ _____ _____    ______ ____
ROOT
ATOM      1  C   UNL     1       1.960   4.953  18.458  0.00  0.00    +0.000 C 
ATOM      2  C   UNL     1       2.346   6.148  17.962  0.00  0.00    +0.000 C 
ENDROOT
BRANCH   1   3
ATOM      3  C   UNL     1       1.400   4.742  19.853  0.00  0.00    +0.000 C 
ATOM      4  C   UNL     1       2.483   4.519  20.904  0.00  0.00    +0.000 C 
ENDBRANCH   1   3
BRANCH   1   5
ATOM      5  C   UNL     1       2.141   3.699  17.623  0.00  0.00    +0.000 C 
BRANCH   5   6
ATOM      6  C   UNL     1       3.592   3.196  17.640  0.00  0.00    +0.000 C 
BRANCH   6   7
ATOM      7  C   UNL     1       4.644   4.293  17.406  0.00  0.00    +0.000 C 
BRANCH   7   8
ATOM      8  C   UNL     1       5.442   4.075  16.121  0.00  0.00    +0.000 C 
ATOM      9  O   UNL     1       5.803   2.951  15.769  0.00  0.00    +0.000 OA
BRANCH   8  11
ATOM     10  C   UNL     1       6.905   5.104  14.357  0.00  0.00    +0.000 C 
ATOM     11  C   UNL     1       5.682   5.291  15.240  0.00  0.00    +0.000 C 
ENDBRANCH   8  11
ENDBRANCH   7   8
BRANCH   7  12
ATOM     12  C   UNL     1       5.508   4.489  18.641  0.00  0.00    +0.000 C 
ATOM     13  O   UNL     1       5.615   3.612  19.499  0.00  0.00    +0.000 OA
BRANCH  12  14
ATOM     14  C   UNL     1       6.278   5.797  18.741  0.00  0.00    +0.000 C 
ATOM     15  C   UNL     1       7.780   5.581  18.803  0.00  0.00    +0.000 C 
ENDBRANCH  12  14
ENDBRANCH   7  12
ENDBRANCH   6   7
ENDBRANCH   5   6
ENDBRANCH   1   5
BRANCH   2  16
ATOM     16  C   UNL     1       2.363   7.451  18.710  0.00  0.00    +0.000 C 
BRANCH  16  17
ATOM     17  C   UNL     1       1.747   8.623  17.934  0.00  0.00    +0.000 C 
BRANCH  17  18
ATOM     18  C   UNL     1       1.298   9.670  18.931  0.00  0.00    +0.000 A 
ATOM     19  C   UNL     1       1.248  11.016  18.571  0.00  0.00    +0.000 A 
ATOM     20  C   UNL     1       1.023  11.985  19.549  0.00  0.00    +0.000 A 
ATOM     21  C   UNL     1       0.836  11.629  20.890  0.00  0.00    +0.000 A 
ATOM     22  C   UNL     1       0.871  10.274  21.266  0.00  0.00    +0.000 A 
ATOM     23  C   UNL     1       1.089   9.308  20.271  0.00  0.00    +0.000 A 
BRANCH  21  24
ATOM     24  O   UNL     1       0.707  12.717  21.715  0.00  0.00    +0.000 OA
ATOM     25  C   UNL     1       1.174  13.961  21.211  0.00  0.00    +0.000 C 
ENDBRANCH  21  24
BRANCH  22  26
ATOM     26  O   UNL     1       0.750   9.964  22.593  0.00  0.00    +0.000 OA
ATOM     27  C   UNL     1      -0.559   9.752  23.111  0.00  0.00    +0.000 C 
ENDBRANCH  22  26
ENDBRANCH  17  18
ENDBRANCH  16  17
ENDBRANCH   2  16
TORSDOF 13
ENDMDL
