MODEL 1
REMARK VINA RESULT:      -6.9      0.000      0.000
REMARK  Name = 
REMARK  7 active torsions:
REMARK  status: ('A' for Active; 'I' for Inactive)
REMARK    1  A    between atoms: C_2  and  C_3
REMARK    2  A    between atoms: C_3  and  C_4
REMARK    3  A    between atoms: C_3  and  O_5
REMARK    4  A    between atoms: O_5  and  C_6
REMARK    5  A    between atoms: C_6  and  C_8
REMARK    6  A    between atoms: C_12  and  C_13
REMARK    7  A    between atoms: N_15  and  C_16
REMARK                            x       y       z     vdW  Elec       q    Type
REMARK                         _______ _______ _______ _____ _____    ______ ____
ROOT
ATOM      1  C   UNL     1       4.273   3.735  17.615  0.00  0.00    +0.000 A 
ATOM      2  C   UNL     1       5.110   4.152  18.655  0.00  0.00    +0.000 A 
ATOM      3  C   UNL     1       6.386   4.629  18.373  0.00  0.00    +0.000 A 
ATOM      4  C   UNL     1       6.837   4.677  17.053  0.00  0.00    +0.000 A 
ATOM      5  C   UNL     1       6.024   4.240  15.994  0.00  0.00    +0.000 A 
ATOM      6  C   UNL     1       4.739   3.755  16.286  0.00  0.00    +0.000 A 
ENDROOT
BRANCH   5   7
ATOM      7  C   UNL     1       6.578   4.371  14.604  0.00  0.00    +0.000 C 
ATOM      8  O   UNL     1       7.406   5.245  14.362  0.00  0.00    +0.000 OA
ATOM      9  N   UNL     1       6.116   3.498  13.639  0.00  0.00    +0.000 N 
ATOM     10  C   UNL     1       6.561   3.563  12.267  0.00  0.00    +0.000 C 
ATOM     11  H   UNL     1       5.439   2.785  13.860  0.00  0.00    +0.000 HD
ENDBRANCH   5   7
BRANCH   1  12
ATOM     12  C   UNL     1       2.866   3.326  17.877  0.00  0.00    +0.000 C 
ATOM     13  O   UNL     1       1.981   3.421  17.040  0.00  0.00    +0.000 OA
BRANCH  12  14
ATOM     14  O   UNL     1       2.721   2.878  19.150  0.00  0.00    +0.000 OA
BRANCH  14  15
ATOM     15  C   UNL     1       1.551   3.345  19.841  0.00  0.00    +0.000 C 
ATOM     16  C   UNL     1       1.376   2.545  21.130  0.00  0.00    +0.000 C 
BRANCH  15  18
ATOM     17  C   UNL     1       1.823   5.936  20.486  0.00  0.00    +0.000 C 
ATOM     18  C   UNL     1       1.714   4.780  20.165  0.00  0.00    +0.000 C 
ENDBRANCH  15  18
ENDBRANCH  14  15
ENDBRANCH  12  14
ENDBRANCH   1  12
TORSDOF 5
ENDMDL
MODEL 2
REMARK VINA RESULT:      -6.8      2.330      6.498
REMARK  Name = 
REMARK  7 active torsions:
REMARK  status: ('A' for Active; 'I' for Inactive)
REMARK    1  A    between atoms: C_2  and  C_3
REMARK    2  A    between atoms: C_3  and  C_4
REMARK    3  A    between atoms: C_3  and  O_5
REMARK    4  A    between atoms: O_5  and  C_6
REMARK    5  A    between atoms: C_6  and  C_8
REMARK    6  A    between atoms: C_12  and  C_13
REMARK    7  A    between atoms: N_15  and  C_16
REMARK                            x       y       z     vdW  Elec       q    Type
REMARK                         _______ _______ _______ _____ _____    ______ ____
ROOT
ATOM      1  C   UNL     1       5.564   4.948  15.509  0.00  0.00    +0.000 A 
ATOM      2  C   UNL     1       5.350   6.259  15.946  0.00  0.00    +0.000 A 
ATOM      3  C   UNL     1       4.436   6.513  16.964  0.00  0.00    +0.000 A 
ATOM      4  C   UNL     1       3.723   5.460  17.538  0.00  0.00    +0.000 A 
ATOM      5  C   UNL     1       3.902   4.138  17.099  0.00  0.00    +0.000 A 
ATOM      6  C   UNL     1       4.821   3.890  16.068  0.00  0.00    +0.000 A 
ENDROOT
BRANCH   5   7
ATOM      7  C   UNL     1       3.122   3.067  17.807  0.00  0.00    +0.000 C 
ATOM      8  O   UNL     1       3.558   1.920  17.835  0.00  0.00    +0.000 OA
ATOM      9  N   UNL     1       1.924   3.422  18.393  0.00  0.00    +0.000 N 
ATOM     10  C   UNL     1       1.085   2.461  19.069  0.00  0.00    +0.000 C 
ATOM     11  H   UNL     1       1.587   4.371  18.362  0.00  0.00    +0.000 HD
ENDBRANCH   5   7
BRANCH   1  12
ATOM     12  C   UNL     1       6.614   4.635  14.501  0.00  0.00    +0.000 C 
ATOM     13  O   UNL     1       7.627   5.305  14.370  0.00  0.00    +0.000 OA
BRANCH  12  14
ATOM     14  O   UNL     1       6.268   3.552  13.760  0.00  0.00    +0.000 OA
BRANCH  14  15
ATOM     15  C   UNL     1       6.308   3.736  12.336  0.00  0.00    +0.000 C 
ATOM     16  C   UNL     1       7.308   2.755  11.730  0.00  0.00    +0.000 C 
BRANCH  15  18
ATOM     17  C   UNL     1       3.886   3.225  11.298  0.00  0.00    +0.000 C 
ATOM     18  C   UNL     1       4.962   3.487  11.772  0.00  0.00    +0.000 C 
ENDBRANCH  15  18
ENDBRANCH  14  15
ENDBRANCH  12  14
ENDBRANCH   1  12
TORSDOF 5
ENDMDL
MODEL 3
REMARK VINA RESULT:      -6.8      1.596      2.177
REMARK  Name = 
REMARK  7 active torsions:
REMARK  status: ('A' for Active; 'I' for Inactive)
REMARK    1  A    between atoms: C_2  and  C_3
REMARK    2  A    between atoms: C_3  and  C_4
REMARK    3  A    between atoms: C_3  and  O_5
REMARK    4  A    between atoms: O_5  and  C_6
REMARK    5  A    between atoms: C_6  and  C_8
REMARK    6  A    between atoms: C_12  and  C_13
REMARK    7  A    between atoms: N_15  and  C_16
REMARK                            x       y       z     vdW  Elec       q    Type
REMARK                         _______ _______ _______ _____ _____    ______ ____
ROOT
ATOM      1  C   UNL     1       4.781   4.805  18.175  0.00  0.00    +0.000 A 
ATOM      2  C   UNL     1       4.191   6.073  18.174  0.00  0.00    +0.000 A 
ATOM      3  C   UNL     1       4.334   6.907  17.070  0.00  0.00    +0.000 A 
ATOM      4  C   UNL     1       5.080   6.482  15.968  0.00  0.00    +0.000 A 
ATOM      5  C   UNL     1       5.703   5.224  15.957  0.00  0.00    +0.000 A 
ATOM      6  C   UNL     1       5.559   4.391  17.077  0.00  0.00    +0.000 A 
ENDROOT
BRANCH   5   7
ATOM      7  C   UNL     1       6.447   4.838  14.711  0.00  0.00    +0.000 C 
ATOM      8  O   UNL     1       7.570   5.292  14.511  0.00  0.00    +0.000 OA
ATOM      9  N   UNL     1       5.822   3.986  13.823  0.00  0.00    +0.000 N 
ATOM     10  C   UNL     1       6.439   3.581  12.582  0.00  0.00    +0.000 C 
ATOM     11  H   UNL     1       4.901   3.620  14.008  0.00  0.00    +0.000 HD
ENDBRANCH   5   7
BRANCH   1  12
ATOM     12  C   UNL     1       4.552   3.852  19.295  0.00  0.00    +0.000 C 
ATOM     13  O   UNL     1       5.347   2.973  19.590  0.00  0.00    +0.000 OA
BRANCH  12  14
ATOM     14  O   UNL     1       3.356   4.084  19.893  0.00  0.00    +0.000 OA
BRANCH  14  15
ATOM     15  C   UNL     1       2.672   2.919  20.384  0.00  0.00    +0.000 C 
ATOM     16  C   UNL     1       2.075   3.228  21.754  0.00  0.00    +0.000 C 
BRANCH  15  18
ATOM     17  C   UNL     1       0.675   2.294  18.704  0.00  0.00    +0.000 C 
ATOM     18  C   UNL     1       1.592   2.552  19.442  0.00  0.00    +0.000 C 
ENDBRANCH  15  18
ENDBRANCH  14  15
ENDBRANCH  12  14
ENDBRANCH   1  12
TORSDOF 5
ENDMDL
MODEL 4
REMARK VINA RESULT:      -6.7      1.300      1.598
REMARK  Name = 
REMARK  7 active torsions:
REMARK  status: ('A' for Active; 'I' for Inactive)
REMARK    1  A    between atoms: C_2  and  C_3
REMARK    2  A    between atoms: C_3  and  C_4
REMARK    3  A    between atoms: C_3  and  O_5
REMARK    4  A    between atoms: O_5  and  C_6
REMARK    5  A    between atoms: C_6  and  C_8
REMARK    6  A    between atoms: C_12  and  C_13
REMARK    7  A    between atoms: N_15  and  C_16
REMARK                            x       y       z     vdW  Elec       q    Type
REMARK                         _______ _______ _______ _____ _____    ______ ____
ROOT
ATOM      1  C   UNL     1       4.901   4.825  17.814  0.00  0.00    +0.000 A 
ATOM      2  C   UNL     1       5.973   4.903  18.709  0.00  0.00    +0.000 A 
ATOM      3  C   UNL     1       7.280   4.878  18.235  0.00  0.00    +0.000 A 
ATOM      4  C   UNL     1       7.523   4.760  16.866  0.00  0.00    +0.000 A 
ATOM      5  C   UNL     1       6.463   4.654  15.949  0.00  0.00    +0.000 A 
ATOM      6  C   UNL     1       5.147   4.675  16.435  0.00  0.00    +0.000 A 
ENDROOT
BRANCH   5   7
ATOM      7  C   UNL     1       6.822   4.575  14.492  0.00  0.00    +0.000 C 
ATOM      8  O   UNL     1       7.643   5.361  14.028  0.00  0.00    +0.000 OA
ATOM      9  N   UNL     1       6.193   3.617  13.724  0.00  0.00    +0.000 N 
ATOM     10  C   UNL     1       6.443   3.481  12.308  0.00  0.00    +0.000 C 
ATOM     11  H   UNL     1       5.525   2.978  14.126  0.00  0.00    +0.000 HD
ENDBRANCH   5   7
BRANCH   1  12
ATOM     12  C   UNL     1       3.495   4.961  18.283  0.00  0.00    +0.000 C 
ATOM     13  O   UNL     1       2.686   5.701  17.745  0.00  0.00    +0.000 OA
BRANCH  12  14
ATOM     14  O   UNL     1       3.272   4.189  19.376  0.00  0.00    +0.000 OA
BRANCH  14  15
ATOM     15  C   UNL     1       2.156   3.289  19.282  0.00  0.00    +0.000 C 
ATOM     16  C   UNL     1       2.586   2.030  18.534  0.00  0.00    +0.000 C 
BRANCH  15  18
ATOM     17  C   UNL     1       1.369   2.583  21.749  0.00  0.00    +0.000 C 
ATOM     18  C   UNL     1       1.701   2.928  20.644  0.00  0.00    +0.000 C 
ENDBRANCH  15  18
ENDBRANCH  14  15
ENDBRANCH  12  14
ENDBRANCH   1  12
TORSDOF 5
ENDMDL
MODEL 5
REMARK VINA RESULT:      -6.7      1.308      2.052
REMARK  Name = 
REMARK  7 active torsions:
REMARK  status: ('A' for Active; 'I' for Inactive)
REMARK    1  A    between atoms: C_2  and  C_3
REMARK    2  A    between atoms: C_3  and  C_4
REMARK    3  A    between atoms: C_3  and  O_5
REMARK    4  A    between atoms: O_5  and  C_6
REMARK    5  A    between atoms: C_6  and  C_8
REMARK    6  A    between atoms: C_12  and  C_13
REMARK    7  A    between atoms: N_15  and  C_16
REMARK                            x       y       z     vdW  Elec       q    Type
REMARK                         _______ _______ _______ _____ _____    ______ ____
ROOT
ATOM      1  C   UNL     1       5.711   4.525  18.468  0.00  0.00    +0.000 A 
ATOM      2  C   UNL     1       6.483   5.537  19.049  0.00  0.00    +0.000 A 
ATOM      3  C   UNL     1       7.366   6.275  18.267  0.00  0.00    +0.000 A 
ATOM      4  C   UNL     1       7.492   5.996  16.905  0.00  0.00    +0.000 A 
ATOM      5  C   UNL     1       6.746   4.967  16.305  0.00  0.00    +0.000 A 
ATOM      6  C   UNL     1       5.862   4.223  17.101  0.00  0.00    +0.000 A 
ENDROOT
BRANCH   5   7
ATOM      7  C   UNL     1       6.916   4.770  14.825  0.00  0.00    +0.000 C 
ATOM      8  O   UNL     1       7.677   5.504  14.201  0.00  0.00    +0.000 OA
ATOM      9  N   UNL     1       6.189   3.765  14.220  0.00  0.00    +0.000 N 
ATOM     10  C   UNL     1       6.257   3.516  12.800  0.00  0.00    +0.000 C 
ATOM     11  H   UNL     1       5.573   3.171  14.752  0.00  0.00    +0.000 HD
ENDBRANCH   5   7
BRANCH   1  12
ATOM     12  C   UNL     1       4.681   3.796  19.257  0.00  0.00    +0.000 C 
ATOM     13  O   UNL     1       4.910   2.746  19.836  0.00  0.00    +0.000 OA
BRANCH  12  14
ATOM     14  O   UNL     1       3.487   4.439  19.207  0.00  0.00    +0.000 OA
BRANCH  14  15
ATOM     15  C   UNL     1       2.481   3.949  20.108  0.00  0.00    +0.000 C 
ATOM     16  C   UNL     1       1.739   5.132  20.725  0.00  0.00    +0.000 C 
BRANCH  15  18
ATOM     17  C   UNL     1       0.737   2.377  18.807  0.00  0.00    +0.000 C 
ATOM     18  C   UNL     1       1.526   3.099  19.360  0.00  0.00    +0.000 C 
ENDBRANCH  15  18
ENDBRANCH  14  15
ENDBRANCH  12  14
ENDBRANCH   1  12
TORSDOF 5
ENDMDL
MODEL 6
REMARK VINA RESULT:      -6.7      3.132      6.396
REMARK  Name = 
REMARK  7 active torsions:
REMARK  status: ('A' for Active; 'I' for Inactive)
REMARK    1  A    between atoms: C_2  and  C_3
REMARK    2  A    between atoms: C_3  and  C_4
REMARK    3  A    between atoms: C_3  and  O_5
REMARK    4  A    between atoms: O_5  and  C_6
REMARK    5  A    between atoms: C_6  and  C_8
REMARK    6  A    between atoms: C_12  and  C_13
REMARK    7  A    between atoms: N_15  and  C_16
REMARK                            x       y       z     vdW  Elec       q    Type
REMARK                         _______ _______ _______ _____ _____    ______ ____
ROOT
ATOM      1  C   UNL     1       4.689   5.473  17.070  0.00  0.00    +0.000 A 
ATOM      2  C   UNL     1       4.450   4.131  16.756  0.00  0.00    +0.000 A 
ATOM      3  C   UNL     1       3.484   3.414  17.455  0.00  0.00    +0.000 A 
ATOM      4  C   UNL     1       2.764   4.031  18.479  0.00  0.00    +0.000 A 
ATOM      5  C   UNL     1       3.004   5.370  18.829  0.00  0.00    +0.000 A 
ATOM      6  C   UNL     1       3.984   6.085  18.124  0.00  0.00    +0.000 A 
ENDROOT
BRANCH   5   7
ATOM      7  C   UNL     1       2.150   5.960  19.915  0.00  0.00    +0.000 C 
ATOM      8  O   UNL     1       1.450   5.221  20.602  0.00  0.00    +0.000 OA
ATOM      9  N   UNL     1       2.178   7.329  20.087  0.00  0.00    +0.000 N 
ATOM     10  C   UNL     1       1.369   7.996  21.080  0.00  0.00    +0.000 C 
ATOM     11  H   UNL     1       2.764   7.917  19.515  0.00  0.00    +0.000 HD
ENDBRANCH   5   7
BRANCH   1  12
ATOM     12  C   UNL     1       5.637   6.293  16.266  0.00  0.00    +0.000 C 
ATOM     13  O   UNL     1       5.952   6.010  15.121  0.00  0.00    +0.000 OA
BRANCH  12  14
ATOM     14  O   UNL     1       6.099   7.346  16.988  0.00  0.00    +0.000 OA
BRANCH  14  15
ATOM     15  C   UNL     1       7.495   7.300  17.326  0.00  0.00    +0.000 C 
ATOM     16  C   UNL     1       7.961   8.697  17.725  0.00  0.00    +0.000 C 
BRANCH  15  18
ATOM     17  C   UNL     1       7.810   5.638  19.410  0.00  0.00    +0.000 C 
ATOM     18  C   UNL     1       7.694   6.367  18.457  0.00  0.00    +0.000 C 
ENDBRANCH  15  18
ENDBRANCH  14  15
ENDBRANCH  12  14
ENDBRANCH   1  12
TORSDOF 5
ENDMDL
MODEL 7
REMARK VINA RESULT:      -6.7      2.413      6.425
REMARK  Name = 
REMARK  7 active torsions:
REMARK  status: ('A' for Active; 'I' for Inactive)
REMARK    1  A    between atoms: C_2  and  C_3
REMARK    2  A    between atoms: C_3  and  C_4
REMARK    3  A    between atoms: C_3  and  O_5
REMARK    4  A    between atoms: O_5  and  C_6
REMARK    5  A    between atoms: C_6  and  C_8
REMARK    6  A    between atoms: C_12  and  C_13
REMARK    7  A    between atoms: N_15  and  C_16
REMARK                            x       y       z     vdW  Elec       q    Type
REMARK                         _______ _______ _______ _____ _____    ______ ____
ROOT
ATOM      1  C   UNL     1       5.552   5.052  16.653  0.00  0.00    +0.000 A 
ATOM      2  C   UNL     1       5.519   6.446  16.766  0.00  0.00    +0.000 A 
ATOM      3  C   UNL     1       4.415   7.073  17.334  0.00  0.00    +0.000 A 
ATOM      4  C   UNL     1       3.333   6.311  17.777  0.00  0.00    +0.000 A 
ATOM      5  C   UNL     1       3.332   4.912  17.651  0.00  0.00    +0.000 A 
ATOM      6  C   UNL     1       4.447   4.287  17.072  0.00  0.00    +0.000 A 
ENDROOT
BRANCH   5   7
ATOM      7  C   UNL     1       2.142   4.175  18.197  0.00  0.00    +0.000 C 
ATOM      8  O   UNL     1       1.296   3.735  17.424  0.00  0.00    +0.000 OA
ATOM      9  N   UNL     1       2.044   4.032  19.566  0.00  0.00    +0.000 N 
ATOM     10  C   UNL     1       0.924   3.369  20.191  0.00  0.00    +0.000 C 
ATOM     11  H   UNL     1       2.752   4.396  20.183  0.00  0.00    +0.000 HD
ENDBRANCH   5   7
BRANCH   1  12
ATOM     12  C   UNL     1       6.765   4.350  16.152  0.00  0.00    +0.000 C 
ATOM     13  O   UNL     1       7.857   4.445  16.692  0.00  0.00    +0.000 OA
BRANCH  12  14
ATOM     14  O   UNL     1       6.486   3.640  15.030  0.00  0.00    +0.000 OA
BRANCH  14  15
ATOM     15  C   UNL     1       6.299   4.416  13.835  0.00  0.00    +0.000 C 
ATOM     16  C   UNL     1       7.621   5.077  13.454  0.00  0.00    +0.000 C 
BRANCH  15  18
ATOM     17  C   UNL     1       5.510   2.755  11.880  0.00  0.00    +0.000 C 
ATOM     18  C   UNL     1       5.853   3.528  12.738  0.00  0.00    +0.000 C 
ENDBRANCH  15  18
ENDBRANCH  14  15
ENDBRANCH  12  14
ENDBRANCH   1  12
TORSDOF 5
ENDMDL
MODEL 8
REMARK VINA RESULT:      -6.7      1.722      2.126
REMARK  Name = 
REMARK  7 active torsions:
REMARK  status: ('A' for Active; 'I' for Inactive)
REMARK    1  A    between atoms: C_2  and  C_3
REMARK    2  A    between atoms: C_3  and  C_4
REMARK    3  A    between atoms: C_3  and  O_5
REMARK    4  A    between atoms: O_5  and  C_6
REMARK    5  A    between atoms: C_6  and  C_8
REMARK    6  A    between atoms: C_12  and  C_13
REMARK    7  A    between atoms: N_15  and  C_16
REMARK                            x       y       z     vdW  Elec       q    Type
REMARK                         _______ _______ _______ _____ _____    ______ ____
ROOT
ATOM      1  C   UNL     1       5.703   4.572  18.466  0.00  0.00    +0.000 A 
ATOM      2  C   UNL     1       6.432   5.627  19.025  0.00  0.00    +0.000 A 
ATOM      3  C   UNL     1       7.297   6.374  18.231  0.00  0.00    +0.000 A 
ATOM      4  C   UNL     1       7.448   6.059  16.879  0.00  0.00    +0.000 A 
ATOM      5  C   UNL     1       6.746   4.988  16.301  0.00  0.00    +0.000 A 
ATOM      6  C   UNL     1       5.880   4.237  17.110  0.00  0.00    +0.000 A 
ENDROOT
BRANCH   5   7
ATOM      7  C   UNL     1       6.941   4.754  14.830  0.00  0.00    +0.000 C 
ATOM      8  O   UNL     1       7.748   5.441  14.210  0.00  0.00    +0.000 OA
ATOM      9  N   UNL     1       6.183   3.772  14.227  0.00  0.00    +0.000 N 
ATOM     10  C   UNL     1       6.271   3.491  12.814  0.00  0.00    +0.000 C 
ATOM     11  H   UNL     1       5.529   3.216  14.756  0.00  0.00    +0.000 HD
ENDBRANCH   5   7
BRANCH   1  12
ATOM     12  C   UNL     1       4.690   3.830  19.265  0.00  0.00    +0.000 C 
ATOM     13  O   UNL     1       4.875   2.697  19.680  0.00  0.00    +0.000 OA
BRANCH  12  14
ATOM     14  O   UNL     1       3.563   4.569  19.425  0.00  0.00    +0.000 OA
BRANCH  14  15
ATOM     15  C   UNL     1       2.874   4.920  18.214  0.00  0.00    +0.000 C 
ATOM     16  C   UNL     1       1.567   4.136  18.134  0.00  0.00    +0.000 C 
BRANCH  15  18
ATOM     17  C   UNL     1       2.285   7.539  18.221  0.00  0.00    +0.000 C 
ATOM     18  C   UNL     1       2.583   6.372  18.220  0.00  0.00    +0.000 C 
ENDBRANCH  15  18
ENDBRANCH  14  15
ENDBRANCH  12  14
ENDBRANCH   1  12
TORSDOF 5
ENDMDL
MODEL 9
REMARK VINA RESULT:      -6.6      1.995      6.461
REMARK  Name = 
REMARK  7 active torsions:
REMARK  status: ('A' for Active; 'I' for Inactive)
REMARK    1  A    between atoms: C_2  and  C_3
REMARK    2  A    between atoms: C_3  and  C_4
REMARK    3  A    between atoms: C_3  and  O_5
REMARK    4  A    between atoms: O_5  and  C_6
REMARK    5  A    between atoms: C_6  and  C_8
REMARK    6  A    between atoms: C_12  and  C_13
REMARK    7  A    between atoms: N_15  and  C_16
REMARK                            x       y       z     vdW  Elec       q    Type
REMARK                         _______ _______ _______ _____ _____    ______ ____
ROOT
ATOM      1  C   UNL     1       6.147   4.517  15.645  0.00  0.00    +0.000 A 
ATOM      2  C   UNL     1       7.081   4.756  16.658  0.00  0.00    +0.000 A 
ATOM      3  C   UNL     1       6.700   4.667  17.993  0.00  0.00    +0.000 A 
ATOM      4  C   UNL     1       5.380   4.355  18.321  0.00  0.00    +0.000 A 
ATOM      5  C   UNL     1       4.417   4.136  17.322  0.00  0.00    +0.000 A 
ATOM      6  C   UNL     1       4.808   4.232  15.977  0.00  0.00    +0.000 A 
ENDROOT
BRANCH   5   7
ATOM      7  C   UNL     1       3.034   3.762  17.772  0.00  0.00    +0.000 C 
ATOM      8  O   UNL     1       2.341   3.039  17.061  0.00  0.00    +0.000 OA
ATOM      9  N   UNL     1       2.589   4.265  18.977  0.00  0.00    +0.000 N 
ATOM     10  C   UNL     1       1.264   3.992  19.482  0.00  0.00    +0.000 C 
ATOM     11  H   UNL     1       3.176   4.853  19.548  0.00  0.00    +0.000 HD
ENDBRANCH   5   7
BRANCH   1  12
ATOM     12  C   UNL     1       6.552   4.495  14.213  0.00  0.00    +0.000 C 
ATOM     13  O   UNL     1       7.371   5.271  13.745  0.00  0.00    +0.000 OA
BRANCH  12  14
ATOM     14  O   UNL     1       5.875   3.537  13.531  0.00  0.00    +0.000 OA
BRANCH  14  15
ATOM     15  C   UNL     1       5.985   3.600  12.100  0.00  0.00    +0.000 C 
ATOM     16  C   UNL     1       6.943   2.513  11.621  0.00  0.00    +0.000 C 
BRANCH  15  18
ATOM     17  C   UNL     1       3.593   3.193  10.952  0.00  0.00    +0.000 C 
ATOM     18  C   UNL     1       4.650   3.387  11.496  0.00  0.00    +0.000 C 
ENDBRANCH  15  18
ENDBRANCH  14  15
ENDBRANCH  12  14
ENDBRANCH   1  12
TORSDOF 5
ENDMDL
