MODEL 1
REMARK VINA RESULT:      -8.3      0.000      0.000
REMARK  Name = 
REMARK  5 active torsions:
REMARK  status: ('A' for Active; 'I' for Inactive)
REMARK    1  A    between atoms: C_1  and  C_2
REMARK    2  A    between atoms: C_7  and  C_8
REMARK    3  A    between atoms: N_10  and  C_11
REMARK    4  A    between atoms: C_15  and  S_16
REMARK    5  A    between atoms: S_16  and  N_19
REMARK                            x       y       z     vdW  Elec       q    Type
REMARK                         _______ _______ _______ _____ _____    ______ ____
ROOT
ATOM      1  C   UNL     1       2.464   7.429  19.115  0.00  0.00    +0.000 A 
ATOM      2  C   UNL     1       2.334   8.172  17.936  0.00  0.00    +0.000 A 
ATOM      3  C   UNL     1       1.526   9.308  17.886  0.00  0.00    +0.000 A 
ATOM      4  C   UNL     1       0.854   9.729  19.024  0.00  0.00    +0.000 A 
ATOM      5  C   UNL     1       1.004   9.014  20.216  0.00  0.00    +0.000 A 
ATOM      6  C   UNL     1       1.748   7.824  20.249  0.00  0.00    +0.000 A 
ENDROOT
BRANCH   1   9
ATOM      7  C   UNL     1       3.037   5.046  18.773  0.00  0.00    +0.000 C 
ATOM      8  O   UNL     1       1.937   4.704  18.339  0.00  0.00    +0.000 OA
ATOM      9  N   UNL     1       3.339   6.323  19.226  0.00  0.00    +0.000 N 
ATOM     10  H   UNL     1       4.299   6.529  19.468  0.00  0.00    +0.000 HD
BRANCH   7  17
ATOM     11  C   UNL     1       6.430   4.044  14.099  0.00  0.00    +0.000 C 
ATOM     12  C   UNL     1       6.675   4.798  15.382  0.00  0.00    +0.000 C 
ATOM     13  O   UNL     1       7.618   5.587  15.458  0.00  0.00    +0.000 OA
ATOM     14  N   UNL     1       5.804   4.565  16.444  0.00  0.00    +0.000 N 
ATOM     15  C   UNL     1       5.930   5.428  17.615  0.00  0.00    +0.000 C 
ATOM     16  C   UNL     1       5.578   4.689  18.903  0.00  0.00    +0.000 C 
ATOM     17  C   UNL     1       4.191   4.041  18.828  0.00  0.00    +0.000 C 
ATOM     18  C   UNL     1       4.146   3.122  17.592  0.00  0.00    +0.000 C 
ATOM     19  C   UNL     1       4.528   3.862  16.305  0.00  0.00    +0.000 C 
ENDBRANCH   7  17
ENDBRANCH   1   9
BRANCH   5  20
ATOM     20  S   UNL     1       0.256   9.645  21.706  0.00  0.00    +0.000 S 
ATOM     21  O   UNL     1      -0.802   8.724  22.074  0.00  0.00    +0.000 OA
ATOM     22  O   UNL     1       1.335   9.954  22.622  0.00  0.00    +0.000 OA
BRANCH  20  23
ATOM     23  N   UNL     1      -0.448  11.111  21.240  0.00  0.00    +0.000 NA
ATOM     24  C   UNL     1       0.392  12.260  20.860  0.00  0.00    +0.000 C 
ATOM     25  C   UNL     1       0.128  13.290  21.942  0.00  0.00    +0.000 C 
ATOM     26  C   UNL     1      -1.334  13.081  22.292  0.00  0.00    +0.000 C 
ATOM     27  C   UNL     1      -1.625  11.614  21.977  0.00  0.00    +0.000 C 
ENDBRANCH  20  23
ENDBRANCH   5  20
TORSDOF 4
ENDMDL
MODEL 2
REMARK VINA RESULT:      -8.0      0.948      1.105
REMARK  Name = 
REMARK  5 active torsions:
REMARK  status: ('A' for Active; 'I' for Inactive)
REMARK    1  A    between atoms: C_1  and  C_2
REMARK    2  A    between atoms: C_7  and  C_8
REMARK    3  A    between atoms: N_10  and  C_11
REMARK    4  A    between atoms: C_15  and  S_16
REMARK    5  A    between atoms: S_16  and  N_19
REMARK                            x       y       z     vdW  Elec       q    Type
REMARK                         _______ _______ _______ _____ _____    ______ ____
ROOT
ATOM      1  C   UNL     1       2.244   7.512  19.192  0.00  0.00    +0.000 A 
ATOM      2  C   UNL     1       1.927   8.043  17.937  0.00  0.00    +0.000 A 
ATOM      3  C   UNL     1       1.279   9.273  17.818  0.00  0.00    +0.000 A 
ATOM      4  C   UNL     1       0.957   9.998  18.956  0.00  0.00    +0.000 A 
ATOM      5  C   UNL     1       1.300   9.492  20.214  0.00  0.00    +0.000 A 
ATOM      6  C   UNL     1       1.876   8.218  20.341  0.00  0.00    +0.000 A 
ENDROOT
BRANCH   1   9
ATOM      7  C   UNL     1       2.591   5.092  18.812  0.00  0.00    +0.000 C 
ATOM      8  O   UNL     1       1.515   4.888  18.248  0.00  0.00    +0.000 OA
ATOM      9  N   UNL     1       2.976   6.312  19.349  0.00  0.00    +0.000 N 
ATOM     10  H   UNL     1       3.921   6.401  19.700  0.00  0.00    +0.000 HD
BRANCH   7  17
ATOM     11  C   UNL     1       6.441   3.945  14.542  0.00  0.00    +0.000 C 
ATOM     12  C   UNL     1       6.593   4.603  15.890  0.00  0.00    +0.000 C 
ATOM     13  O   UNL     1       7.596   5.277  16.132  0.00  0.00    +0.000 OA
ATOM     14  N   UNL     1       5.572   4.418  16.819  0.00  0.00    +0.000 N 
ATOM     15  C   UNL     1       5.634   5.203  18.048  0.00  0.00    +0.000 C 
ATOM     16  C   UNL     1       5.041   4.446  19.234  0.00  0.00    +0.000 C 
ATOM     17  C   UNL     1       3.616   3.962  18.946  0.00  0.00    +0.000 C 
ATOM     18  C   UNL     1       3.637   3.115  17.660  0.00  0.00    +0.000 C 
ATOM     19  C   UNL     1       4.258   3.870  16.479  0.00  0.00    +0.000 C 
ENDBRANCH   7  17
ENDBRANCH   1   9
BRANCH   5  20
ATOM     20  S   UNL     1       1.016  10.495  21.659  0.00  0.00    +0.000 S 
ATOM     21  O   UNL     1       1.476   9.734  22.804  0.00  0.00    +0.000 OA
ATOM     22  O   UNL     1       1.547  11.812  21.370  0.00  0.00    +0.000 OA
BRANCH  20  23
ATOM     23  N   UNL     1      -0.667  10.638  21.753  0.00  0.00    +0.000 NA
ATOM     24  C   UNL     1      -1.393  11.569  20.871  0.00  0.00    +0.000 C 
ATOM     25  C   UNL     1      -1.960  12.613  21.816  0.00  0.00    +0.000 C 
ATOM     26  C   UNL     1      -2.289  11.825  23.070  0.00  0.00    +0.000 C 
ATOM     27  C   UNL     1      -1.320  10.644  23.079  0.00  0.00    +0.000 C 
ENDBRANCH  20  23
ENDBRANCH   5  20
TORSDOF 4
ENDMDL
MODEL 3
REMARK VINA RESULT:      -8.0      0.851      1.306
REMARK  Name = 
REMARK  5 active torsions:
REMARK  status: ('A' for Active; 'I' for Inactive)
REMARK    1  A    between atoms: C_1  and  C_2
REMARK    2  A    between atoms: C_7  and  C_8
REMARK    3  A    between atoms: N_10  and  C_11
REMARK    4  A    between atoms: C_15  and  S_16
REMARK    5  A    between atoms: S_16  and  N_19
REMARK                            x       y       z     vdW  Elec       q    Type
REMARK                         _______ _______ _______ _____ _____    ______ ____
ROOT
ATOM      1  C   UNL     1       2.249   7.738  19.290  0.00  0.00    +0.000 A 
ATOM      2  C   UNL     1       1.951   8.250  18.022  0.00  0.00    +0.000 A 
ATOM      3  C   UNL     1       1.098   9.343  17.868  0.00  0.00    +0.000 A 
ATOM      4  C   UNL     1       0.548   9.953  18.986  0.00  0.00    +0.000 A 
ATOM      5  C   UNL     1       0.866   9.471  20.259  0.00  0.00    +0.000 A 
ATOM      6  C   UNL     1       1.656   8.321  20.414  0.00  0.00    +0.000 A 
ENDROOT
BRANCH   1   9
ATOM      7  C   UNL     1       2.953   5.374  19.102  0.00  0.00    +0.000 C 
ATOM      8  O   UNL     1       1.887   4.950  18.657  0.00  0.00    +0.000 OA
ATOM      9  N   UNL     1       3.175   6.688  19.490  0.00  0.00    +0.000 N 
ATOM     10  H   UNL     1       4.116   6.958  19.747  0.00  0.00    +0.000 HD
BRANCH   7  17
ATOM     11  C   UNL     1       6.297   3.966  14.498  0.00  0.00    +0.000 C 
ATOM     12  C   UNL     1       6.531   4.879  15.675  0.00  0.00    +0.000 C 
ATOM     13  O   UNL     1       7.437   5.713  15.631  0.00  0.00    +0.000 OA
ATOM     14  N   UNL     1       5.694   4.738  16.778  0.00  0.00    +0.000 N 
ATOM     15  C   UNL     1       5.801   5.742  17.834  0.00  0.00    +0.000 C 
ATOM     16  C   UNL     1       5.511   5.149  19.210  0.00  0.00    +0.000 C 
ATOM     17  C   UNL     1       4.154   4.435  19.248  0.00  0.00    +0.000 C 
ATOM     18  C   UNL     1       4.129   3.372  18.134  0.00  0.00    +0.000 C 
ATOM     19  C   UNL     1       4.450   3.967  16.757  0.00  0.00    +0.000 C 
ENDBRANCH   7  17
ENDBRANCH   1   9
BRANCH   5  20
ATOM     20  S   UNL     1       0.273  10.350  21.692  0.00  0.00    +0.000 S 
ATOM     21  O   UNL     1      -1.176  10.324  21.639  0.00  0.00    +0.000 OA
ATOM     22  O   UNL     1       0.992   9.827  22.836  0.00  0.00    +0.000 OA
BRANCH  20  23
ATOM     23  N   UNL     1       0.789  11.944  21.456  0.00  0.00    +0.000 NA
ATOM     24  C   UNL     1      -0.186  13.047  21.383  0.00  0.00    +0.000 C 
ATOM     25  C   UNL     1      -0.076  13.548  19.955  0.00  0.00    +0.000 C 
ATOM     26  C   UNL     1       1.394  13.374  19.623  0.00  0.00    +0.000 C 
ATOM     27  C   UNL     1       1.879  12.217  20.497  0.00  0.00    +0.000 C 
ENDBRANCH  20  23
ENDBRANCH   5  20
TORSDOF 4
ENDMDL
MODEL 4
REMARK VINA RESULT:      -7.7      2.826      8.556
REMARK  Name = 
REMARK  5 active torsions:
REMARK  status: ('A' for Active; 'I' for Inactive)
REMARK    1  A    between atoms: C_1  and  C_2
REMARK    2  A    between atoms: C_7  and  C_8
REMARK    3  A    between atoms: N_10  and  C_11
REMARK    4  A    between atoms: C_15  and  S_16
REMARK    5  A    between atoms: S_16  and  N_19
REMARK                            x       y       z     vdW  Elec       q    Type
REMARK                         _______ _______ _______ _____ _____    ______ ____
ROOT
ATOM      1  C   UNL     1       2.187   6.849  19.731  0.00  0.00    +0.000 A 
ATOM      2  C   UNL     1       1.436   5.990  20.542  0.00  0.00    +0.000 A 
ATOM      3  C   UNL     1       1.874   4.695  20.820  0.00  0.00    +0.000 A 
ATOM      4  C   UNL     1       3.083   4.249  20.305  0.00  0.00    +0.000 A 
ATOM      5  C   UNL     1       3.858   5.111  19.523  0.00  0.00    +0.000 A 
ATOM      6  C   UNL     1       3.381   6.384  19.173  0.00  0.00    +0.000 A 
ENDROOT
BRANCH   1   9
ATOM      7  C   UNL     1       1.265   9.025  20.463  0.00  0.00    +0.000 C 
ATOM      8  O   UNL     1       0.921   8.655  21.586  0.00  0.00    +0.000 OA
ATOM      9  N   UNL     1       1.817   8.195  19.499  0.00  0.00    +0.000 N 
ATOM     10  H   UNL     1       2.160   8.616  18.645  0.00  0.00    +0.000 HD
BRANCH   7  17
ATOM     11  C   UNL     1      -2.493  10.630  16.260  0.00  0.00    +0.000 C 
ATOM     12  C   UNL     1      -2.537  10.768  17.761  0.00  0.00    +0.000 C 
ATOM     13  O   UNL     1      -3.607  11.013  18.322  0.00  0.00    +0.000 OA
ATOM     14  N   UNL     1      -1.344  10.605  18.460  0.00  0.00    +0.000 N 
ATOM     15  C   UNL     1      -1.422  10.555  19.917  0.00  0.00    +0.000 C 
ATOM     16  C   UNL     1      -0.177  11.149  20.572  0.00  0.00    +0.000 C 
ATOM     17  C   UNL     1       1.107  10.492  20.054  0.00  0.00    +0.000 C 
ATOM     18  C   UNL     1       1.136  10.616  18.519  0.00  0.00    +0.000 C 
ATOM     19  C   UNL     1      -0.129  10.043  17.867  0.00  0.00    +0.000 C 
ENDBRANCH   7  17
ENDBRANCH   1   9
BRANCH   5  20
ATOM     20  S   UNL     1       5.474   4.582  18.990  0.00  0.00    +0.000 S 
ATOM     21  O   UNL     1       6.445   5.337  19.759  0.00  0.00    +0.000 OA
ATOM     22  O   UNL     1       5.470   3.133  19.002  0.00  0.00    +0.000 OA
BRANCH  20  23
ATOM     23  N   UNL     1       5.572   5.074  17.374  0.00  0.00    +0.000 NA
ATOM     24  C   UNL     1       4.857   4.334  16.319  0.00  0.00    +0.000 C 
ATOM     25  C   UNL     1       5.962   3.738  15.467  0.00  0.00    +0.000 C 
ATOM     26  C   UNL     1       7.056   4.789  15.506  0.00  0.00    +0.000 C 
ATOM     27  C   UNL     1       6.870   5.525  16.833  0.00  0.00    +0.000 C 
ENDBRANCH  20  23
ENDBRANCH   5  20
TORSDOF 4
ENDMDL
MODEL 5
REMARK VINA RESULT:      -7.6      2.867      8.136
REMARK  Name = 
REMARK  5 active torsions:
REMARK  status: ('A' for Active; 'I' for Inactive)
REMARK    1  A    between atoms: C_1  and  C_2
REMARK    2  A    between atoms: C_7  and  C_8
REMARK    3  A    between atoms: N_10  and  C_11
REMARK    4  A    between atoms: C_15  and  S_16
REMARK    5  A    between atoms: S_16  and  N_19
REMARK                            x       y       z     vdW  Elec       q    Type
REMARK                         _______ _______ _______ _____ _____    ______ ____
ROOT
ATOM      1  C   UNL     1       3.427   6.881  17.752  0.00  0.00    +0.000 A 
ATOM      2  C   UNL     1       4.815   7.012  17.879  0.00  0.00    +0.000 A 
ATOM      3  C   UNL     1       5.628   5.895  18.075  0.00  0.00    +0.000 A 
ATOM      4  C   UNL     1       5.064   4.629  18.126  0.00  0.00    +0.000 A 
ATOM      5  C   UNL     1       3.682   4.484  17.966  0.00  0.00    +0.000 A 
ATOM      6  C   UNL     1       2.852   5.611  17.852  0.00  0.00    +0.000 A 
ENDROOT
BRANCH   1   9
ATOM      7  C   UNL     1       1.879   8.688  18.430  0.00  0.00    +0.000 C 
ATOM      8  O   UNL     1       1.814   8.371  19.617  0.00  0.00    +0.000 OA
ATOM      9  N   UNL     1       2.581   7.978  17.466  0.00  0.00    +0.000 N 
ATOM     10  H   UNL     1       2.657   8.378  16.540  0.00  0.00    +0.000 HD
BRANCH   7  17
ATOM     11  C   UNL     1      -1.600  11.829  21.951  0.00  0.00    +0.000 C 
ATOM     12  C   UNL     1      -0.212  12.078  21.418  0.00  0.00    +0.000 C 
ATOM     13  O   UNL     1       0.503  12.930  21.949  0.00  0.00    +0.000 OA
ATOM     14  N   UNL     1       0.209  11.318  20.330  0.00  0.00    +0.000 N 
ATOM     15  C   UNL     1       1.611  11.429  19.936  0.00  0.00    +0.000 C 
ATOM     16  C   UNL     1       1.791  11.256  18.431  0.00  0.00    +0.000 C 
ATOM     17  C   UNL     1       1.168   9.948  17.929  0.00  0.00    +0.000 C 
ATOM     18  C   UNL     1      -0.313   9.919  18.350  0.00  0.00    +0.000 C 
ATOM     19  C   UNL     1      -0.491  10.122  19.859  0.00  0.00    +0.000 C 
ENDBRANCH   7  17
ENDBRANCH   1   9
BRANCH   5  20
ATOM     20  S   UNL     1       2.985   2.846  17.886  0.00  0.00    +0.000 S 
ATOM     21  O   UNL     1       1.943   2.875  16.877  0.00  0.00    +0.000 OA
ATOM     22  O   UNL     1       4.095   1.919  17.792  0.00  0.00    +0.000 OA
BRANCH  20  23
ATOM     23  N   UNL     1       2.261   2.617  19.398  0.00  0.00    +0.000 NA
ATOM     24  C   UNL     1       0.870   3.040  19.636  0.00  0.00    +0.000 C 
ATOM     25  C   UNL     1       0.990   4.161  20.652  0.00  0.00    +0.000 C 
ATOM     26  C   UNL     1       2.161   3.739  21.519  0.00  0.00    +0.000 C 
ATOM     27  C   UNL     1       3.046   2.875  20.622  0.00  0.00    +0.000 C 
ENDBRANCH  20  23
ENDBRANCH   5  20
TORSDOF 4
ENDMDL
MODEL 6
REMARK VINA RESULT:      -7.6      2.831      3.671
REMARK  Name = 
REMARK  5 active torsions:
REMARK  status: ('A' for Active; 'I' for Inactive)
REMARK    1  A    between atoms: C_1  and  C_2
REMARK    2  A    between atoms: C_7  and  C_8
REMARK    3  A    between atoms: N_10  and  C_11
REMARK    4  A    between atoms: C_15  and  S_16
REMARK    5  A    between atoms: S_16  and  N_19
REMARK                            x       y       z     vdW  Elec       q    Type
REMARK                         _______ _______ _______ _____ _____    ______ ____
ROOT
ATOM      1  C   UNL     1       1.543   8.366  19.723  0.00  0.00    +0.000 A 
ATOM      2  C   UNL     1       1.331   8.058  21.072  0.00  0.00    +0.000 A 
ATOM      3  C   UNL     1       0.466   8.820  21.858  0.00  0.00    +0.000 A 
ATOM      4  C   UNL     1      -0.217   9.889  21.297  0.00  0.00    +0.000 A 
ATOM      5  C   UNL     1      -0.039  10.185  19.941  0.00  0.00    +0.000 A 
ATOM      6  C   UNL     1       0.893   9.473  19.170  0.00  0.00    +0.000 A 
ENDROOT
BRANCH   1   9
ATOM      7  C   UNL     1       2.418   6.183  18.955  0.00  0.00    +0.000 C 
ATOM      8  O   UNL     1       1.897   5.509  19.843  0.00  0.00    +0.000 OA
ATOM      9  N   UNL     1       2.345   7.566  18.875  0.00  0.00    +0.000 N 
ATOM     10  H   UNL     1       2.720   8.018  18.051  0.00  0.00    +0.000 HD
BRANCH   7  17
ATOM     11  C   UNL     1       8.138   7.202  18.175  0.00  0.00    +0.000 C 
ATOM     12  C   UNL     1       7.390   6.018  18.732  0.00  0.00    +0.000 C 
ATOM     13  O   UNL     1       7.991   5.172  19.397  0.00  0.00    +0.000 OA
ATOM     14  N   UNL     1       6.025   5.933  18.466  0.00  0.00    +0.000 N 
ATOM     15  C   UNL     1       5.272   4.890  19.158  0.00  0.00    +0.000 C 
ATOM     16  C   UNL     1       4.117   4.368  18.307  0.00  0.00    +0.000 C 
ATOM     17  C   UNL     1       3.202   5.501  17.830  0.00  0.00    +0.000 C 
ATOM     18  C   UNL     1       4.059   6.540  17.082  0.00  0.00    +0.000 C 
ATOM     19  C   UNL     1       5.234   7.041  17.930  0.00  0.00    +0.000 C 
ENDBRANCH   7  17
ENDBRANCH   1   9
BRANCH   5  20
ATOM     20  S   UNL     1      -1.029  11.465  19.196  0.00  0.00    +0.000 S 
ATOM     21  O   UNL     1      -1.673  12.189  20.275  0.00  0.00    +0.000 OA
ATOM     22  O   UNL     1      -0.184  12.147  18.235  0.00  0.00    +0.000 OA
BRANCH  20  23
ATOM     23  N   UNL     1      -2.216  10.632  18.325  0.00  0.00    +0.000 NA
ATOM     24  C   UNL     1      -1.880   9.939  17.069  0.00  0.00    +0.000 C 
ATOM     25  C   UNL     1      -2.641  10.707  16.004  0.00  0.00    +0.000 C 
ATOM     26  C   UNL     1      -3.919  11.126  16.705  0.00  0.00    +0.000 C 
ATOM     27  C   UNL     1      -3.562  11.226  18.187  0.00  0.00    +0.000 C 
ENDBRANCH  20  23
ENDBRANCH   5  20
TORSDOF 4
ENDMDL
MODEL 7
REMARK VINA RESULT:      -7.5      2.097      2.697
REMARK  Name = 
REMARK  5 active torsions:
REMARK  status: ('A' for Active; 'I' for Inactive)
REMARK    1  A    between atoms: C_1  and  C_2
REMARK    2  A    between atoms: C_7  and  C_8
REMARK    3  A    between atoms: N_10  and  C_11
REMARK    4  A    between atoms: C_15  and  S_16
REMARK    5  A    between atoms: S_16  and  N_19
REMARK                            x       y       z     vdW  Elec       q    Type
REMARK                         _______ _______ _______ _____ _____    ______ ____
ROOT
ATOM      1  C   UNL     1       2.115   6.896  20.355  0.00  0.00    +0.000 A 
ATOM      2  C   UNL     1       1.206   6.961  21.418  0.00  0.00    +0.000 A 
ATOM      3  C   UNL     1       0.317   8.029  21.541  0.00  0.00    +0.000 A 
ATOM      4  C   UNL     1       0.311   9.038  20.588  0.00  0.00    +0.000 A 
ATOM      5  C   UNL     1       1.192   8.965  19.504  0.00  0.00    +0.000 A 
ATOM      6  C   UNL     1       2.144   7.937  19.422  0.00  0.00    +0.000 A 
ENDROOT
BRANCH   1   9
ATOM      7  C   UNL     1       2.805   4.857  19.137  0.00  0.00    +0.000 C 
ATOM      8  O   UNL     1       1.833   4.816  18.382  0.00  0.00    +0.000 OA
ATOM      9  N   UNL     1       2.971   5.789  20.151  0.00  0.00    +0.000 N 
ATOM     10  H   UNL     1       3.852   5.801  20.649  0.00  0.00    +0.000 HD
BRANCH   7  17
ATOM     11  C   UNL     1       6.291   4.879  14.424  0.00  0.00    +0.000 C 
ATOM     12  C   UNL     1       6.516   5.316  15.849  0.00  0.00    +0.000 C 
ATOM     13  O   UNL     1       7.468   6.050  16.121  0.00  0.00    +0.000 OA
ATOM     14  N   UNL     1       5.618   4.865  16.813  0.00  0.00    +0.000 N 
ATOM     15  C   UNL     1       5.729   5.437  18.152  0.00  0.00    +0.000 C 
ATOM     16  C   UNL     1       5.337   4.431  19.231  0.00  0.00    +0.000 C 
ATOM     17  C   UNL     1       3.943   3.844  18.984  0.00  0.00    +0.000 C 
ATOM     18  C   UNL     1       3.914   3.230  17.571  0.00  0.00    +0.000 C 
ATOM     19  C   UNL     1       4.336   4.236  16.493  0.00  0.00    +0.000 C 
ENDBRANCH   7  17
ENDBRANCH   1   9
BRANCH   5  20
ATOM     20  S   UNL     1       1.077  10.185  18.210  0.00  0.00    +0.000 S 
ATOM     21  O   UNL     1       2.267  10.054  17.393  0.00  0.00    +0.000 OA
ATOM     22  O   UNL     1      -0.247  10.065  17.632  0.00  0.00    +0.000 OA
BRANCH  20  23
ATOM     23  N   UNL     1       1.143  11.670  19.018  0.00  0.00    +0.000 NA
ATOM     24  C   UNL     1      -0.090  12.422  19.310  0.00  0.00    +0.000 C 
ATOM     25  C   UNL     1       0.032  13.678  18.467  0.00  0.00    +0.000 C 
ATOM     26  C   UNL     1       1.519  13.981  18.482  0.00  0.00    +0.000 C 
ATOM     27  C   UNL     1       2.210  12.632  18.676  0.00  0.00    +0.000 C 
ENDBRANCH  20  23
ENDBRANCH   5  20
TORSDOF 4
ENDMDL
MODEL 8
REMARK VINA RESULT:      -7.4      2.672      8.875
REMARK  Name = 
REMARK  5 active torsions:
REMARK  status: ('A' for Active; 'I' for Inactive)
REMARK    1  A    between atoms: C_1  and  C_2
REMARK    2  A    between atoms: C_7  and  C_8
REMARK    3  A    between atoms: N_10  and  C_11
REMARK    4  A    between atoms: C_15  and  S_16
REMARK    5  A    between atoms: S_16  and  N_19
REMARK                            x       y       z     vdW  Elec       q    Type
REMARK                         _______ _______ _______ _____ _____    ______ ____
ROOT
ATOM      1  C   UNL     1       2.808   7.331  18.145  0.00  0.00    +0.000 A 
ATOM      2  C   UNL     1       2.764   6.673  19.380  0.00  0.00    +0.000 A 
ATOM      3  C   UNL     1       3.553   5.548  19.625  0.00  0.00    +0.000 A 
ATOM      4  C   UNL     1       4.412   5.079  18.642  0.00  0.00    +0.000 A 
ATOM      5  C   UNL     1       4.488   5.749  17.417  0.00  0.00    +0.000 A 
ATOM      6  C   UNL     1       3.637   6.830  17.138  0.00  0.00    +0.000 A 
ENDROOT
BRANCH   1   9
ATOM      7  C   UNL     1       1.452   9.269  18.872  0.00  0.00    +0.000 C 
ATOM      8  O   UNL     1       1.336   8.919  20.047  0.00  0.00    +0.000 OA
ATOM      9  N   UNL     1       2.089   8.522  17.891  0.00  0.00    +0.000 N 
ATOM     10  H   UNL     1       2.220   8.944  16.981  0.00  0.00    +0.000 HD
BRANCH   7  17
ATOM     11  C   UNL     1      -2.016  12.474  22.345  0.00  0.00    +0.000 C 
ATOM     12  C   UNL     1      -0.575  12.635  21.931  0.00  0.00    +0.000 C 
ATOM     13  O   UNL     1       0.164  13.386  22.568  0.00  0.00    +0.000 OA
ATOM     14  N   UNL     1      -0.137  11.910  20.826  0.00  0.00    +0.000 N 
ATOM     15  C   UNL     1       1.295  11.923  20.541  0.00  0.00    +0.000 C 
ATOM     16  C   UNL     1       1.576  11.829  19.043  0.00  0.00    +0.000 C 
ATOM     17  C   UNL     1       0.888  10.615  18.410  0.00  0.00    +0.000 C 
ATOM     18  C   UNL     1      -0.619  10.688  18.722  0.00  0.00    +0.000 C 
ATOM     19  C   UNL     1      -0.895  10.811  20.225  0.00  0.00    +0.000 C 
ENDBRANCH   7  17
ENDBRANCH   1   9
BRANCH   5  20
ATOM     20  S   UNL     1       5.700   5.229  16.218  0.00  0.00    +0.000 S 
ATOM     21  O   UNL     1       5.631   3.782  16.143  0.00  0.00    +0.000 OA
ATOM     22  O   UNL     1       5.509   6.052  15.040  0.00  0.00    +0.000 OA
BRANCH  20  23
ATOM     23  N   UNL     1       7.187   5.660  16.901  0.00  0.00    +0.000 NA
ATOM     24  C   UNL     1       7.805   4.824  17.944  0.00  0.00    +0.000 C 
ATOM     25  C   UNL     1       7.784   5.699  19.184  0.00  0.00    +0.000 C 
ATOM     26  C   UNL     1       8.003   7.099  18.642  0.00  0.00    +0.000 C 
ATOM     27  C   UNL     1       7.453   7.078  17.216  0.00  0.00    +0.000 C 
ENDBRANCH  20  23
ENDBRANCH   5  20
TORSDOF 4
ENDMDL
MODEL 9
REMARK VINA RESULT:      -7.4      2.908      8.393
REMARK  Name = 
REMARK  5 active torsions:
REMARK  status: ('A' for Active; 'I' for Inactive)
REMARK    1  A    between atoms: C_1  and  C_2
REMARK    2  A    between atoms: C_7  and  C_8
REMARK    3  A    between atoms: N_10  and  C_11
REMARK    4  A    between atoms: C_15  and  S_16
REMARK    5  A    between atoms: S_16  and  N_19
REMARK                            x       y       z     vdW  Elec       q    Type
REMARK                         _______ _______ _______ _____ _____    ______ ____
ROOT
ATOM      1  C   UNL     1       2.841   6.949  18.702  0.00  0.00    +0.000 A 
ATOM      2  C   UNL     1       2.753   5.952  19.680  0.00  0.00    +0.000 A 
ATOM      3  C   UNL     1       3.455   4.753  19.551  0.00  0.00    +0.000 A 
ATOM      4  C   UNL     1       4.272   4.545  18.449  0.00  0.00    +0.000 A 
ATOM      5  C   UNL     1       4.393   5.549  17.484  0.00  0.00    +0.000 A 
ATOM      6  C   UNL     1       3.626   6.721  17.568  0.00  0.00    +0.000 A 
ENDROOT
BRANCH   1   9
ATOM      7  C   UNL     1       1.538   8.619  19.981  0.00  0.00    +0.000 C 
ATOM      8  O   UNL     1       1.301   7.894  20.947  0.00  0.00    +0.000 OA
ATOM      9  N   UNL     1       2.214   8.210  18.840  0.00  0.00    +0.000 N 
ATOM     10  H   UNL     1       2.447   8.909  18.147  0.00  0.00    +0.000 HD
BRANCH   7  17
ATOM     11  C   UNL     1      -2.423  10.617  16.150  0.00  0.00    +0.000 C 
ATOM     12  C   UNL     1      -2.510  10.306  17.623  0.00  0.00    +0.000 C 
ATOM     13  O   UNL     1      -3.613  10.171  18.156  0.00  0.00    +0.000 OA
ATOM     14  N   UNL     1      -1.315  10.180  18.327  0.00  0.00    +0.000 N 
ATOM     15  C   UNL     1      -1.397   9.698  19.703  0.00  0.00    +0.000 C 
ATOM     16  C   UNL     1      -0.305  10.305  20.581  0.00  0.00    +0.000 C 
ATOM     17  C   UNL     1       1.091  10.083  19.989  0.00  0.00    +0.000 C 
ATOM     18  C   UNL     1       1.110  10.647  18.556  0.00  0.00    +0.000 C 
ATOM     19  C   UNL     1      -0.006  10.056  17.686  0.00  0.00    +0.000 C 
ENDBRANCH   7  17
ENDBRANCH   1   9
BRANCH   5  20
ATOM     20  S   UNL     1       5.556   5.333  16.150  0.00  0.00    +0.000 S 
ATOM     21  O   UNL     1       5.540   3.927  15.794  0.00  0.00    +0.000 OA
ATOM     22  O   UNL     1       5.269   6.360  15.168  0.00  0.00    +0.000 OA
BRANCH  20  23
ATOM     23  N   UNL     1       7.060   5.695  16.835  0.00  0.00    +0.000 NA
ATOM     24  C   UNL     1       7.644   4.825  17.871  0.00  0.00    +0.000 C 
ATOM     25  C   UNL     1       7.660   5.689  19.118  0.00  0.00    +0.000 C 
ATOM     26  C   UNL     1       7.938   7.084  18.588  0.00  0.00    +0.000 C 
ATOM     27  C   UNL     1       7.387   7.098  17.162  0.00  0.00    +0.000 C 
ENDBRANCH  20  23
ENDBRANCH   5  20
TORSDOF 4
ENDMDL
