MODEL 1
REMARK VINA RESULT:      -6.5      0.000      0.000
REMARK  Name = 
REMARK  9 active torsions:
REMARK  status: ('A' for Active; 'I' for Inactive)
REMARK    1  A    between atoms: C_1  and  C_2
REMARK    2  A    between atoms: C_2  and  C_3
REMARK    3  A    between atoms: C_3  and  C_4
REMARK    4  A    between atoms: C_4  and  C_5
REMARK    5  A    between atoms: N_7  and  C_8
REMARK    6  A    between atoms: C_12  and  O_13
REMARK    7  A    between atoms: O_13  and  C_14
REMARK    8  A    between atoms: C_16  and  O_17
REMARK    9  A    between atoms: O_17  and  C_18
REMARK                            x       y       z     vdW  Elec       q    Type
REMARK                         _______ _______ _______ _____ _____    ______ ____
ROOT
ATOM      1  C   UNL     1       4.880   4.038  17.121  0.00  0.00    +0.000 A 
ATOM      2  C   UNL     1       3.491   3.823  17.128  0.00  0.00    +0.000 A 
ATOM      3  C   UNL     1       2.728   3.871  18.300  0.00  0.00    +0.000 A 
ATOM      4 CL   UNL     1       1.039   3.577  18.061  0.00  0.00    +0.000 Cl
ATOM      5  C   UNL     1       3.356   4.143  19.516  0.00  0.00    +0.000 A 
ATOM      6  C   UNL     1       4.754   4.338  19.505  0.00  0.00    +0.000 A 
ATOM      7  C   UNL     1       5.532   4.288  18.331  0.00  0.00    +0.000 A 
ENDROOT
BRANCH   1  10
ATOM      8  C   UNL     1       5.843   5.092  15.146  0.00  0.00    +0.000 C 
ATOM      9  O   UNL     1       5.599   6.231  15.492  0.00  0.00    +0.000 OA
ATOM     10  N   UNL     1       5.531   3.944  15.874  0.00  0.00    +0.000 N 
ATOM     11  H   UNL     1       6.017   3.093  15.643  0.00  0.00    +0.000 HD
BRANCH   8  12
ATOM     12  C   UNL     1       6.594   4.785  13.860  0.00  0.00    +0.000 C 
BRANCH  12  13
ATOM     13  C   UNL     1       6.253   3.378  13.389  0.00  0.00    +0.000 C 
BRANCH  13  15
ATOM     14  C   UNL     1       4.450   3.331  11.667  0.00  0.00    +0.000 C 
ATOM     15  C   UNL     1       5.954   3.301  11.898  0.00  0.00    +0.000 C 
ENDBRANCH  13  15
ENDBRANCH  12  13
ENDBRANCH   8  12
ENDBRANCH   1  10
BRANCH   5  16
ATOM     16  O   UNL     1       2.831   4.260  20.775  0.00  0.00    +0.000 OA
ATOM     17  C   UNL     1       2.339   3.109  21.442  0.00  0.00    +0.000 C 
ENDBRANCH   5  16
BRANCH   7  18
ATOM     18  O   UNL     1       6.858   4.526  18.575  0.00  0.00    +0.000 OA
ATOM     19  C   UNL     1       7.318   5.858  18.745  0.00  0.00    +0.000 C 
ENDBRANCH   7  18
TORSDOF 6
ENDMDL
MODEL 2
REMARK VINA RESULT:      -6.4      2.886      5.970
REMARK  Name = 
REMARK  9 active torsions:
REMARK  status: ('A' for Active; 'I' for Inactive)
REMARK    1  A    between atoms: C_1  and  C_2
REMARK    2  A    between atoms: C_2  and  C_3
REMARK    3  A    between atoms: C_3  and  C_4
REMARK    4  A    between atoms: C_4  and  C_5
REMARK    5  A    between atoms: N_7  and  C_8
REMARK    6  A    between atoms: C_12  and  O_13
REMARK    7  A    between atoms: O_13  and  C_14
REMARK    8  A    between atoms: C_16  and  O_17
REMARK    9  A    between atoms: O_17  and  C_18
REMARK                            x       y       z     vdW  Elec       q    Type
REMARK                         _______ _______ _______ _____ _____    ______ ____
ROOT
ATOM      1  C   UNL     1       4.078   4.546  17.338  0.00  0.00    +0.000 A 
ATOM      2  C   UNL     1       4.841   4.211  16.207  0.00  0.00    +0.000 A 
ATOM      3  C   UNL     1       6.000   4.910  15.847  0.00  0.00    +0.000 A 
ATOM      4 CL   UNL     1       6.774   4.315  14.418  0.00  0.00    +0.000 Cl
ATOM      5  C   UNL     1       6.426   5.981  16.633  0.00  0.00    +0.000 A 
ATOM      6  C   UNL     1       5.644   6.324  17.757  0.00  0.00    +0.000 A 
ATOM      7  C   UNL     1       4.474   5.630  18.125  0.00  0.00    +0.000 A 
ENDROOT
BRANCH   1  10
ATOM      8  C   UNL     1       2.983   2.637  18.384  0.00  0.00    +0.000 C 
ATOM      9  O   UNL     1       3.981   2.219  18.936  0.00  0.00    +0.000 OA
ATOM     10  N   UNL     1       2.923   3.773  17.577  0.00  0.00    +0.000 N 
ATOM     11  H   UNL     1       2.020   4.183  17.406  0.00  0.00    +0.000 HD
BRANCH   8  12
ATOM     12  C   UNL     1       1.626   1.976  18.566  0.00  0.00    +0.000 C 
BRANCH  12  13
ATOM     13  C   UNL     1       0.778   2.797  19.528  0.00  0.00    +0.000 C 
BRANCH  13  15
ATOM     14  C   UNL     1       2.002   3.967  21.358  0.00  0.00    +0.000 C 
ATOM     15  C   UNL     1       1.248   2.703  20.973  0.00  0.00    +0.000 C 
ENDBRANCH  13  15
ENDBRANCH  12  13
ENDBRANCH   8  12
ENDBRANCH   1  10
BRANCH   5  16
ATOM     16  O   UNL     1       7.520   6.794  16.502  0.00  0.00    +0.000 OA
ATOM     17  C   UNL     1       7.741   7.833  17.442  0.00  0.00    +0.000 C 
ENDBRANCH   5  16
BRANCH   7  18
ATOM     18  O   UNL     1       3.901   6.140  19.259  0.00  0.00    +0.000 OA
ATOM     19  C   UNL     1       2.708   6.903  19.168  0.00  0.00    +0.000 C 
ENDBRANCH   7  18
TORSDOF 6
ENDMDL
MODEL 3
REMARK VINA RESULT:      -6.3      2.861      6.417
REMARK  Name = 
REMARK  9 active torsions:
REMARK  status: ('A' for Active; 'I' for Inactive)
REMARK    1  A    between atoms: C_1  and  C_2
REMARK    2  A    between atoms: C_2  and  C_3
REMARK    3  A    between atoms: C_3  and  C_4
REMARK    4  A    between atoms: C_4  and  C_5
REMARK    5  A    between atoms: N_7  and  C_8
REMARK    6  A    between atoms: C_12  and  O_13
REMARK    7  A    between atoms: O_13  and  C_14
REMARK    8  A    between atoms: C_16  and  O_17
REMARK    9  A    between atoms: O_17  and  C_18
REMARK                            x       y       z     vdW  Elec       q    Type
REMARK                         _______ _______ _______ _____ _____    ______ ____
ROOT
ATOM      1  C   UNL     1       4.757   5.115  18.348  0.00  0.00    +0.000 A 
ATOM      2  C   UNL     1       5.765   6.090  18.434  0.00  0.00    +0.000 A 
ATOM      3  C   UNL     1       6.717   6.279  17.425  0.00  0.00    +0.000 A 
ATOM      4 CL   UNL     1       7.857   7.540  17.751  0.00  0.00    +0.000 Cl
ATOM      5  C   UNL     1       6.675   5.478  16.284  0.00  0.00    +0.000 A 
ATOM      6  C   UNL     1       5.672   4.487  16.213  0.00  0.00    +0.000 A 
ATOM      7  C   UNL     1       4.712   4.286  17.225  0.00  0.00    +0.000 A 
ENDROOT
BRANCH   1  10
ATOM      8  C   UNL     1       2.615   5.620  19.395  0.00  0.00    +0.000 C 
ATOM      9  O   UNL     1       2.176   6.258  18.459  0.00  0.00    +0.000 OA
ATOM     10  N   UNL     1       3.872   5.017  19.441  0.00  0.00    +0.000 N 
ATOM     11  H   UNL     1       4.023   4.294  20.125  0.00  0.00    +0.000 HD
BRANCH   8  12
ATOM     12  C   UNL     1       1.790   5.352  20.644  0.00  0.00    +0.000 C 
BRANCH  12  13
ATOM     13  C   UNL     1       1.074   4.015  20.511  0.00  0.00    +0.000 C 
BRANCH  13  15
ATOM     14  C   UNL     1       2.746   2.427  21.461  0.00  0.00    +0.000 C 
ATOM     15  C   UNL     1       1.374   3.057  21.656  0.00  0.00    +0.000 C 
ENDBRANCH  13  15
ENDBRANCH  12  13
ENDBRANCH   8  12
ENDBRANCH   1  10
BRANCH   5  16
ATOM     16  O   UNL     1       7.471   5.483  15.170  0.00  0.00    +0.000 OA
ATOM     17  C   UNL     1       7.072   4.758  14.018  0.00  0.00    +0.000 C 
ENDBRANCH   5  16
BRANCH   7  18
ATOM     18  O   UNL     1       3.836   3.279  16.918  0.00  0.00    +0.000 OA
ATOM     19  C   UNL     1       3.648   2.204  17.825  0.00  0.00    +0.000 C 
ENDBRANCH   7  18
TORSDOF 6
ENDMDL
MODEL 4
REMARK VINA RESULT:      -6.2      2.890      5.707
REMARK  Name = 
REMARK  9 active torsions:
REMARK  status: ('A' for Active; 'I' for Inactive)
REMARK    1  A    between atoms: C_1  and  C_2
REMARK    2  A    between atoms: C_2  and  C_3
REMARK    3  A    between atoms: C_3  and  C_4
REMARK    4  A    between atoms: C_4  and  C_5
REMARK    5  A    between atoms: N_7  and  C_8
REMARK    6  A    between atoms: C_12  and  O_13
REMARK    7  A    between atoms: O_13  and  C_14
REMARK    8  A    between atoms: C_16  and  O_17
REMARK    9  A    between atoms: O_17  and  C_18
REMARK                            x       y       z     vdW  Elec       q    Type
REMARK                         _______ _______ _______ _____ _____    ______ ____
ROOT
ATOM      1  C   UNL     1       5.202   4.073  17.435  0.00  0.00    +0.000 A 
ATOM      2  C   UNL     1       5.842   4.100  16.184  0.00  0.00    +0.000 A 
ATOM      3  C   UNL     1       6.731   5.116  15.815  0.00  0.00    +0.000 A 
ATOM      4 CL   UNL     1       7.398   4.936  14.229  0.00  0.00    +0.000 Cl
ATOM      5  C   UNL     1       7.004   6.148  16.715  0.00  0.00    +0.000 A 
ATOM      6  C   UNL     1       6.342   6.125  17.961  0.00  0.00    +0.000 A 
ATOM      7  C   UNL     1       5.442   5.109  18.340  0.00  0.00    +0.000 A 
ENDROOT
BRANCH   1  10
ATOM      8  C   UNL     1       2.939   3.171  17.519  0.00  0.00    +0.000 C 
ATOM      9  O   UNL     1       2.391   4.203  17.185  0.00  0.00    +0.000 OA
ATOM     10  N   UNL     1       4.315   3.002  17.672  0.00  0.00    +0.000 N 
ATOM     11  H   UNL     1       4.678   2.063  17.674  0.00  0.00    +0.000 HD
BRANCH   8  12
ATOM     12  C   UNL     1       2.160   1.889  17.764  0.00  0.00    +0.000 C 
BRANCH  12  13
ATOM     13  C   UNL     1       1.085   2.132  18.814  0.00  0.00    +0.000 C 
BRANCH  13  15
ATOM     14  C   UNL     1       1.034   3.784  20.682  0.00  0.00    +0.000 C 
ATOM     15  C   UNL     1       1.653   2.486  20.182  0.00  0.00    +0.000 C 
ENDBRANCH  13  15
ENDBRANCH  12  13
ENDBRANCH   8  12
ENDBRANCH   1  10
BRANCH   5  16
ATOM     16  O   UNL     1       7.838   7.226  16.596  0.00  0.00    +0.000 OA
ATOM     17  C   UNL     1       7.829   8.235  17.594  0.00  0.00    +0.000 C 
ENDBRANCH   5  16
BRANCH   7  18
ATOM     18  O   UNL     1       4.943   5.299  19.601  0.00  0.00    +0.000 OA
ATOM     19  C   UNL     1       3.670   5.902  19.775  0.00  0.00    +0.000 C 
ENDBRANCH   7  18
TORSDOF 6
ENDMDL
MODEL 5
REMARK VINA RESULT:      -6.1      3.101      5.491
REMARK  Name = 
REMARK  9 active torsions:
REMARK  status: ('A' for Active; 'I' for Inactive)
REMARK    1  A    between atoms: C_1  and  C_2
REMARK    2  A    between atoms: C_2  and  C_3
REMARK    3  A    between atoms: C_3  and  C_4
REMARK    4  A    between atoms: C_4  and  C_5
REMARK    5  A    between atoms: N_7  and  C_8
REMARK    6  A    between atoms: C_12  and  O_13
REMARK    7  A    between atoms: O_13  and  C_14
REMARK    8  A    between atoms: C_16  and  O_17
REMARK    9  A    between atoms: O_17  and  C_18
REMARK                            x       y       z     vdW  Elec       q    Type
REMARK                         _______ _______ _______ _____ _____    ______ ____
ROOT
ATOM      1  C   UNL     1       5.796   6.321  17.011  0.00  0.00    +0.000 A 
ATOM      2  C   UNL     1       4.627   6.297  17.790  0.00  0.00    +0.000 A 
ATOM      3  C   UNL     1       3.818   5.159  17.897  0.00  0.00    +0.000 A 
ATOM      4 CL   UNL     1       2.434   5.366  18.915  0.00  0.00    +0.000 Cl
ATOM      5  C   UNL     1       4.173   3.998  17.211  0.00  0.00    +0.000 A 
ATOM      6  C   UNL     1       5.338   4.036  16.413  0.00  0.00    +0.000 A 
ATOM      7  C   UNL     1       6.157   5.177  16.296  0.00  0.00    +0.000 A 
ENDROOT
BRANCH   1  10
ATOM      8  C   UNL     1       7.628   7.728  17.787  0.00  0.00    +0.000 C 
ATOM      9  O   UNL     1       8.077   6.913  18.568  0.00  0.00    +0.000 OA
ATOM     10  N   UNL     1       6.511   7.536  16.975  0.00  0.00    +0.000 N 
ATOM     11  H   UNL     1       6.395   8.145  16.181  0.00  0.00    +0.000 HD
BRANCH   8  12
ATOM     12  C   UNL     1       8.293   9.077  17.561  0.00  0.00    +0.000 C 
BRANCH  12  13
ATOM     13  C   UNL     1       8.902   9.575  18.865  0.00  0.00    +0.000 C 
BRANCH  13  15
ATOM     14  C   UNL     1      10.687  11.263  19.294  0.00  0.00    +0.000 C 
ATOM     15  C   UNL     1       9.250  11.057  18.836  0.00  0.00    +0.000 C 
ENDBRANCH  13  15
ENDBRANCH  12  13
ENDBRANCH   8  12
ENDBRANCH   1  10
BRANCH   5  16
ATOM     16  O   UNL     1       3.565   2.773  17.172  0.00  0.00    +0.000 OA
ATOM     17  C   UNL     1       3.492   1.986  18.352  0.00  0.00    +0.000 C 
ENDBRANCH   5  16
BRANCH   7  18
ATOM     18  O   UNL     1       7.236   4.961  15.481  0.00  0.00    +0.000 OA
ATOM     19  C   UNL     1       7.037   4.536  14.142  0.00  0.00    +0.000 C 
ENDBRANCH   7  18
TORSDOF 6
ENDMDL
MODEL 6
REMARK VINA RESULT:      -6.1      1.892      2.422
REMARK  Name = 
REMARK  9 active torsions:
REMARK  status: ('A' for Active; 'I' for Inactive)
REMARK    1  A    between atoms: C_1  and  C_2
REMARK    2  A    between atoms: C_2  and  C_3
REMARK    3  A    between atoms: C_3  and  C_4
REMARK    4  A    between atoms: C_4  and  C_5
REMARK    5  A    between atoms: N_7  and  C_8
REMARK    6  A    between atoms: C_12  and  O_13
REMARK    7  A    between atoms: O_13  and  C_14
REMARK    8  A    between atoms: C_16  and  O_17
REMARK    9  A    between atoms: O_17  and  C_18
REMARK                            x       y       z     vdW  Elec       q    Type
REMARK                         _______ _______ _______ _____ _____    ______ ____
ROOT
ATOM      1  C   UNL     1       3.973   4.552  17.398  0.00  0.00    +0.000 A 
ATOM      2  C   UNL     1       3.512   5.778  17.907  0.00  0.00    +0.000 A 
ATOM      3  C   UNL     1       2.762   5.870  19.086  0.00  0.00    +0.000 A 
ATOM      4 CL   UNL     1       2.310   7.484  19.516  0.00  0.00    +0.000 Cl
ATOM      5  C   UNL     1       2.455   4.708  19.794  0.00  0.00    +0.000 A 
ATOM      6  C   UNL     1       2.903   3.478  19.267  0.00  0.00    +0.000 A 
ATOM      7  C   UNL     1       3.655   3.375  18.079  0.00  0.00    +0.000 A 
ENDROOT
BRANCH   1  10
ATOM      8  C   UNL     1       6.096   4.562  16.203  0.00  0.00    +0.000 C 
ATOM      9  O   UNL     1       6.790   4.491  17.198  0.00  0.00    +0.000 OA
ATOM     10  N   UNL     1       4.702   4.598  16.192  0.00  0.00    +0.000 N 
ATOM     11  H   UNL     1       4.231   4.374  15.331  0.00  0.00    +0.000 HD
BRANCH   8  12
ATOM     12  C   UNL     1       6.693   4.562  14.804  0.00  0.00    +0.000 C 
BRANCH  12  13
ATOM     13  C   UNL     1       5.632   4.153  13.792  0.00  0.00    +0.000 C 
BRANCH  13  15
ATOM     14  C   UNL     1       5.081   3.004  11.648  0.00  0.00    +0.000 C 
ATOM     15  C   UNL     1       6.207   3.448  12.571  0.00  0.00    +0.000 C 
ENDBRANCH  13  15
ENDBRANCH  12  13
ENDBRANCH   8  12
ENDBRANCH   1  10
BRANCH   5  16
ATOM     16  O   UNL     1       1.764   4.544  20.964  0.00  0.00    +0.000 OA
ATOM     17  C   UNL     1       1.499   3.236  21.447  0.00  0.00    +0.000 C 
ENDBRANCH   5  16
BRANCH   7  18
ATOM     18  O   UNL     1       3.986   2.079  17.785  0.00  0.00    +0.000 OA
ATOM     19  C   UNL     1       3.663   1.041  18.697  0.00  0.00    +0.000 C 
ENDBRANCH   7  18
TORSDOF 6
ENDMDL
MODEL 7
REMARK VINA RESULT:      -6.1      3.588      6.143
REMARK  Name = 
REMARK  9 active torsions:
REMARK  status: ('A' for Active; 'I' for Inactive)
REMARK    1  A    between atoms: C_1  and  C_2
REMARK    2  A    between atoms: C_2  and  C_3
REMARK    3  A    between atoms: C_3  and  C_4
REMARK    4  A    between atoms: C_4  and  C_5
REMARK    5  A    between atoms: N_7  and  C_8
REMARK    6  A    between atoms: C_12  and  O_13
REMARK    7  A    between atoms: O_13  and  C_14
REMARK    8  A    between atoms: C_16  and  O_17
REMARK    9  A    between atoms: O_17  and  C_18
REMARK                            x       y       z     vdW  Elec       q    Type
REMARK                         _______ _______ _______ _____ _____    ______ ____
ROOT
ATOM      1  C   UNL     1       4.105   4.825  18.307  0.00  0.00    +0.000 A 
ATOM      2  C   UNL     1       5.432   4.374  18.208  0.00  0.00    +0.000 A 
ATOM      3  C   UNL     1       6.460   5.169  17.687  0.00  0.00    +0.000 A 
ATOM      4 CL   UNL     1       8.011   4.402  17.668  0.00  0.00    +0.000 Cl
ATOM      5  C   UNL     1       6.171   6.461  17.247  0.00  0.00    +0.000 A 
ATOM      6  C   UNL     1       4.832   6.900  17.330  0.00  0.00    +0.000 A 
ATOM      7  C   UNL     1       3.790   6.106  17.849  0.00  0.00    +0.000 A 
ENDROOT
BRANCH   1  10
ATOM      8  C   UNL     1       2.349   3.166  17.987  0.00  0.00    +0.000 C 
ATOM      9  O   UNL     1       2.366   3.212  16.773  0.00  0.00    +0.000 OA
ATOM     10  N   UNL     1       3.163   3.918  18.834  0.00  0.00    +0.000 N 
ATOM     11  H   UNL     1       3.269   3.606  19.786  0.00  0.00    +0.000 HD
BRANCH   8  12
ATOM     12  C   UNL     1       1.444   2.206  18.743  0.00  0.00    +0.000 C 
BRANCH  12  13
ATOM     13  C   UNL     1       0.459   2.993  19.596  0.00  0.00    +0.000 C 
BRANCH  13  15
ATOM     14  C   UNL     1       1.611   2.522  21.757  0.00  0.00    +0.000 C 
ATOM     15  C   UNL     1       1.097   3.615  20.831  0.00  0.00    +0.000 C 
ENDBRANCH  13  15
ENDBRANCH  12  13
ENDBRANCH   8  12
ENDBRANCH   1  10
BRANCH   5  16
ATOM     16  O   UNL     1       6.995   7.422  16.725  0.00  0.00    +0.000 OA
ATOM     17  C   UNL     1       7.794   8.210  17.593  0.00  0.00    +0.000 C 
ENDBRANCH   5  16
BRANCH   7  18
ATOM     18  O   UNL     1       2.586   6.759  17.841  0.00  0.00    +0.000 OA
ATOM     19  C   UNL     1       2.537   8.156  18.084  0.00  0.00    +0.000 C 
ENDBRANCH   7  18
TORSDOF 6
ENDMDL
MODEL 8
REMARK VINA RESULT:      -6.1      0.852      1.073
REMARK  Name = 
REMARK  9 active torsions:
REMARK  status: ('A' for Active; 'I' for Inactive)
REMARK    1  A    between atoms: C_1  and  C_2
REMARK    2  A    between atoms: C_2  and  C_3
REMARK    3  A    between atoms: C_3  and  C_4
REMARK    4  A    between atoms: C_4  and  C_5
REMARK    5  A    between atoms: N_7  and  C_8
REMARK    6  A    between atoms: C_12  and  O_13
REMARK    7  A    between atoms: O_13  and  C_14
REMARK    8  A    between atoms: C_16  and  O_17
REMARK    9  A    between atoms: O_17  and  C_18
REMARK                            x       y       z     vdW  Elec       q    Type
REMARK                         _______ _______ _______ _____ _____    ______ ____
ROOT
ATOM      1  C   UNL     1       5.095   3.988  16.843  0.00  0.00    +0.000 A 
ATOM      2  C   UNL     1       3.695   3.903  16.940  0.00  0.00    +0.000 A 
ATOM      3  C   UNL     1       2.998   4.256  18.101  0.00  0.00    +0.000 A 
ATOM      4 CL   UNL     1       1.281   4.071  17.983  0.00  0.00    +0.000 Cl
ATOM      5  C   UNL     1       3.705   4.714  19.213  0.00  0.00    +0.000 A 
ATOM      6  C   UNL     1       5.112   4.778  19.116  0.00  0.00    +0.000 A 
ATOM      7  C   UNL     1       5.824   4.421  17.953  0.00  0.00    +0.000 A 
ENDROOT
BRANCH   1  10
ATOM      8  C   UNL     1       5.955   4.517  14.626  0.00  0.00    +0.000 C 
ATOM      9  O   UNL     1       5.741   5.711  14.700  0.00  0.00    +0.000 OA
ATOM     10  N   UNL     1       5.673   3.584  15.623  0.00  0.00    +0.000 N 
ATOM     11  H   UNL     1       6.137   2.691  15.578  0.00  0.00    +0.000 HD
BRANCH   8  12
ATOM     12  C   UNL     1       6.628   3.895  13.413  0.00  0.00    +0.000 C 
BRANCH  12  13
ATOM     13  C   UNL     1       5.599   3.667  12.314  0.00  0.00    +0.000 C 
BRANCH  13  15
ATOM     14  C   UNL     1       7.161   1.921  11.459  0.00  0.00    +0.000 C 
ATOM     15  C   UNL     1       5.700   2.289  11.673  0.00  0.00    +0.000 C 
ENDBRANCH  13  15
ENDBRANCH  12  13
ENDBRANCH   8  12
ENDBRANCH   1  10
BRANCH   5  16
ATOM     16  O   UNL     1       3.256   5.132  20.436  0.00  0.00    +0.000 OA
ATOM     17  C   UNL     1       2.120   4.511  21.018  0.00  0.00    +0.000 C 
ENDBRANCH   5  16
BRANCH   7  18
ATOM     18  O   UNL     1       7.176   4.585  18.099  0.00  0.00    +0.000 OA
ATOM     19  C   UNL     1       7.679   5.705  18.811  0.00  0.00    +0.000 C 
ENDBRANCH   7  18
TORSDOF 6
ENDMDL
MODEL 9
REMARK VINA RESULT:      -6.0      1.568      1.726
REMARK  Name = 
REMARK  9 active torsions:
REMARK  status: ('A' for Active; 'I' for Inactive)
REMARK    1  A    between atoms: C_1  and  C_2
REMARK    2  A    between atoms: C_2  and  C_3
REMARK    3  A    between atoms: C_3  and  C_4
REMARK    4  A    between atoms: C_4  and  C_5
REMARK    5  A    between atoms: N_7  and  C_8
REMARK    6  A    between atoms: C_12  and  O_13
REMARK    7  A    between atoms: O_13  and  C_14
REMARK    8  A    between atoms: C_16  and  O_17
REMARK    9  A    between atoms: O_17  and  C_18
REMARK                            x       y       z     vdW  Elec       q    Type
REMARK                         _______ _______ _______ _____ _____    ______ ____
ROOT
ATOM      1  C   UNL     1       4.754   4.662  16.617  0.00  0.00    +0.000 A 
ATOM      2  C   UNL     1       4.216   3.452  17.086  0.00  0.00    +0.000 A 
ATOM      3  C   UNL     1       3.643   3.324  18.357  0.00  0.00    +0.000 A 
ATOM      4 CL   UNL     1       3.043   1.740  18.710  0.00  0.00    +0.000 Cl
ATOM      5  C   UNL     1       3.596   4.434  19.201  0.00  0.00    +0.000 A 
ATOM      6  C   UNL     1       4.157   5.641  18.733  0.00  0.00    +0.000 A 
ATOM      7  C   UNL     1       4.740   5.779  17.457  0.00  0.00    +0.000 A 
ENDROOT
BRANCH   1  10
ATOM      8  C   UNL     1       6.695   4.517  15.152  0.00  0.00    +0.000 C 
ATOM      9  O   UNL     1       7.509   4.404  16.047  0.00  0.00    +0.000 OA
ATOM     10  N   UNL     1       5.318   4.649  15.325  0.00  0.00    +0.000 N 
ATOM     11  H   UNL     1       4.722   4.454  14.537  0.00  0.00    +0.000 HD
BRANCH   8  12
ATOM     12  C   UNL     1       7.100   4.467  13.687  0.00  0.00    +0.000 C 
BRANCH  12  13
ATOM     13  C   UNL     1       6.081   3.655  12.899  0.00  0.00    +0.000 C 
BRANCH  13  15
ATOM     14  C   UNL     1       5.880   1.679  11.391  0.00  0.00    +0.000 C 
ATOM     15  C   UNL     1       6.685   2.932  11.703  0.00  0.00    +0.000 C 
ENDBRANCH  13  15
ENDBRANCH  12  13
ENDBRANCH   8  12
ENDBRANCH   1  10
BRANCH   5  16
ATOM     16  O   UNL     1       3.077   4.564  20.461  0.00  0.00    +0.000 OA
ATOM     17  C   UNL     1       1.887   5.310  20.659  0.00  0.00    +0.000 C 
ENDBRANCH   5  16
BRANCH   7  18
ATOM     18  O   UNL     1       5.198   7.049  17.228  0.00  0.00    +0.000 OA
ATOM     19  C   UNL     1       6.563   7.360  17.456  0.00  0.00    +0.000 C 
ENDBRANCH   7  18
TORSDOF 6
ENDMDL
