MODEL 1
REMARK VINA RESULT:      -8.7      0.000      0.000
REMARK  Name = 
REMARK  5 active torsions:
REMARK  status: ('A' for Active; 'I' for Inactive)
REMARK    1  A    between atoms: C_1  and  C_2
REMARK    2  A    between atoms: C_7  and  C_8
REMARK    3  A    between atoms: N_13  and  C_14
REMARK    4  A    between atoms: C_14  and  C_15
REMARK    5  A    between atoms: N_21  and  C_22
REMARK                            x       y       z     vdW  Elec       q    Type
REMARK                         _______ _______ _______ _____ _____    ______ ____
ROOT
ATOM      1  C   UNL     1       1.793   7.349  19.982  0.00  0.00    +0.000 A 
ATOM      2  C   UNL     1       2.626   7.104  18.894  0.00  0.00    +0.000 A 
ATOM      3  C   UNL     1       3.071   5.760  18.852  0.00  0.00    +0.000 A 
ATOM      4  N   UNL     1       3.957   5.249  17.902  0.00  0.00    +0.000 NA
ATOM      5  C   UNL     1       4.309   3.993  18.051  0.00  0.00    +0.000 A 
ATOM      6  N   UNL     1       5.161   3.458  17.114  0.00  0.00    +0.000 N 
ATOM      7  N   UNL     1       3.855   3.182  19.107  0.00  0.00    +0.000 N 
ATOM      8  C   UNL     1       4.340   1.840  19.383  0.00  0.00    +0.000 C 
ATOM      9  C   UNL     1       2.970   3.660  20.090  0.00  0.00    +0.000 A 
ATOM     10  O   UNL     1       2.611   2.983  21.053  0.00  0.00    +0.000 OA
ATOM     11  C   UNL     1       2.580   5.011  19.869  0.00  0.00    +0.000 A 
ATOM     12  S   UNL     1       1.496   5.862  20.836  0.00  0.00    +0.000 S 
ATOM     13  H   UNL     1       5.305   2.463  17.053  0.00  0.00    +0.000 HD
ENDROOT
BRANCH   1  20
ATOM     14  C   UNL     1       0.937   9.668  18.158  0.00  0.00    +0.000 C 
ATOM     15  C   UNL     1       0.775   9.674  19.654  0.00  0.00    +0.000 A 
ATOM     16  C   UNL     1       0.202  10.825  20.235  0.00  0.00    +0.000 A 
ATOM     17  C   UNL     1       0.008  10.928  21.610  0.00  0.00    +0.000 A 
ATOM     18  C   UNL     1       0.396   9.887  22.435  0.00  0.00    +0.000 A 
ATOM     19  C   UNL     1       0.982   8.747  21.880  0.00  0.00    +0.000 A 
ATOM     20  C   UNL     1       1.175   8.603  20.486  0.00  0.00    +0.000 A 
ENDBRANCH   1  20
BRANCH   6  21
ATOM     21  C   UNL     1       6.052   4.245  16.284  0.00  0.00    +0.000 C 
BRANCH  21  22
ATOM     22  C   UNL     1       6.844   5.241  17.094  0.00  0.00    +0.000 A 
ATOM     23  C   UNL     1       6.898   6.587  16.714  0.00  0.00    +0.000 A 
ATOM     24  C   UNL     1       7.578   7.482  17.526  0.00  0.00    +0.000 A 
ATOM     25  N   UNL     1       8.200   7.139  18.673  0.00  0.00    +0.000 NA
ATOM     26  C   UNL     1       8.139   5.838  19.024  0.00  0.00    +0.000 A 
ATOM     27  C   UNL     1       7.484   4.866  18.282  0.00  0.00    +0.000 A 
ENDBRANCH  21  22
ENDBRANCH   6  21
TORSDOF 3
ENDMDL
MODEL 2
REMARK VINA RESULT:      -8.5      4.108      8.630
REMARK  Name = 
REMARK  5 active torsions:
REMARK  status: ('A' for Active; 'I' for Inactive)
REMARK    1  A    between atoms: C_1  and  C_2
REMARK    2  A    between atoms: C_7  and  C_8
REMARK    3  A    between atoms: N_13  and  C_14
REMARK    4  A    between atoms: C_14  and  C_15
REMARK    5  A    between atoms: N_21  and  C_22
REMARK                            x       y       z     vdW  Elec       q    Type
REMARK                         _______ _______ _______ _____ _____    ______ ____
ROOT
ATOM      1  C   UNL     1       2.633   7.136  18.410  0.00  0.00    +0.000 A 
ATOM      2  C   UNL     1       2.083   8.301  17.883  0.00  0.00    +0.000 A 
ATOM      3  C   UNL     1       1.410   9.067  18.866  0.00  0.00    +0.000 A 
ATOM      4  N   UNL     1       0.721  10.253  18.611  0.00  0.00    +0.000 NA
ATOM      5  C   UNL     1       0.103  10.799  19.632  0.00  0.00    +0.000 A 
ATOM      6  N   UNL     1      -0.563  11.983  19.413  0.00  0.00    +0.000 N 
ATOM      7  N   UNL     1       0.097  10.239  20.923  0.00  0.00    +0.000 N 
ATOM      8  C   UNL     1      -0.697  10.737  22.034  0.00  0.00    +0.000 C 
ATOM      9  C   UNL     1       0.770   9.040  21.221  0.00  0.00    +0.000 A 
ATOM     10  O   UNL     1       0.725   8.506  22.329  0.00  0.00    +0.000 OA
ATOM     11  C   UNL     1       1.461   8.504  20.098  0.00  0.00    +0.000 A 
ATOM     12  S   UNL     1       2.400   7.107  20.133  0.00  0.00    +0.000 S 
ATOM     13  H   UNL     1      -0.878  12.550  20.183  0.00  0.00    +0.000 HD
ENDROOT
BRANCH   1  20
ATOM     14  C   UNL     1       1.503   4.280  18.325  0.00  0.00    +0.000 C 
ATOM     15  C   UNL     1       2.818   4.680  17.713  0.00  0.00    +0.000 A 
ATOM     16  C   UNL     1       3.565   3.667  17.075  0.00  0.00    +0.000 A 
ATOM     17  C   UNL     1       4.794   3.935  16.475  0.00  0.00    +0.000 A 
ATOM     18  C   UNL     1       5.307   5.220  16.516  0.00  0.00    +0.000 A 
ATOM     19  C   UNL     1       4.590   6.231  17.159  0.00  0.00    +0.000 A 
ATOM     20  C   UNL     1       3.331   5.997  17.759  0.00  0.00    +0.000 A 
ENDBRANCH   1  20
BRANCH   6  21
ATOM     21  C   UNL     1      -1.033  12.420  18.113  0.00  0.00    +0.000 C 
BRANCH  21  22
ATOM     22  C   UNL     1      -2.369  11.814  17.764  0.00  0.00    +0.000 A 
ATOM     23  C   UNL     1      -3.440  11.882  18.663  0.00  0.00    +0.000 A 
ATOM     24  C   UNL     1      -4.671  11.376  18.275  0.00  0.00    +0.000 A 
ATOM     25  N   UNL     1      -4.910  10.814  17.072  0.00  0.00    +0.000 NA
ATOM     26  C   UNL     1      -3.869  10.755  16.217  0.00  0.00    +0.000 A 
ATOM     27  C   UNL     1      -2.599  11.233  16.510  0.00  0.00    +0.000 A 
ENDBRANCH  21  22
ENDBRANCH   6  21
TORSDOF 3
ENDMDL
MODEL 3
REMARK VINA RESULT:      -8.4      2.299      4.565
REMARK  Name = 
REMARK  5 active torsions:
REMARK  status: ('A' for Active; 'I' for Inactive)
REMARK    1  A    between atoms: C_1  and  C_2
REMARK    2  A    between atoms: C_7  and  C_8
REMARK    3  A    between atoms: N_13  and  C_14
REMARK    4  A    between atoms: C_14  and  C_15
REMARK    5  A    between atoms: N_21  and  C_22
REMARK                            x       y       z     vdW  Elec       q    Type
REMARK                         _______ _______ _______ _____ _____    ______ ____
ROOT
ATOM      1  C   UNL     1       1.986   8.203  19.071  0.00  0.00    +0.000 A 
ATOM      2  C   UNL     1       2.348   7.043  19.749  0.00  0.00    +0.000 A 
ATOM      3  C   UNL     1       3.335   6.302  19.052  0.00  0.00    +0.000 A 
ATOM      4  N   UNL     1       3.844   5.073  19.470  0.00  0.00    +0.000 NA
ATOM      5  C   UNL     1       4.710   4.497  18.668  0.00  0.00    +0.000 A 
ATOM      6  N   UNL     1       5.247   3.296  19.069  0.00  0.00    +0.000 N 
ATOM      7  N   UNL     1       5.110   5.050  17.438  0.00  0.00    +0.000 N 
ATOM      8  C   UNL     1       5.948   4.371  16.463  0.00  0.00    +0.000 C 
ATOM      9  C   UNL     1       4.615   6.282  16.974  0.00  0.00    +0.000 A 
ATOM     10  O   UNL     1       4.909   6.750  15.874  0.00  0.00    +0.000 OA
ATOM     11  C   UNL     1       3.713   6.892  17.891  0.00  0.00    +0.000 A 
ATOM     12  S   UNL     1       2.981   8.390  17.657  0.00  0.00    +0.000 S 
ATOM     13  H   UNL     1       6.055   2.910  18.608  0.00  0.00    +0.000 HD
ENDROOT
BRANCH   1  20
ATOM     14  C   UNL     1       1.196   9.071  21.911  0.00  0.00    +0.000 C 
ATOM     15  C   UNL     1       0.576   9.632  20.660  0.00  0.00    +0.000 A 
ATOM     16  C   UNL     1      -0.431  10.607  20.822  0.00  0.00    +0.000 A 
ATOM     17  C   UNL     1      -1.065  11.190  19.727  0.00  0.00    +0.000 A 
ATOM     18  C   UNL     1      -0.715  10.798  18.447  0.00  0.00    +0.000 A 
ATOM     19  C   UNL     1       0.268   9.821  18.268  0.00  0.00    +0.000 A 
ATOM     20  C   UNL     1       0.944   9.225  19.357  0.00  0.00    +0.000 A 
ENDBRANCH   1  20
BRANCH   6  21
ATOM     21  C   UNL     1       4.617   2.406  20.025  0.00  0.00    +0.000 C 
BRANCH  21  22
ATOM     22  C   UNL     1       3.114   2.414  19.897  0.00  0.00    +0.000 A 
ATOM     23  C   UNL     1       2.312   2.854  20.956  0.00  0.00    +0.000 A 
ATOM     24  C   UNL     1       0.939   2.913  20.772  0.00  0.00    +0.000 A 
ATOM     25  N   UNL     1       0.315   2.571  19.626  0.00  0.00    +0.000 NA
ATOM     26  C   UNL     1       1.103   2.149  18.615  0.00  0.00    +0.000 A 
ATOM     27  C   UNL     1       2.485   2.054  18.699  0.00  0.00    +0.000 A 
ENDBRANCH  21  22
ENDBRANCH   6  21
TORSDOF 3
ENDMDL
MODEL 4
REMARK VINA RESULT:      -8.4      4.098      8.581
REMARK  Name = 
REMARK  5 active torsions:
REMARK  status: ('A' for Active; 'I' for Inactive)
REMARK    1  A    between atoms: C_1  and  C_2
REMARK    2  A    between atoms: C_7  and  C_8
REMARK    3  A    between atoms: N_13  and  C_14
REMARK    4  A    between atoms: C_14  and  C_15
REMARK    5  A    between atoms: N_21  and  C_22
REMARK                            x       y       z     vdW  Elec       q    Type
REMARK                         _______ _______ _______ _____ _____    ______ ____
ROOT
ATOM      1  C   UNL     1       2.353   7.035  18.550  0.00  0.00    +0.000 A 
ATOM      2  C   UNL     1       1.855   8.204  17.983  0.00  0.00    +0.000 A 
ATOM      3  C   UNL     1       1.322   9.085  18.956  0.00  0.00    +0.000 A 
ATOM      4  N   UNL     1       0.708  10.305  18.667  0.00  0.00    +0.000 NA
ATOM      5  C   UNL     1       0.216  10.965  19.690  0.00  0.00    +0.000 A 
ATOM      6  N   UNL     1      -0.371  12.183  19.436  0.00  0.00    +0.000 N 
ATOM      7  N   UNL     1       0.267  10.492  21.014  0.00  0.00    +0.000 N 
ATOM      8  C   UNL     1      -0.397  11.125  22.141  0.00  0.00    +0.000 C 
ATOM      9  C   UNL     1       0.867   9.264  21.347  0.00  0.00    +0.000 A 
ATOM     10  O   UNL     1       0.868   8.808  22.490  0.00  0.00    +0.000 OA
ATOM     11  C   UNL     1       1.425   8.601  20.218  0.00  0.00    +0.000 A 
ATOM     12  S   UNL     1       2.253   7.137  20.283  0.00  0.00    +0.000 S 
ATOM     13  H   UNL     1      -0.581  12.823  20.185  0.00  0.00    +0.000 HD
ENDROOT
BRANCH   1  20
ATOM     14  C   UNL     1       5.146   6.886  17.277  0.00  0.00    +0.000 C 
ATOM     15  C   UNL     1       4.193   5.723  17.348  0.00  0.00    +0.000 A 
ATOM     16  C   UNL     1       4.623   4.504  16.783  0.00  0.00    +0.000 A 
ATOM     17  C   UNL     1       3.817   3.368  16.799  0.00  0.00    +0.000 A 
ATOM     18  C   UNL     1       2.557   3.432  17.368  0.00  0.00    +0.000 A 
ATOM     19  C   UNL     1       2.107   4.636  17.915  0.00  0.00    +0.000 A 
ATOM     20  C   UNL     1       2.908   5.802  17.933  0.00  0.00    +0.000 A 
ENDBRANCH   1  20
BRANCH   6  21
ATOM     21  C   UNL     1      -0.907  12.572  18.145  0.00  0.00    +0.000 C 
BRANCH  21  22
ATOM     22  C   UNL     1      -2.242  11.927  17.872  0.00  0.00    +0.000 A 
ATOM     23  C   UNL     1      -3.283  12.021  18.803  0.00  0.00    +0.000 A 
ATOM     24  C   UNL     1      -4.517  11.477  18.482  0.00  0.00    +0.000 A 
ATOM     25  N   UNL     1      -4.787  10.854  17.317  0.00  0.00    +0.000 NA
ATOM     26  C   UNL     1      -3.773  10.771  16.430  0.00  0.00    +0.000 A 
ATOM     27  C   UNL     1      -2.504  11.283  16.656  0.00  0.00    +0.000 A 
ENDBRANCH  21  22
ENDBRANCH   6  21
TORSDOF 3
ENDMDL
MODEL 5
REMARK VINA RESULT:      -8.4      1.744      2.601
REMARK  Name = 
REMARK  5 active torsions:
REMARK  status: ('A' for Active; 'I' for Inactive)
REMARK    1  A    between atoms: C_1  and  C_2
REMARK    2  A    between atoms: C_7  and  C_8
REMARK    3  A    between atoms: N_13  and  C_14
REMARK    4  A    between atoms: C_14  and  C_15
REMARK    5  A    between atoms: N_21  and  C_22
REMARK                            x       y       z     vdW  Elec       q    Type
REMARK                         _______ _______ _______ _____ _____    ______ ____
ROOT
ATOM      1  C   UNL     1       1.888   7.324  19.882  0.00  0.00    +0.000 A 
ATOM      2  C   UNL     1       2.852   7.222  18.884  0.00  0.00    +0.000 A 
ATOM      3  C   UNL     1       3.259   5.882  18.668  0.00  0.00    +0.000 A 
ATOM      4  N   UNL     1       4.249   5.491  17.766  0.00  0.00    +0.000 NA
ATOM      5  C   UNL     1       4.540   4.211  17.740  0.00  0.00    +0.000 A 
ATOM      6  N   UNL     1       5.496   3.795  16.842  0.00  0.00    +0.000 N 
ATOM      7  N   UNL     1       3.924   3.260  18.574  0.00  0.00    +0.000 N 
ATOM      8  C   UNL     1       4.327   1.867  18.674  0.00  0.00    +0.000 C 
ATOM      9  C   UNL     1       2.928   3.612  19.503  0.00  0.00    +0.000 A 
ATOM     10  O   UNL     1       2.422   2.804  20.280  0.00  0.00    +0.000 OA
ATOM     11  C   UNL     1       2.613   5.000  19.470  0.00  0.00    +0.000 A 
ATOM     12  S   UNL     1       1.433   5.734  20.421  0.00  0.00    +0.000 S 
ATOM     13  H   UNL     1       5.617   2.818  16.630  0.00  0.00    +0.000 HD
ENDROOT
BRANCH   1  20
ATOM     14  C   UNL     1       0.858   9.741  18.289  0.00  0.00    +0.000 C 
ATOM     15  C   UNL     1       0.765   9.623  19.786  0.00  0.00    +0.000 A 
ATOM     16  C   UNL     1       0.175  10.699  20.481  0.00  0.00    +0.000 A 
ATOM     17  C   UNL     1       0.040  10.685  21.868  0.00  0.00    +0.000 A 
ATOM     18  C   UNL     1       0.507   9.600  22.589  0.00  0.00    +0.000 A 
ATOM     19  C   UNL     1       1.110   8.533  21.919  0.00  0.00    +0.000 A 
ATOM     20  C   UNL     1       1.245   8.507  20.511  0.00  0.00    +0.000 A 
ENDBRANCH   1  20
BRANCH   6  21
ATOM     21  C   UNL     1       6.513   4.663  16.281  0.00  0.00    +0.000 C 
BRANCH  21  22
ATOM     22  C   UNL     1       6.621   4.511  14.785  0.00  0.00    +0.000 A 
ATOM     23  C   UNL     1       7.608   5.197  14.068  0.00  0.00    +0.000 A 
ATOM     24  C   UNL     1       7.718   4.974  12.704  0.00  0.00    +0.000 A 
ATOM     25  N   UNL     1       6.929   4.128  12.011  0.00  0.00    +0.000 NA
ATOM     26  C   UNL     1       5.983   3.474  12.716  0.00  0.00    +0.000 A 
ATOM     27  C   UNL     1       5.791   3.627  14.082  0.00  0.00    +0.000 A 
ENDBRANCH  21  22
ENDBRANCH   6  21
TORSDOF 3
ENDMDL
MODEL 6
REMARK VINA RESULT:      -8.4      2.866      7.798
REMARK  Name = 
REMARK  5 active torsions:
REMARK  status: ('A' for Active; 'I' for Inactive)
REMARK    1  A    between atoms: C_1  and  C_2
REMARK    2  A    between atoms: C_7  and  C_8
REMARK    3  A    between atoms: N_13  and  C_14
REMARK    4  A    between atoms: C_14  and  C_15
REMARK    5  A    between atoms: N_21  and  C_22
REMARK                            x       y       z     vdW  Elec       q    Type
REMARK                         _______ _______ _______ _____ _____    ______ ____
ROOT
ATOM      1  C   UNL     1       4.979   4.685  15.949  0.00  0.00    +0.000 A 
ATOM      2  C   UNL     1       4.532   5.865  16.537  0.00  0.00    +0.000 A 
ATOM      3  C   UNL     1       3.837   5.630  17.749  0.00  0.00    +0.000 A 
ATOM      4  N   UNL     1       3.235   6.623  18.522  0.00  0.00    +0.000 NA
ATOM      5  C   UNL     1       2.580   6.216  19.585  0.00  0.00    +0.000 A 
ATOM      6  N   UNL     1       1.998   7.177  20.378  0.00  0.00    +0.000 N 
ATOM      7  N   UNL     1       2.455   4.862  19.945  0.00  0.00    +0.000 N 
ATOM      8  C   UNL     1       1.616   4.372  21.027  0.00  0.00    +0.000 C 
ATOM      9  C   UNL     1       3.038   3.829  19.190  0.00  0.00    +0.000 A 
ATOM     10  O   UNL     1       2.888   2.638  19.457  0.00  0.00    +0.000 OA
ATOM     11  C   UNL     1       3.773   4.314  18.071  0.00  0.00    +0.000 A 
ATOM     12  S   UNL     1       4.627   3.341  16.995  0.00  0.00    +0.000 S 
ATOM     13  H   UNL     1       1.664   6.954  21.301  0.00  0.00    +0.000 HD
ENDROOT
BRANCH   1  20
ATOM     14  C   UNL     1       7.849   5.588  15.324  0.00  0.00    +0.000 C 
ATOM     15  C   UNL     1       6.976   4.837  14.355  0.00  0.00    +0.000 A 
ATOM     16  C   UNL     1       7.523   4.547  13.087  0.00  0.00    +0.000 A 
ATOM     17  C   UNL     1       6.798   3.854  12.121  0.00  0.00    +0.000 A 
ATOM     18  C   UNL     1       5.504   3.450  12.397  0.00  0.00    +0.000 A 
ATOM     19  C   UNL     1       4.939   3.744  13.641  0.00  0.00    +0.000 A 
ATOM     20  C   UNL     1       5.655   4.428  14.651  0.00  0.00    +0.000 A 
ENDBRANCH   1  20
BRANCH   6  21
ATOM     21  C   UNL     1       1.643   8.505  19.915  0.00  0.00    +0.000 C 
BRANCH  21  22
ATOM     22  C   UNL     1       0.891   9.285  20.964  0.00  0.00    +0.000 A 
ATOM     23  C   UNL     1       0.710   8.761  22.249  0.00  0.00    +0.000 A 
ATOM     24  C   UNL     1       0.076   9.540  23.204  0.00  0.00    +0.000 A 
ATOM     25  N   UNL     1      -0.386  10.787  22.976  0.00  0.00    +0.000 NA
ATOM     26  C   UNL     1      -0.204  11.278  21.733  0.00  0.00    +0.000 A 
ATOM     27  C   UNL     1       0.418  10.579  20.708  0.00  0.00    +0.000 A 
ENDBRANCH  21  22
ENDBRANCH   6  21
TORSDOF 3
ENDMDL
MODEL 7
REMARK VINA RESULT:      -8.3      3.979      6.489
REMARK  Name = 
REMARK  5 active torsions:
REMARK  status: ('A' for Active; 'I' for Inactive)
REMARK    1  A    between atoms: C_1  and  C_2
REMARK    2  A    between atoms: C_7  and  C_8
REMARK    3  A    between atoms: N_13  and  C_14
REMARK    4  A    between atoms: C_14  and  C_15
REMARK    5  A    between atoms: N_21  and  C_22
REMARK                            x       y       z     vdW  Elec       q    Type
REMARK                         _______ _______ _______ _____ _____    ______ ____
ROOT
ATOM      1  C   UNL     1      -0.936  11.626  22.271  0.00  0.00    +0.000 A 
ATOM      2  C   UNL     1      -0.449  10.342  22.495  0.00  0.00    +0.000 A 
ATOM      3  C   UNL     1       0.321   9.863  21.406  0.00  0.00    +0.000 A 
ATOM      4  N   UNL     1       0.885   8.590  21.335  0.00  0.00    +0.000 NA
ATOM      5  C   UNL     1       1.517   8.294  20.222  0.00  0.00    +0.000 A 
ATOM      6  N   UNL     1       2.105   7.053  20.137  0.00  0.00    +0.000 N 
ATOM      7  N   UNL     1       1.621   9.178  19.133  0.00  0.00    +0.000 N 
ATOM      8  C   UNL     1       2.181   8.828  17.838  0.00  0.00    +0.000 C 
ATOM      9  C   UNL     1       1.058  10.467  19.159  0.00  0.00    +0.000 A 
ATOM     10  O   UNL     1       1.089  11.230  18.194  0.00  0.00    +0.000 OA
ATOM     11  C   UNL     1       0.421  10.763  20.397  0.00  0.00    +0.000 A 
ATOM     12  S   UNL     1      -0.308  12.235  20.767  0.00  0.00    +0.000 S 
ATOM     13  H   UNL     1       2.767   6.843  19.408  0.00  0.00    +0.000 HD
ENDROOT
BRANCH   1  20
ATOM     14  C   UNL     1      -0.353  14.569  22.935  0.00  0.00    +0.000 C 
ATOM     15  C   UNL     1      -1.593  13.840  23.376  0.00  0.00    +0.000 A 
ATOM     16  C   UNL     1      -2.526  14.565  24.146  0.00  0.00    +0.000 A 
ATOM     17  C   UNL     1      -3.707  13.982  24.600  0.00  0.00    +0.000 A 
ATOM     18  C   UNL     1      -3.971  12.655  24.307  0.00  0.00    +0.000 A 
ATOM     19  C   UNL     1      -3.049  11.916  23.561  0.00  0.00    +0.000 A 
ATOM     20  C   UNL     1      -1.851  12.484  23.068  0.00  0.00    +0.000 A 
ENDBRANCH   1  20
BRANCH   6  21
ATOM     21  C   UNL     1       1.703   5.909  20.932  0.00  0.00    +0.000 C 
BRANCH  21  22
ATOM     22  C   UNL     1       1.707   4.634  20.126  0.00  0.00    +0.000 A 
ATOM     23  C   UNL     1       1.459   3.401  20.741  0.00  0.00    +0.000 A 
ATOM     24  C   UNL     1       1.400   2.262  19.953  0.00  0.00    +0.000 A 
ATOM     25  N   UNL     1       1.569   2.261  18.615  0.00  0.00    +0.000 NA
ATOM     26  C   UNL     1       1.808   3.456  18.037  0.00  0.00    +0.000 A 
ATOM     27  C   UNL     1       1.885   4.652  18.737  0.00  0.00    +0.000 A 
ENDBRANCH  21  22
ENDBRANCH   6  21
TORSDOF 3
ENDMDL
MODEL 8
REMARK VINA RESULT:      -8.3      3.368      8.188
REMARK  Name = 
REMARK  5 active torsions:
REMARK  status: ('A' for Active; 'I' for Inactive)
REMARK    1  A    between atoms: C_1  and  C_2
REMARK    2  A    between atoms: C_7  and  C_8
REMARK    3  A    between atoms: N_13  and  C_14
REMARK    4  A    between atoms: C_14  and  C_15
REMARK    5  A    between atoms: N_21  and  C_22
REMARK                            x       y       z     vdW  Elec       q    Type
REMARK                         _______ _______ _______ _____ _____    ______ ____
ROOT
ATOM      1  C   UNL     1       4.171   6.475  17.592  0.00  0.00    +0.000 A 
ATOM      2  C   UNL     1       3.546   7.709  17.441  0.00  0.00    +0.000 A 
ATOM      3  C   UNL     1       2.644   7.985  18.498  0.00  0.00    +0.000 A 
ATOM      4  N   UNL     1       1.841   9.124  18.577  0.00  0.00    +0.000 NA
ATOM      5  C   UNL     1       1.018   9.186  19.599  0.00  0.00    +0.000 A 
ATOM      6  N   UNL     1       0.234  10.310  19.714  0.00  0.00    +0.000 N 
ATOM      7  N   UNL     1       0.909   8.173  20.568  0.00  0.00    +0.000 N 
ATOM      8  C   UNL     1      -0.092   8.144  21.621  0.00  0.00    +0.000 C 
ATOM      9  C   UNL     1       1.692   7.005  20.521  0.00  0.00    +0.000 A 
ATOM     10  O   UNL     1       1.567   6.083  21.326  0.00  0.00    +0.000 OA
ATOM     11  C   UNL     1       2.599   6.996  19.424  0.00  0.00    +0.000 A 
ATOM     12  S   UNL     1       3.706   5.766  19.111  0.00  0.00    +0.000 S 
ATOM     13  H   UNL     1      -0.260  10.512  20.568  0.00  0.00    +0.000 HD
ENDROOT
BRANCH   1  20
ATOM     14  C   UNL     1       7.189   7.034  17.450  0.00  0.00    +0.000 C 
ATOM     15  C   UNL     1       6.493   5.978  16.636  0.00  0.00    +0.000 A 
ATOM     16  C   UNL     1       7.289   5.216  15.755  0.00  0.00    +0.000 A 
ATOM     17  C   UNL     1       6.740   4.212  14.959  0.00  0.00    +0.000 A 
ATOM     18  C   UNL     1       5.381   3.961  15.017  0.00  0.00    +0.000 A 
ATOM     19  C   UNL     1       4.574   4.718  15.870  0.00  0.00    +0.000 A 
ATOM     20  C   UNL     1       5.102   5.730  16.706  0.00  0.00    +0.000 A 
ENDBRANCH   1  20
BRANCH   6  21
ATOM     21  C   UNL     1      -0.106  11.179  18.604  0.00  0.00    +0.000 C 
BRANCH  21  22
ATOM     22  C   UNL     1      -1.518  10.954  18.124  0.00  0.00    +0.000 A 
ATOM     23  C   UNL     1      -2.571  11.733  18.617  0.00  0.00    +0.000 A 
ATOM     24  C   UNL     1      -3.842  11.542  18.097  0.00  0.00    +0.000 A 
ATOM     25  N   UNL     1      -4.137  10.644  17.134  0.00  0.00    +0.000 NA
ATOM     26  C   UNL     1      -3.111   9.901  16.670  0.00  0.00    +0.000 A 
ATOM     27  C   UNL     1      -1.805  10.016  17.124  0.00  0.00    +0.000 A 
ENDBRANCH  21  22
ENDBRANCH   6  21
TORSDOF 3
ENDMDL
MODEL 9
REMARK VINA RESULT:      -8.2      4.487      9.233
REMARK  Name = 
REMARK  5 active torsions:
REMARK  status: ('A' for Active; 'I' for Inactive)
REMARK    1  A    between atoms: C_1  and  C_2
REMARK    2  A    between atoms: C_7  and  C_8
REMARK    3  A    between atoms: N_13  and  C_14
REMARK    4  A    between atoms: C_14  and  C_15
REMARK    5  A    between atoms: N_21  and  C_22
REMARK                            x       y       z     vdW  Elec       q    Type
REMARK                         _______ _______ _______ _____ _____    ______ ____
ROOT
ATOM      1  C   UNL     1       2.372   6.619  19.640  0.00  0.00    +0.000 A 
ATOM      2  C   UNL     1       1.527   7.208  20.575  0.00  0.00    +0.000 A 
ATOM      3  C   UNL     1       1.158   8.526  20.209  0.00  0.00    +0.000 A 
ATOM      4  N   UNL     1       0.364   9.370  20.985  0.00  0.00    +0.000 NA
ATOM      5  C   UNL     1       0.173  10.582  20.517  0.00  0.00    +0.000 A 
ATOM      6  N   UNL     1      -0.627  11.427  21.250  0.00  0.00    +0.000 N 
ATOM      7  N   UNL     1       0.738  11.046  19.315  0.00  0.00    +0.000 N 
ATOM      8  C   UNL     1       0.669  12.420  18.848  0.00  0.00    +0.000 C 
ATOM      9  C   UNL     1       1.552  10.231  18.508  0.00  0.00    +0.000 A 
ATOM     10  O   UNL     1       2.103  10.639  17.486  0.00  0.00    +0.000 OA
ATOM     11  C   UNL     1       1.699   8.914  19.028  0.00  0.00    +0.000 A 
ATOM     12  S   UNL     1       2.570   7.683  18.279  0.00  0.00    +0.000 S 
ATOM     13  H   UNL     1      -0.976  12.285  20.854  0.00  0.00    +0.000 HD
ENDROOT
BRANCH   1  20
ATOM     14  C   UNL     1       1.052   3.971  20.472  0.00  0.00    +0.000 C 
ATOM     15  C   UNL     1       2.483   4.089  20.019  0.00  0.00    +0.000 A 
ATOM     16  C   UNL     1       3.248   2.905  19.989  0.00  0.00    +0.000 A 
ATOM     17  C   UNL     1       4.581   2.907  19.583  0.00  0.00    +0.000 A 
ATOM     18  C   UNL     1       5.179   4.098  19.213  0.00  0.00    +0.000 A 
ATOM     19  C   UNL     1       4.442   5.284  19.253  0.00  0.00    +0.000 A 
ATOM     20  C   UNL     1       3.082   5.313  19.641  0.00  0.00    +0.000 A 
ENDBRANCH   1  20
BRANCH   6  21
ATOM     21  C   UNL     1      -0.880  11.275  22.670  0.00  0.00    +0.000 C 
BRANCH  21  22
ATOM     22  C   UNL     1      -1.743  12.388  23.211  0.00  0.00    +0.000 A 
ATOM     23  C   UNL     1      -3.054  12.134  23.631  0.00  0.00    +0.000 A 
ATOM     24  C   UNL     1      -3.788  13.169  24.188  0.00  0.00    +0.000 A 
ATOM     25  N   UNL     1      -3.319  14.423  24.356  0.00  0.00    +0.000 NA
ATOM     26  C   UNL     1      -2.055  14.652  23.945  0.00  0.00    +0.000 A 
ATOM     27  C   UNL     1      -1.238  13.684  23.377  0.00  0.00    +0.000 A 
ENDBRANCH  21  22
ENDBRANCH   6  21
TORSDOF 3
ENDMDL
