MODEL 1
REMARK VINA RESULT:      -7.2      0.000      0.000
REMARK  Name = 
REMARK  11 active torsions:
REMARK  status: ('A' for Active; 'I' for Inactive)
REMARK    1  A    between atoms: C_1  and  C_2
REMARK    2  A    between atoms: C_2  and  C_3
REMARK    3  A    between atoms: C_2  and  C_4
REMARK    4  A    between atoms: C_2  and  O_5
REMARK    5  A    between atoms: O_5  and  C_6
REMARK    6  A    between atoms: N_8  and  C_9
REMARK    7  A    between atoms: C_9  and  C_10
REMARK    8  A    between atoms: C_10  and  N_11
REMARK    9  A    between atoms: C_12  and  O_14
REMARK   10  A    between atoms: O_14  and  C_15
REMARK   11  A    between atoms: C_15  and  C_16
REMARK                            x       y       z     vdW  Elec       q    Type
REMARK                         _______ _______ _______ _____ _____    ______ ____
ROOT
ATOM      1  N   UNL     1       7.740   6.127  18.600  0.00  0.00    +0.000 N 
ATOM      2  C   UNL     1       7.903   7.253  17.844  0.00  0.00    +0.000 C 
ATOM      3  O   UNL     1       7.738   7.296  16.635  0.00  0.00    +0.000 OA
ATOM      4  H   UNL     1       8.014   6.193  19.572  0.00  0.00    +0.000 HD
ENDROOT
BRANCH   1   5
ATOM      5  C   UNL     1       7.414   4.834  18.021  0.00  0.00    +0.000 C 
BRANCH   5   6
ATOM      6  C   UNL     1       5.944   4.716  17.586  0.00  0.00    +0.000 C 
BRANCH   6   9
ATOM      7  C   UNL     1       4.151   3.638  18.882  0.00  0.00    +0.000 C 
ATOM      8  O   UNL     1       4.095   2.677  18.133  0.00  0.00    +0.000 OA
ATOM      9  N   UNL     1       5.020   4.674  18.706  0.00  0.00    +0.000 N 
ATOM     10  H   UNL     1       5.012   5.410  19.399  0.00  0.00    +0.000 HD
BRANCH   7  11
ATOM     11  O   UNL     1       3.389   3.837  19.988  0.00  0.00    +0.000 OA
BRANCH  11  13
ATOM     12  C   UNL     1       1.817   5.631  20.612  0.00  0.00    +0.000 C 
ATOM     13  C   UNL     1       2.023   4.325  19.836  0.00  0.00    +0.000 C 
ATOM     14  C   UNL     1       1.001   3.250  20.228  0.00  0.00    +0.000 C 
ATOM     15  C   UNL     1       1.830   4.633  18.340  0.00  0.00    +0.000 C 
ENDBRANCH  11  13
ENDBRANCH   7  11
ENDBRANCH   6   9
ENDBRANCH   5   6
ENDBRANCH   1   5
BRANCH   2  16
ATOM     16  O   UNL     1       8.340   8.272  18.624  0.00  0.00    +0.000 OA
BRANCH  16  17
ATOM     17  C   UNL     1       8.348   9.563  17.996  0.00  0.00    +0.000 C 
BRANCH  17  18
ATOM     18  C   UNL     1       9.322  10.524  18.635  0.00  0.00    +0.000 A 
ATOM     19  C   UNL     1       9.318  10.734  20.023  0.00  0.00    +0.000 A 
ATOM     20  C   UNL     1      10.274  11.562  20.619  0.00  0.00    +0.000 A 
ATOM     21  C   UNL     1      11.237  12.195  19.836  0.00  0.00    +0.000 A 
ATOM     22  C   UNL     1      11.241  12.007  18.455  0.00  0.00    +0.000 A 
ATOM     23  C   UNL     1      10.285  11.180  17.857  0.00  0.00    +0.000 A 
ENDBRANCH  17  18
ENDBRANCH  16  17
ENDBRANCH   2  16
TORSDOF 8
ENDMDL
MODEL 2
REMARK VINA RESULT:      -7.1      1.435      2.078
REMARK  Name = 
REMARK  11 active torsions:
REMARK  status: ('A' for Active; 'I' for Inactive)
REMARK    1  A    between atoms: C_1  and  C_2
REMARK    2  A    between atoms: C_2  and  C_3
REMARK    3  A    between atoms: C_2  and  C_4
REMARK    4  A    between atoms: C_2  and  O_5
REMARK    5  A    between atoms: O_5  and  C_6
REMARK    6  A    between atoms: N_8  and  C_9
REMARK    7  A    between atoms: C_9  and  C_10
REMARK    8  A    between atoms: C_10  and  N_11
REMARK    9  A    between atoms: C_12  and  O_14
REMARK   10  A    between atoms: O_14  and  C_15
REMARK   11  A    between atoms: C_15  and  C_16
REMARK                            x       y       z     vdW  Elec       q    Type
REMARK                         _______ _______ _______ _____ _____    ______ ____
ROOT
ATOM      1  N   UNL     1       6.838   7.321  17.195  0.00  0.00    +0.000 N 
ATOM      2  C   UNL     1       7.728   6.940  18.158  0.00  0.00    +0.000 C 
ATOM      3  O   UNL     1       7.778   5.819  18.640  0.00  0.00    +0.000 OA
ATOM      4  H   UNL     1       6.824   8.304  16.957  0.00  0.00    +0.000 HD
ENDROOT
BRANCH   1   5
ATOM      5  C   UNL     1       5.803   6.434  16.689  0.00  0.00    +0.000 C 
BRANCH   5   6
ATOM      6  C   UNL     1       4.435   6.655  17.355  0.00  0.00    +0.000 C 
BRANCH   6   9
ATOM      7  C   UNL     1       4.019   4.868  18.996  0.00  0.00    +0.000 C 
ATOM      8  O   UNL     1       4.751   5.372  19.830  0.00  0.00    +0.000 OA
ATOM      9  N   UNL     1       3.795   5.418  17.768  0.00  0.00    +0.000 N 
ATOM     10  H   UNL     1       3.145   4.941  17.156  0.00  0.00    +0.000 HD
BRANCH   7  11
ATOM     11  O   UNL     1       3.319   3.714  19.137  0.00  0.00    +0.000 OA
BRANCH  11  13
ATOM     12  C   UNL     1       0.978   2.961  19.327  0.00  0.00    +0.000 C 
ATOM     13  C   UNL     1       2.146   3.691  20.003  0.00  0.00    +0.000 C 
ATOM     14  C   UNL     1       1.761   5.105  20.457  0.00  0.00    +0.000 C 
ATOM     15  C   UNL     1       2.539   2.886  21.255  0.00  0.00    +0.000 C 
ENDBRANCH  11  13
ENDBRANCH   7  11
ENDBRANCH   6   9
ENDBRANCH   5   6
ENDBRANCH   1   5
BRANCH   2  16
ATOM     16  O   UNL     1       8.480   8.002  18.537  0.00  0.00    +0.000 OA
BRANCH  16  17
ATOM     17  C   UNL     1       8.174   9.238  17.874  0.00  0.00    +0.000 C 
BRANCH  17  18
ATOM     18  C   UNL     1       8.883  10.425  18.480  0.00  0.00    +0.000 A 
ATOM     19  C   UNL     1       8.915  11.660  17.814  0.00  0.00    +0.000 A 
ATOM     20  C   UNL     1       9.502  12.777  18.415  0.00  0.00    +0.000 A 
ATOM     21  C   UNL     1      10.071  12.670  19.683  0.00  0.00    +0.000 A 
ATOM     22  C   UNL     1      10.060  11.445  20.347  0.00  0.00    +0.000 A 
ATOM     23  C   UNL     1       9.474  10.327  19.747  0.00  0.00    +0.000 A 
ENDBRANCH  17  18
ENDBRANCH  16  17
ENDBRANCH   2  16
TORSDOF 8
ENDMDL
MODEL 3
REMARK VINA RESULT:      -7.0      4.793      6.775
REMARK  Name = 
REMARK  11 active torsions:
REMARK  status: ('A' for Active; 'I' for Inactive)
REMARK    1  A    between atoms: C_1  and  C_2
REMARK    2  A    between atoms: C_2  and  C_3
REMARK    3  A    between atoms: C_2  and  C_4
REMARK    4  A    between atoms: C_2  and  O_5
REMARK    5  A    between atoms: O_5  and  C_6
REMARK    6  A    between atoms: N_8  and  C_9
REMARK    7  A    between atoms: C_9  and  C_10
REMARK    8  A    between atoms: C_10  and  N_11
REMARK    9  A    between atoms: C_12  and  O_14
REMARK   10  A    between atoms: O_14  and  C_15
REMARK   11  A    between atoms: C_15  and  C_16
REMARK                            x       y       z     vdW  Elec       q    Type
REMARK                         _______ _______ _______ _____ _____    ______ ____
ROOT
ATOM      1  N   UNL     1       2.705   3.569  20.020  0.00  0.00    +0.000 N 
ATOM      2  C   UNL     1       2.275   4.153  21.178  0.00  0.00    +0.000 C 
ATOM      3  O   UNL     1       2.125   3.554  22.231  0.00  0.00    +0.000 OA
ATOM      4  H   UNL     1       2.682   4.146  19.189  0.00  0.00    +0.000 HD
ENDROOT
BRANCH   1   5
ATOM      5  C   UNL     1       2.969   2.144  19.911  0.00  0.00    +0.000 C 
BRANCH   5   6
ATOM      6  C   UNL     1       3.136   1.666  18.460  0.00  0.00    +0.000 C 
BRANCH   6   9
ATOM      7  C   UNL     1       4.062   3.497  17.100  0.00  0.00    +0.000 C 
ATOM      8  O   UNL     1       2.996   4.087  17.047  0.00  0.00    +0.000 OA
ATOM      9  N   UNL     1       4.233   2.320  17.767  0.00  0.00    +0.000 N 
ATOM     10  H   UNL     1       5.164   1.924  17.780  0.00  0.00    +0.000 HD
BRANCH   7  11
ATOM     11  O   UNL     1       5.227   3.896  16.529  0.00  0.00    +0.000 OA
BRANCH  11  13
ATOM     12  C   UNL     1       5.854   4.986  18.650  0.00  0.00    +0.000 C 
ATOM     13  C   UNL     1       5.972   5.001  17.120  0.00  0.00    +0.000 C 
ATOM     14  C   UNL     1       5.545   6.346  16.519  0.00  0.00    +0.000 C 
ATOM     15  C   UNL     1       7.453   4.775  16.763  0.00  0.00    +0.000 C 
ENDBRANCH  11  13
ENDBRANCH   7  11
ENDBRANCH   6   9
ENDBRANCH   5   6
ENDBRANCH   1   5
BRANCH   2  16
ATOM     16  O   UNL     1       1.975   5.455  20.954  0.00  0.00    +0.000 OA
BRANCH  16  17
ATOM     17  C   UNL     1       2.701   6.076  19.882  0.00  0.00    +0.000 C 
BRANCH  17  18
ATOM     18  C   UNL     1       2.129   7.414  19.479  0.00  0.00    +0.000 A 
ATOM     19  C   UNL     1       1.412   8.195  20.399  0.00  0.00    +0.000 A 
ATOM     20  C   UNL     1       0.955   9.468  20.045  0.00  0.00    +0.000 A 
ATOM     21  C   UNL     1       1.201   9.971  18.769  0.00  0.00    +0.000 A 
ATOM     22  C   UNL     1       1.898   9.198  17.842  0.00  0.00    +0.000 A 
ATOM     23  C   UNL     1       2.356   7.924  18.194  0.00  0.00    +0.000 A 
ENDBRANCH  17  18
ENDBRANCH  16  17
ENDBRANCH   2  16
TORSDOF 8
ENDMDL
MODEL 4
REMARK VINA RESULT:      -7.0      3.577      7.020
REMARK  Name = 
REMARK  11 active torsions:
REMARK  status: ('A' for Active; 'I' for Inactive)
REMARK    1  A    between atoms: C_1  and  C_2
REMARK    2  A    between atoms: C_2  and  C_3
REMARK    3  A    between atoms: C_2  and  C_4
REMARK    4  A    between atoms: C_2  and  O_5
REMARK    5  A    between atoms: O_5  and  C_6
REMARK    6  A    between atoms: N_8  and  C_9
REMARK    7  A    between atoms: C_9  and  C_10
REMARK    8  A    between atoms: C_10  and  N_11
REMARK    9  A    between atoms: C_12  and  O_14
REMARK   10  A    between atoms: O_14  and  C_15
REMARK   11  A    between atoms: C_15  and  C_16
REMARK                            x       y       z     vdW  Elec       q    Type
REMARK                         _______ _______ _______ _____ _____    ______ ____
ROOT
ATOM      1  N   UNL     1       2.729   3.894  20.797  0.00  0.00    +0.000 N 
ATOM      2  C   UNL     1       1.485   4.325  20.434  0.00  0.00    +0.000 C 
ATOM      3  O   UNL     1       0.639   3.616  19.912  0.00  0.00    +0.000 OA
ATOM      4  H   UNL     1       3.377   4.602  21.117  0.00  0.00    +0.000 HD
ENDROOT
BRANCH   1   5
ATOM      5  C   UNL     1       3.198   2.544  20.533  0.00  0.00    +0.000 C 
BRANCH   5   6
ATOM      6  C   UNL     1       4.459   2.498  19.654  0.00  0.00    +0.000 C 
BRANCH   6   9
ATOM      7  C   UNL     1       5.008   4.411  18.205  0.00  0.00    +0.000 C 
ATOM      8  O   UNL     1       4.479   3.909  17.228  0.00  0.00    +0.000 OA
ATOM      9  N   UNL     1       5.044   3.809  19.428  0.00  0.00    +0.000 N 
ATOM     10  H   UNL     1       5.479   4.320  20.185  0.00  0.00    +0.000 HD
BRANCH   7  11
ATOM     11  O   UNL     1       5.629   5.617  18.248  0.00  0.00    +0.000 OA
BRANCH  11  13
ATOM     12  C   UNL     1       7.555   4.544  17.143  0.00  0.00    +0.000 C 
ATOM     13  C   UNL     1       7.072   5.685  18.048  0.00  0.00    +0.000 C 
ATOM     14  C   UNL     1       7.819   5.718  19.387  0.00  0.00    +0.000 C 
ATOM     15  C   UNL     1       7.354   7.012  17.319  0.00  0.00    +0.000 C 
ENDBRANCH  11  13
ENDBRANCH   7  11
ENDBRANCH   6   9
ENDBRANCH   5   6
ENDBRANCH   1   5
BRANCH   2  16
ATOM     16  O   UNL     1       1.371   5.655  20.670  0.00  0.00    +0.000 OA
BRANCH  16  17
ATOM     17  C   UNL     1       2.426   6.466  20.133  0.00  0.00    +0.000 C 
BRANCH  17  18
ATOM     18  C   UNL     1       1.945   7.809  19.639  0.00  0.00    +0.000 A 
ATOM     19  C   UNL     1       2.203   8.226  18.324  0.00  0.00    +0.000 A 
ATOM     20  C   UNL     1       1.686   9.434  17.846  0.00  0.00    +0.000 A 
ATOM     21  C   UNL     1       0.914  10.242  18.679  0.00  0.00    +0.000 A 
ATOM     22  C   UNL     1       0.664   9.847  19.991  0.00  0.00    +0.000 A 
ATOM     23  C   UNL     1       1.181   8.639  20.471  0.00  0.00    +0.000 A 
ENDBRANCH  17  18
ENDBRANCH  16  17
ENDBRANCH   2  16
TORSDOF 8
ENDMDL
MODEL 5
REMARK VINA RESULT:      -6.9      4.130      8.253
REMARK  Name = 
REMARK  11 active torsions:
REMARK  status: ('A' for Active; 'I' for Inactive)
REMARK    1  A    between atoms: C_1  and  C_2
REMARK    2  A    between atoms: C_2  and  C_3
REMARK    3  A    between atoms: C_2  and  C_4
REMARK    4  A    between atoms: C_2  and  O_5
REMARK    5  A    between atoms: O_5  and  C_6
REMARK    6  A    between atoms: N_8  and  C_9
REMARK    7  A    between atoms: C_9  and  C_10
REMARK    8  A    between atoms: C_10  and  N_11
REMARK    9  A    between atoms: C_12  and  O_14
REMARK   10  A    between atoms: O_14  and  C_15
REMARK   11  A    between atoms: C_15  and  C_16
REMARK                            x       y       z     vdW  Elec       q    Type
REMARK                         _______ _______ _______ _____ _____    ______ ____
ROOT
ATOM      1  N   UNL     1       5.662   5.898  17.932  0.00  0.00    +0.000 N 
ATOM      2  C   UNL     1       6.254   4.819  18.525  0.00  0.00    +0.000 C 
ATOM      3  O   UNL     1       7.327   4.350  18.177  0.00  0.00    +0.000 OA
ATOM      4  H   UNL     1       4.724   6.122  18.238  0.00  0.00    +0.000 HD
ENDROOT
BRANCH   1   5
ATOM      5  C   UNL     1       6.227   6.562  16.770  0.00  0.00    +0.000 C 
BRANCH   5   6
ATOM      6  C   UNL     1       5.327   6.482  15.526  0.00  0.00    +0.000 C 
BRANCH   6   9
ATOM      7  C   UNL     1       6.590   4.731  14.343  0.00  0.00    +0.000 C 
ATOM      8  O   UNL     1       7.647   5.332  14.442  0.00  0.00    +0.000 OA
ATOM      9  N   UNL     1       5.412   5.203  14.842  0.00  0.00    +0.000 N 
ATOM     10  H   UNL     1       4.594   4.617  14.737  0.00  0.00    +0.000 HD
BRANCH   7  11
ATOM     11  O   UNL     1       6.406   3.528  13.742  0.00  0.00    +0.000 OA
BRANCH  11  13
ATOM     12  C   UNL     1       7.150   4.474  11.590  0.00  0.00    +0.000 C 
ATOM     13  C   UNL     1       6.228   3.471  12.296  0.00  0.00    +0.000 C 
ATOM     14  C   UNL     1       4.757   3.663  11.907  0.00  0.00    +0.000 C 
ATOM     15  C   UNL     1       6.651   2.058  11.856  0.00  0.00    +0.000 C 
ENDBRANCH  11  13
ENDBRANCH   7  11
ENDBRANCH   6   9
ENDBRANCH   5   6
ENDBRANCH   1   5
BRANCH   2  16
ATOM     16  O   UNL     1       5.443   4.319  19.488  0.00  0.00    +0.000 OA
BRANCH  16  17
ATOM     17  C   UNL     1       4.197   5.010  19.660  0.00  0.00    +0.000 C 
BRANCH  17  18
ATOM     18  C   UNL     1       2.995   4.134  19.401  0.00  0.00    +0.000 A 
ATOM     19  C   UNL     1       2.978   3.240  18.319  0.00  0.00    +0.000 A 
ATOM     20  C   UNL     1       1.897   2.374  18.130  0.00  0.00    +0.000 A 
ATOM     21  C   UNL     1       0.820   2.397  19.014  0.00  0.00    +0.000 A 
ATOM     22  C   UNL     1       0.818   3.291  20.082  0.00  0.00    +0.000 A 
ATOM     23  C   UNL     1       1.898   4.159  20.272  0.00  0.00    +0.000 A 
ENDBRANCH  17  18
ENDBRANCH  16  17
ENDBRANCH   2  16
TORSDOF 8
ENDMDL
MODEL 6
REMARK VINA RESULT:      -6.9      4.154      7.210
REMARK  Name = 
REMARK  11 active torsions:
REMARK  status: ('A' for Active; 'I' for Inactive)
REMARK    1  A    between atoms: C_1  and  C_2
REMARK    2  A    between atoms: C_2  and  C_3
REMARK    3  A    between atoms: C_2  and  C_4
REMARK    4  A    between atoms: C_2  and  O_5
REMARK    5  A    between atoms: O_5  and  C_6
REMARK    6  A    between atoms: N_8  and  C_9
REMARK    7  A    between atoms: C_9  and  C_10
REMARK    8  A    between atoms: C_10  and  N_11
REMARK    9  A    between atoms: C_12  and  O_14
REMARK   10  A    between atoms: O_14  and  C_15
REMARK   11  A    between atoms: C_15  and  C_16
REMARK                            x       y       z     vdW  Elec       q    Type
REMARK                         _______ _______ _______ _____ _____    ______ ____
ROOT
ATOM      1  N   UNL     1       7.218   4.288  17.138  0.00  0.00    +0.000 N 
ATOM      2  C   UNL     1       7.198   4.896  15.915  0.00  0.00    +0.000 C 
ATOM      3  O   UNL     1       7.597   6.031  15.708  0.00  0.00    +0.000 OA
ATOM      4  H   UNL     1       6.757   3.389  17.203  0.00  0.00    +0.000 HD
ENDROOT
BRANCH   1   5
ATOM      5  C   UNL     1       7.663   4.967  18.344  0.00  0.00    +0.000 C 
BRANCH   5   6
ATOM      6  C   UNL     1       6.510   5.366  19.278  0.00  0.00    +0.000 C 
BRANCH   6   9
ATOM      7  C   UNL     1       4.337   4.482  18.531  0.00  0.00    +0.000 C 
ATOM      8  O   UNL     1       4.168   5.386  17.731  0.00  0.00    +0.000 OA
ATOM      9  N   UNL     1       5.443   4.380  19.323  0.00  0.00    +0.000 N 
ATOM     10  H   UNL     1       5.507   3.576  19.933  0.00  0.00    +0.000 HD
BRANCH   7  11
ATOM     11  O   UNL     1       3.486   3.450  18.766  0.00  0.00    +0.000 OA
BRANCH  11  13
ATOM     12  C   UNL     1       1.401   4.287  17.750  0.00  0.00    +0.000 C 
ATOM     13  C   UNL     1       2.076   3.729  19.009  0.00  0.00    +0.000 C 
ATOM     14  C   UNL     1       1.891   4.649  20.223  0.00  0.00    +0.000 C 
ATOM     15  C   UNL     1       1.411   2.379  19.337  0.00  0.00    +0.000 C 
ENDBRANCH  11  13
ENDBRANCH   7  11
ENDBRANCH   6   9
ENDBRANCH   5   6
ENDBRANCH   1   5
BRANCH   2  16
ATOM     16  O   UNL     1       6.606   4.083  15.006  0.00  0.00    +0.000 OA
BRANCH  16  17
ATOM     17  C   UNL     1       6.878   4.399  13.633  0.00  0.00    +0.000 C 
BRANCH  17  18
ATOM     18  C   UNL     1       6.107   3.535  12.664  0.00  0.00    +0.000 A 
ATOM     19  C   UNL     1       4.788   3.856  12.307  0.00  0.00    +0.000 A 
ATOM     20  C   UNL     1       4.107   3.100  11.349  0.00  0.00    +0.000 A 
ATOM     21  C   UNL     1       4.732   2.011  10.743  0.00  0.00    +0.000 A 
ATOM     22  C   UNL     1       6.035   1.673  11.101  0.00  0.00    +0.000 A 
ATOM     23  C   UNL     1       6.718   2.428  12.060  0.00  0.00    +0.000 A 
ENDBRANCH  17  18
ENDBRANCH  16  17
ENDBRANCH   2  16
TORSDOF 8
ENDMDL
MODEL 7
REMARK VINA RESULT:      -6.9      1.498      2.061
REMARK  Name = 
REMARK  11 active torsions:
REMARK  status: ('A' for Active; 'I' for Inactive)
REMARK    1  A    between atoms: C_1  and  C_2
REMARK    2  A    between atoms: C_2  and  C_3
REMARK    3  A    between atoms: C_2  and  C_4
REMARK    4  A    between atoms: C_2  and  O_5
REMARK    5  A    between atoms: O_5  and  C_6
REMARK    6  A    between atoms: N_8  and  C_9
REMARK    7  A    between atoms: C_9  and  C_10
REMARK    8  A    between atoms: C_10  and  N_11
REMARK    9  A    between atoms: C_12  and  O_14
REMARK   10  A    between atoms: O_14  and  C_15
REMARK   11  A    between atoms: C_15  and  C_16
REMARK                            x       y       z     vdW  Elec       q    Type
REMARK                         _______ _______ _______ _____ _____    ______ ____
ROOT
ATOM      1  N   UNL     1       6.943   7.545  17.247  0.00  0.00    +0.000 N 
ATOM      2  C   UNL     1       7.823   7.093  18.188  0.00  0.00    +0.000 C 
ATOM      3  O   UNL     1       7.861   5.941  18.592  0.00  0.00    +0.000 OA
ATOM      4  H   UNL     1       6.937   8.543  17.078  0.00  0.00    +0.000 HD
ENDROOT
BRANCH   1   5
ATOM      5  C   UNL     1       5.906   6.703  16.674  0.00  0.00    +0.000 C 
BRANCH   5   6
ATOM      6  C   UNL     1       4.544   6.857  17.369  0.00  0.00    +0.000 C 
BRANCH   6   9
ATOM      7  C   UNL     1       3.238   5.802  19.170  0.00  0.00    +0.000 C 
ATOM      8  O   UNL     1       2.600   6.817  19.394  0.00  0.00    +0.000 OA
ATOM      9  N   UNL     1       4.198   5.720  18.204  0.00  0.00    +0.000 N 
ATOM     10  H   UNL     1       4.650   4.825  18.074  0.00  0.00    +0.000 HD
BRANCH   7  11
ATOM     11  O   UNL     1       3.110   4.616  19.818  0.00  0.00    +0.000 OA
BRANCH  11  13
ATOM     12  C   UNL     1       0.908   3.617  20.301  0.00  0.00    +0.000 C 
ATOM     13  C   UNL     1       2.116   3.655  19.356  0.00  0.00    +0.000 C 
ATOM     14  C   UNL     1       2.736   2.266  19.153  0.00  0.00    +0.000 C 
ATOM     15  C   UNL     1       1.623   4.154  17.986  0.00  0.00    +0.000 C 
ENDBRANCH  11  13
ENDBRANCH   7  11
ENDBRANCH   6   9
ENDBRANCH   5   6
ENDBRANCH   1   5
BRANCH   2  16
ATOM     16  O   UNL     1       8.578   8.121  18.646  0.00  0.00    +0.000 OA
BRANCH  16  17
ATOM     17  C   UNL     1       8.356   9.381  17.996  0.00  0.00    +0.000 C 
BRANCH  17  18
ATOM     18  C   UNL     1       9.135  10.513  18.622  0.00  0.00    +0.000 A 
ATOM     19  C   UNL     1       9.496  11.640  17.867  0.00  0.00    +0.000 A 
ATOM     20  C   UNL     1      10.145  12.721  18.470  0.00  0.00    +0.000 A 
ATOM     21  C   UNL     1      10.450  12.685  19.830  0.00  0.00    +0.000 A 
ATOM     22  C   UNL     1      10.111  11.564  20.586  0.00  0.00    +0.000 A 
ATOM     23  C   UNL     1       9.461  10.482  19.984  0.00  0.00    +0.000 A 
ENDBRANCH  17  18
ENDBRANCH  16  17
ENDBRANCH   2  16
TORSDOF 8
ENDMDL
MODEL 8
REMARK VINA RESULT:      -6.8      4.111      7.190
REMARK  Name = 
REMARK  11 active torsions:
REMARK  status: ('A' for Active; 'I' for Inactive)
REMARK    1  A    between atoms: C_1  and  C_2
REMARK    2  A    between atoms: C_2  and  C_3
REMARK    3  A    between atoms: C_2  and  C_4
REMARK    4  A    between atoms: C_2  and  O_5
REMARK    5  A    between atoms: O_5  and  C_6
REMARK    6  A    between atoms: N_8  and  C_9
REMARK    7  A    between atoms: C_9  and  C_10
REMARK    8  A    between atoms: C_10  and  N_11
REMARK    9  A    between atoms: C_12  and  O_14
REMARK   10  A    between atoms: O_14  and  C_15
REMARK   11  A    between atoms: C_15  and  C_16
REMARK                            x       y       z     vdW  Elec       q    Type
REMARK                         _______ _______ _______ _____ _____    ______ ____
ROOT
ATOM      1  N   UNL     1       7.523   4.413  17.130  0.00  0.00    +0.000 N 
ATOM      2  C   UNL     1       6.976   5.131  16.105  0.00  0.00    +0.000 C 
ATOM      3  O   UNL     1       6.872   6.348  16.101  0.00  0.00    +0.000 OA
ATOM      4  H   UNL     1       7.450   3.406  17.063  0.00  0.00    +0.000 HD
ENDROOT
BRANCH   1   5
ATOM      5  C   UNL     1       7.982   5.030  18.363  0.00  0.00    +0.000 C 
BRANCH   5   6
ATOM      6  C   UNL     1       6.836   5.544  19.250  0.00  0.00    +0.000 C 
BRANCH   6   9
ATOM      7  C   UNL     1       4.458   4.910  19.193  0.00  0.00    +0.000 C 
ATOM      8  O   UNL     1       4.101   6.021  18.840  0.00  0.00    +0.000 OA
ATOM      9  N   UNL     1       5.763   4.578  19.411  0.00  0.00    +0.000 N 
ATOM     10  H   UNL     1       5.962   3.622  19.672  0.00  0.00    +0.000 HD
BRANCH   7  11
ATOM     11  O   UNL     1       3.650   3.844  19.422  0.00  0.00    +0.000 OA
BRANCH  11  13
ATOM     12  C   UNL     1       3.258   1.615  18.441  0.00  0.00    +0.000 C 
ATOM     13  C   UNL     1       3.072   3.130  18.289  0.00  0.00    +0.000 C 
ATOM     14  C   UNL     1       3.630   3.652  16.959  0.00  0.00    +0.000 C 
ATOM     15  C   UNL     1       1.560   3.421  18.311  0.00  0.00    +0.000 C 
ENDBRANCH  11  13
ENDBRANCH   7  11
ENDBRANCH   6   9
ENDBRANCH   5   6
ENDBRANCH   1   5
BRANCH   2  16
ATOM     16  O   UNL     1       6.508   4.291  15.150  0.00  0.00    +0.000 OA
BRANCH  16  17
ATOM     17  C   UNL     1       6.986   4.547  13.821  0.00  0.00    +0.000 C 
BRANCH  17  18
ATOM     18  C   UNL     1       6.272   3.732  12.770  0.00  0.00    +0.000 A 
ATOM     19  C   UNL     1       6.933   2.694  12.094  0.00  0.00    +0.000 A 
ATOM     20  C   UNL     1       6.245   1.890  11.181  0.00  0.00    +0.000 A 
ATOM     21  C   UNL     1       4.894   2.119  10.926  0.00  0.00    +0.000 A 
ATOM     22  C   UNL     1       4.232   3.156  11.578  0.00  0.00    +0.000 A 
ATOM     23  C   UNL     1       4.918   3.962  12.492  0.00  0.00    +0.000 A 
ENDBRANCH  17  18
ENDBRANCH  16  17
ENDBRANCH   2  16
TORSDOF 8
ENDMDL
MODEL 9
REMARK VINA RESULT:      -6.8      1.760      9.322
REMARK  Name = 
REMARK  11 active torsions:
REMARK  status: ('A' for Active; 'I' for Inactive)
REMARK    1  A    between atoms: C_1  and  C_2
REMARK    2  A    between atoms: C_2  and  C_3
REMARK    3  A    between atoms: C_2  and  C_4
REMARK    4  A    between atoms: C_2  and  O_5
REMARK    5  A    between atoms: O_5  and  C_6
REMARK    6  A    between atoms: N_8  and  C_9
REMARK    7  A    between atoms: C_9  and  C_10
REMARK    8  A    between atoms: C_10  and  N_11
REMARK    9  A    between atoms: C_12  and  O_14
REMARK   10  A    between atoms: O_14  and  C_15
REMARK   11  A    between atoms: C_15  and  C_16
REMARK                            x       y       z     vdW  Elec       q    Type
REMARK                         _______ _______ _______ _____ _____    ______ ____
ROOT
ATOM      1  N   UNL     1       6.655   6.151  17.754  0.00  0.00    +0.000 N 
ATOM      2  C   UNL     1       5.772   5.426  18.501  0.00  0.00    +0.000 C 
ATOM      3  O   UNL     1       5.850   5.287  19.711  0.00  0.00    +0.000 OA
ATOM      4  H   UNL     1       6.547   6.099  16.749  0.00  0.00    +0.000 HD
ENDROOT
BRANCH   1   5
ATOM      5  C   UNL     1       7.831   6.785  18.327  0.00  0.00    +0.000 C 
BRANCH   5   6
ATOM      6  C   UNL     1       8.015   8.244  17.878  0.00  0.00    +0.000 C 
BRANCH   6   9
ATOM      7  C   UNL     1       8.996  10.354  18.684  0.00  0.00    +0.000 C 
ATOM      8  O   UNL     1       8.303  11.035  17.949  0.00  0.00    +0.000 OA
ATOM      9  N   UNL     1       8.926   8.992  18.728  0.00  0.00    +0.000 N 
ATOM     10  H   UNL     1       9.520   8.517  19.395  0.00  0.00    +0.000 HD
BRANCH   7  11
ATOM     11  O   UNL     1       9.926  10.812  19.561  0.00  0.00    +0.000 OA
BRANCH  11  13
ATOM     12  C   UNL     1      11.045  11.822  17.609  0.00  0.00    +0.000 C 
ATOM     13  C   UNL     1      10.865  11.842  19.132  0.00  0.00    +0.000 C 
ATOM     14  C   UNL     1      12.201  11.721  19.875  0.00  0.00    +0.000 C 
ATOM     15  C   UNL     1      10.236  13.195  19.511  0.00  0.00    +0.000 C 
ENDBRANCH  11  13
ENDBRANCH   7  11
ENDBRANCH   6   9
ENDBRANCH   5   6
ENDBRANCH   1   5
BRANCH   2  16
ATOM     16  O   UNL     1       4.859   4.836  17.691  0.00  0.00    +0.000 OA
BRANCH  16  17
ATOM     17  C   UNL     1       3.561   5.449  17.681  0.00  0.00    +0.000 C 
BRANCH  17  18
ATOM     18  C   UNL     1       2.532   4.667  18.460  0.00  0.00    +0.000 A 
ATOM     19  C   UNL     1       1.931   3.524  17.911  0.00  0.00    +0.000 A 
ATOM     20  C   UNL     1       1.040   2.756  18.667  0.00  0.00    +0.000 A 
ATOM     21  C   UNL     1       0.733   3.127  19.975  0.00  0.00    +0.000 A 
ATOM     22  C   UNL     1       1.311   4.269  20.525  0.00  0.00    +0.000 A 
ATOM     23  C   UNL     1       2.202   5.038  19.771  0.00  0.00    +0.000 A 
ENDBRANCH  17  18
ENDBRANCH  16  17
ENDBRANCH   2  16
TORSDOF 8
ENDMDL
