MODEL 1
REMARK VINA RESULT:      -7.0      0.000      0.000
REMARK  Name = 
REMARK  8 active torsions:
REMARK  status: ('A' for Active; 'I' for Inactive)
REMARK    1  A    between atoms: C_1  and  C_2
REMARK    2  A    between atoms: C_2  and  N_3
REMARK    3  A    between atoms: C_4  and  C_6
REMARK    4  A    between atoms: C_6  and  N_7
REMARK    5  A    between atoms: N_7  and  C_8
REMARK    6  A    between atoms: N_7  and  C_9
REMARK    7  A    between atoms: C_9  and  C_10
REMARK    8  A    between atoms: C_10  and  C_13
REMARK                            x       y       z     vdW  Elec       q    Type
REMARK                         _______ _______ _______ _____ _____    ______ ____
ROOT
ATOM      1  C   UNL     1       3.961   4.832  17.428  0.00  0.00    +0.000 C 
ENDROOT
BRANCH   1   2
ATOM      2  C   UNL     1       3.332   3.400  17.510  0.00  0.00    +0.000 C 
ATOM      3  F   UNL     1       2.448   3.256  16.478  0.00  0.00    +0.000 F 
ATOM      4  F   UNL     1       4.303   2.466  17.290  0.00  0.00    +0.000 F 
BRANCH   2   5
ATOM      5  C   UNL     1       2.675   3.164  18.860  0.00  0.00    +0.000 A 
ATOM      6  C   UNL     1       3.445   2.921  20.009  0.00  0.00    +0.000 A 
ATOM      7  C   UNL     1       2.825   2.731  21.246  0.00  0.00    +0.000 A 
ATOM      8  C   UNL     1       1.438   2.782  21.337  0.00  0.00    +0.000 A 
ATOM      9  F   UNL     1       0.847   2.608  22.526  0.00  0.00    +0.000 F 
ATOM     10  C   UNL     1       0.657   3.018  20.213  0.00  0.00    +0.000 A 
ATOM     11  C   UNL     1       1.273   3.208  18.977  0.00  0.00    +0.000 A 
ENDBRANCH   2   5
ENDBRANCH   1   2
BRANCH   1  12
ATOM     12  N   UNL     1       5.455   4.956  17.340  0.00  0.00    +0.000 NA
ATOM     13  C   UNL     1       5.996   5.454  18.615  0.00  0.00    +0.000 C 
BRANCH  12  14
ATOM     14  C   UNL     1       5.789   5.896  16.230  0.00  0.00    +0.000 C 
BRANCH  14  16
ATOM     15  N   UNL     1       5.733   4.454  14.248  0.00  0.00    +0.000 N 
ATOM     16  C   UNL     1       6.535   5.211  15.076  0.00  0.00    +0.000 C 
ATOM     17  O   UNL     1       7.741   5.370  14.895  0.00  0.00    +0.000 OA
ATOM     18  H   UNL     1       4.789   4.289  14.585  0.00  0.00    +0.000 HD
BRANCH  15  20
ATOM     19  C   UNL     1       5.231   3.336  12.115  0.00  0.00    +0.000 C 
ATOM     20  C   UNL     1       6.271   3.640  13.181  0.00  0.00    +0.000 C 
ENDBRANCH  15  20
ENDBRANCH  14  16
ENDBRANCH  12  14
ENDBRANCH   1  12
TORSDOF 6
ENDMDL
MODEL 2
REMARK VINA RESULT:      -6.6      1.055      1.167
REMARK  Name = 
REMARK  8 active torsions:
REMARK  status: ('A' for Active; 'I' for Inactive)
REMARK    1  A    between atoms: C_1  and  C_2
REMARK    2  A    between atoms: C_2  and  N_3
REMARK    3  A    between atoms: C_4  and  C_6
REMARK    4  A    between atoms: C_6  and  N_7
REMARK    5  A    between atoms: N_7  and  C_8
REMARK    6  A    between atoms: N_7  and  C_9
REMARK    7  A    between atoms: C_9  and  C_10
REMARK    8  A    between atoms: C_10  and  C_13
REMARK                            x       y       z     vdW  Elec       q    Type
REMARK                         _______ _______ _______ _____ _____    ______ ____
ROOT
ATOM      1  C   UNL     1       3.594   5.581  17.719  0.00  0.00    +0.000 C 
ENDROOT
BRANCH   1   2
ATOM      2  C   UNL     1       2.356   4.626  17.638  0.00  0.00    +0.000 C 
ATOM      3  F   UNL     1       1.290   5.338  17.167  0.00  0.00    +0.000 F 
ATOM      4  F   UNL     1       2.591   3.659  16.703  0.00  0.00    +0.000 F 
BRANCH   2   5
ATOM      5  C   UNL     1       2.064   3.988  18.987  0.00  0.00    +0.000 A 
ATOM      6  C   UNL     1       2.407   4.636  20.185  0.00  0.00    +0.000 A 
ATOM      7  C   UNL     1       2.109   4.046  21.415  0.00  0.00    +0.000 A 
ATOM      8  C   UNL     1       1.469   2.811  21.451  0.00  0.00    +0.000 A 
ATOM      9  F   UNL     1       1.178   2.252  22.633  0.00  0.00    +0.000 F 
ATOM     10  C   UNL     1       1.124   2.152  20.278  0.00  0.00    +0.000 A 
ATOM     11  C   UNL     1       1.421   2.738  19.048  0.00  0.00    +0.000 A 
ENDBRANCH   2   5
ENDBRANCH   1   2
BRANCH   1  12
ATOM     12  N   UNL     1       4.967   4.996  17.550  0.00  0.00    +0.000 NA
ATOM     13  C   UNL     1       5.673   4.983  18.841  0.00  0.00    +0.000 C 
BRANCH  12  14
ATOM     14  C   UNL     1       5.715   5.819  16.555  0.00  0.00    +0.000 C 
BRANCH  14  16
ATOM     15  N   UNL     1       5.911   4.694  14.385  0.00  0.00    +0.000 N 
ATOM     16  C   UNL     1       6.541   4.966  15.581  0.00  0.00    +0.000 C 
ATOM     17  O   UNL     1       7.685   4.602  15.844  0.00  0.00    +0.000 OA
ATOM     18  H   UNL     1       4.923   4.928  14.348  0.00  0.00    +0.000 HD
BRANCH  15  20
ATOM     19  C   UNL     1       5.460   3.393  12.346  0.00  0.00    +0.000 C 
ATOM     20  C   UNL     1       6.480   3.809  13.393  0.00  0.00    +0.000 C 
ENDBRANCH  15  20
ENDBRANCH  14  16
ENDBRANCH  12  14
ENDBRANCH   1  12
TORSDOF 6
ENDMDL
MODEL 3
REMARK VINA RESULT:      -6.6      1.668      2.115
REMARK  Name = 
REMARK  8 active torsions:
REMARK  status: ('A' for Active; 'I' for Inactive)
REMARK    1  A    between atoms: C_1  and  C_2
REMARK    2  A    between atoms: C_2  and  N_3
REMARK    3  A    between atoms: C_4  and  C_6
REMARK    4  A    between atoms: C_6  and  N_7
REMARK    5  A    between atoms: N_7  and  C_8
REMARK    6  A    between atoms: N_7  and  C_9
REMARK    7  A    between atoms: C_9  and  C_10
REMARK    8  A    between atoms: C_10  and  C_13
REMARK                            x       y       z     vdW  Elec       q    Type
REMARK                         _______ _______ _______ _____ _____    ______ ____
ROOT
ATOM      1  C   UNL     1       3.912   6.061  18.099  0.00  0.00    +0.000 C 
ENDROOT
BRANCH   1   2
ATOM      2  C   UNL     1       2.378   6.004  18.411  0.00  0.00    +0.000 C 
ATOM      3  F   UNL     1       1.981   7.233  18.858  0.00  0.00    +0.000 F 
ATOM      4  F   UNL     1       1.688   5.798  17.251  0.00  0.00    +0.000 F 
BRANCH   2   5
ATOM      5  C   UNL     1       2.060   4.904  19.412  0.00  0.00    +0.000 A 
ATOM      6  C   UNL     1       1.300   3.783  19.040  0.00  0.00    +0.000 A 
ATOM      7  C   UNL     1       1.039   2.771  19.966  0.00  0.00    +0.000 A 
ATOM      8  C   UNL     1       1.535   2.877  21.262  0.00  0.00    +0.000 A 
ATOM      9  F   UNL     1       1.289   1.900  22.145  0.00  0.00    +0.000 F 
ATOM     10  C   UNL     1       2.286   3.979  21.651  0.00  0.00    +0.000 A 
ATOM     11  C   UNL     1       2.548   4.991  20.729  0.00  0.00    +0.000 A 
ENDBRANCH   2   5
ENDBRANCH   1   2
BRANCH   1  12
ATOM     12  N   UNL     1       4.444   5.242  16.959  0.00  0.00    +0.000 NA
ATOM     13  C   UNL     1       5.228   4.108  17.475  0.00  0.00    +0.000 C 
BRANCH  12  14
ATOM     14  C   UNL     1       5.297   6.117  16.102  0.00  0.00    +0.000 C 
BRANCH  14  16
ATOM     15  N   UNL     1       5.493   4.532  14.242  0.00  0.00    +0.000 N 
ATOM     16  C   UNL     1       6.186   5.319  15.137  0.00  0.00    +0.000 C 
ATOM     17  O   UNL     1       7.411   5.419  15.147  0.00  0.00    +0.000 OA
ATOM     18  H   UNL     1       4.499   4.428  14.428  0.00  0.00    +0.000 HD
BRANCH  15  20
ATOM     19  C   UNL     1       5.317   3.329  12.103  0.00  0.00    +0.000 C 
ATOM     20  C   UNL     1       6.156   3.621  13.337  0.00  0.00    +0.000 C 
ENDBRANCH  15  20
ENDBRANCH  14  16
ENDBRANCH  12  14
ENDBRANCH   1  12
TORSDOF 6
ENDMDL
MODEL 4
REMARK VINA RESULT:      -6.5      1.445      1.870
REMARK  Name = 
REMARK  8 active torsions:
REMARK  status: ('A' for Active; 'I' for Inactive)
REMARK    1  A    between atoms: C_1  and  C_2
REMARK    2  A    between atoms: C_2  and  N_3
REMARK    3  A    between atoms: C_4  and  C_6
REMARK    4  A    between atoms: C_6  and  N_7
REMARK    5  A    between atoms: N_7  and  C_8
REMARK    6  A    between atoms: N_7  and  C_9
REMARK    7  A    between atoms: C_9  and  C_10
REMARK    8  A    between atoms: C_10  and  C_13
REMARK                            x       y       z     vdW  Elec       q    Type
REMARK                         _______ _______ _______ _____ _____    ______ ____
ROOT
ATOM      1  C   UNL     1       4.269   6.055  18.327  0.00  0.00    +0.000 C 
ENDROOT
BRANCH   1   2
ATOM      2  C   UNL     1       2.909   5.385  17.933  0.00  0.00    +0.000 C 
ATOM      3  F   UNL     1       2.046   6.363  17.528  0.00  0.00    +0.000 F 
ATOM      4  F   UNL     1       3.097   4.589  16.840  0.00  0.00    +0.000 F 
BRANCH   2   5
ATOM      5  C   UNL     1       2.344   4.568  19.084  0.00  0.00    +0.000 A 
ATOM      6  C   UNL     1       1.429   3.528  18.855  0.00  0.00    +0.000 A 
ATOM      7  C   UNL     1       0.940   2.772  19.923  0.00  0.00    +0.000 A 
ATOM      8  C   UNL     1       1.362   3.054  21.218  0.00  0.00    +0.000 A 
ATOM      9  F   UNL     1       0.896   2.322  22.238  0.00  0.00    +0.000 F 
ATOM     10  C   UNL     1       2.263   4.081  21.467  0.00  0.00    +0.000 A 
ATOM     11  C   UNL     1       2.754   4.838  20.404  0.00  0.00    +0.000 A 
ENDBRANCH   2   5
ENDBRANCH   1   2
BRANCH   1  12
ATOM     12  N   UNL     1       5.538   5.279  18.125  0.00  0.00    +0.000 NA
ATOM     13  C   UNL     1       6.294   5.209  19.386  0.00  0.00    +0.000 C 
BRANCH  12  14
ATOM     14  C   UNL     1       6.347   5.957  17.070  0.00  0.00    +0.000 C 
BRANCH  14  16
ATOM     15  N   UNL     1       6.031   4.370  15.227  0.00  0.00    +0.000 N 
ATOM     16  C   UNL     1       5.834   5.667  15.652  0.00  0.00    +0.000 C 
ATOM     17  O   UNL     1       5.258   6.522  14.980  0.00  0.00    +0.000 OA
ATOM     18  H   UNL     1       6.640   3.806  15.814  0.00  0.00    +0.000 HD
BRANCH  15  20
ATOM     19  C   UNL     1       6.854   4.245  12.913  0.00  0.00    +0.000 C 
ATOM     20  C   UNL     1       5.723   3.940  13.882  0.00  0.00    +0.000 C 
ENDBRANCH  15  20
ENDBRANCH  14  16
ENDBRANCH  12  14
ENDBRANCH   1  12
TORSDOF 6
ENDMDL
MODEL 5
REMARK VINA RESULT:      -6.5      3.098      4.554
REMARK  Name = 
REMARK  8 active torsions:
REMARK  status: ('A' for Active; 'I' for Inactive)
REMARK    1  A    between atoms: C_1  and  C_2
REMARK    2  A    between atoms: C_2  and  N_3
REMARK    3  A    between atoms: C_4  and  C_6
REMARK    4  A    between atoms: C_6  and  N_7
REMARK    5  A    between atoms: N_7  and  C_8
REMARK    6  A    between atoms: N_7  and  C_9
REMARK    7  A    between atoms: C_9  and  C_10
REMARK    8  A    between atoms: C_10  and  C_13
REMARK                            x       y       z     vdW  Elec       q    Type
REMARK                         _______ _______ _______ _____ _____    ______ ____
ROOT
ATOM      1  C   UNL     1       5.728   4.831  18.574  0.00  0.00    +0.000 C 
ENDROOT
BRANCH   1   2
ATOM      2  C   UNL     1       4.314   5.498  18.665  0.00  0.00    +0.000 C 
ATOM      3  F   UNL     1       4.262   6.250  19.804  0.00  0.00    +0.000 F 
ATOM      4  F   UNL     1       4.164   6.383  17.637  0.00  0.00    +0.000 F 
BRANCH   2   5
ATOM      5  C   UNL     1       3.210   4.453  18.621  0.00  0.00    +0.000 A 
ATOM      6  C   UNL     1       3.301   3.336  17.774  0.00  0.00    +0.000 A 
ATOM      7  C   UNL     1       2.289   2.375  17.765  0.00  0.00    +0.000 A 
ATOM      8  C   UNL     1       1.186   2.526  18.600  0.00  0.00    +0.000 A 
ATOM      9  F   UNL     1       0.221   1.597  18.595  0.00  0.00    +0.000 F 
ATOM     10  C   UNL     1       1.075   3.624  19.444  0.00  0.00    +0.000 A 
ATOM     11  C   UNL     1       2.084   4.586  19.454  0.00  0.00    +0.000 A 
ENDBRANCH   2   5
ENDBRANCH   1   2
BRANCH   1  12
ATOM     12  N   UNL     1       6.768   5.468  17.697  0.00  0.00    +0.000 NA
ATOM     13  C   UNL     1       7.522   4.432  16.974  0.00  0.00    +0.000 C 
BRANCH  12  14
ATOM     14  C   UNL     1       7.684   6.275  18.555  0.00  0.00    +0.000 C 
BRANCH  14  16
ATOM     15  N   UNL     1       8.671   8.504  18.829  0.00  0.00    +0.000 N 
ATOM     16  C   UNL     1       7.899   7.698  18.018  0.00  0.00    +0.000 C 
ATOM     17  O   UNL     1       7.451   8.058  16.931  0.00  0.00    +0.000 OA
ATOM     18  H   UNL     1       8.860   8.137  19.758  0.00  0.00    +0.000 HD
BRANCH  15  20
ATOM     19  C   UNL     1       9.533  10.628  19.719  0.00  0.00    +0.000 C 
ATOM     20  C   UNL     1       8.884   9.906  18.550  0.00  0.00    +0.000 C 
ENDBRANCH  15  20
ENDBRANCH  14  16
ENDBRANCH  12  14
ENDBRANCH   1  12
TORSDOF 6
ENDMDL
MODEL 6
REMARK VINA RESULT:      -6.5      1.054      1.158
REMARK  Name = 
REMARK  8 active torsions:
REMARK  status: ('A' for Active; 'I' for Inactive)
REMARK    1  A    between atoms: C_1  and  C_2
REMARK    2  A    between atoms: C_2  and  N_3
REMARK    3  A    between atoms: C_4  and  C_6
REMARK    4  A    between atoms: C_6  and  N_7
REMARK    5  A    between atoms: N_7  and  C_8
REMARK    6  A    between atoms: N_7  and  C_9
REMARK    7  A    between atoms: C_9  and  C_10
REMARK    8  A    between atoms: C_10  and  C_13
REMARK                            x       y       z     vdW  Elec       q    Type
REMARK                         _______ _______ _______ _____ _____    ______ ____
ROOT
ATOM      1  C   UNL     1       5.277   3.979  17.904  0.00  0.00    +0.000 C 
ENDROOT
BRANCH   1   2
ATOM      2  C   UNL     1       3.812   4.532  17.919  0.00  0.00    +0.000 C 
ATOM      3  F   UNL     1       3.865   5.897  17.953  0.00  0.00    +0.000 F 
ATOM      4  F   UNL     1       3.199   4.221  16.739  0.00  0.00    +0.000 F 
BRANCH   2   5
ATOM      5  C   UNL     1       3.020   3.963  19.085  0.00  0.00    +0.000 A 
ATOM      6  C   UNL     1       3.626   3.119  20.030  0.00  0.00    +0.000 A 
ATOM      7  C   UNL     1       2.889   2.625  21.109  0.00  0.00    +0.000 A 
ATOM      8  C   UNL     1       1.549   2.972  21.245  0.00  0.00    +0.000 A 
ATOM      9  F   UNL     1       0.848   2.503  22.285  0.00  0.00    +0.000 F 
ATOM     10  C   UNL     1       0.929   3.803  20.320  0.00  0.00    +0.000 A 
ATOM     11  C   UNL     1       1.662   4.297  19.242  0.00  0.00    +0.000 A 
ENDBRANCH   2   5
ENDBRANCH   1   2
BRANCH   1  12
ATOM     12  N   UNL     1       6.374   4.862  17.384  0.00  0.00    +0.000 NA
ATOM     13  C   UNL     1       6.762   5.843  18.410  0.00  0.00    +0.000 C 
BRANCH  12  14
ATOM     14  C   UNL     1       5.883   5.558  16.158  0.00  0.00    +0.000 C 
BRANCH  14  16
ATOM     15  N   UNL     1       5.708   4.220  14.110  0.00  0.00    +0.000 N 
ATOM     16  C   UNL     1       6.531   5.023  14.873  0.00  0.00    +0.000 C 
ATOM     17  O   UNL     1       7.675   5.330  14.544  0.00  0.00    +0.000 OA
ATOM     18  H   UNL     1       4.844   3.929  14.559  0.00  0.00    +0.000 HD
BRANCH  15  20
ATOM     19  C   UNL     1       5.057   3.274  11.935  0.00  0.00    +0.000 C 
ATOM     20  C   UNL     1       6.177   3.530  12.930  0.00  0.00    +0.000 C 
ENDBRANCH  15  20
ENDBRANCH  14  16
ENDBRANCH  12  14
ENDBRANCH   1  12
TORSDOF 6
ENDMDL
MODEL 7
REMARK VINA RESULT:      -6.5      1.093      1.665
REMARK  Name = 
REMARK  8 active torsions:
REMARK  status: ('A' for Active; 'I' for Inactive)
REMARK    1  A    between atoms: C_1  and  C_2
REMARK    2  A    between atoms: C_2  and  N_3
REMARK    3  A    between atoms: C_4  and  C_6
REMARK    4  A    between atoms: C_6  and  N_7
REMARK    5  A    between atoms: N_7  and  C_8
REMARK    6  A    between atoms: N_7  and  C_9
REMARK    7  A    between atoms: C_9  and  C_10
REMARK    8  A    between atoms: C_10  and  C_13
REMARK                            x       y       z     vdW  Elec       q    Type
REMARK                         _______ _______ _______ _____ _____    ______ ____
ROOT
ATOM      1  C   UNL     1       3.680   4.896  17.231  0.00  0.00    +0.000 C 
ENDROOT
BRANCH   1   2
ATOM      2  C   UNL     1       4.149   3.646  18.050  0.00  0.00    +0.000 C 
ATOM      3  F   UNL     1       4.225   2.577  17.203  0.00  0.00    +0.000 F 
ATOM      4  F   UNL     1       5.423   3.849  18.496  0.00  0.00    +0.000 F 
BRANCH   2   5
ATOM      5  C   UNL     1       3.220   3.378  19.223  0.00  0.00    +0.000 A 
ATOM      6  C   UNL     1       1.880   3.796  19.198  0.00  0.00    +0.000 A 
ATOM      7  C   UNL     1       1.035   3.519  20.275  0.00  0.00    +0.000 A 
ATOM      8  C   UNL     1       1.526   2.826  21.377  0.00  0.00    +0.000 A 
ATOM      9  F   UNL     1       0.711   2.555  22.404  0.00  0.00    +0.000 F 
ATOM     10  C   UNL     1       2.850   2.406  21.424  0.00  0.00    +0.000 A 
ATOM     11  C   UNL     1       3.696   2.681  20.350  0.00  0.00    +0.000 A 
ENDBRANCH   2   5
ENDBRANCH   1   2
BRANCH   1  12
ATOM     12  N   UNL     1       4.413   6.193  17.416  0.00  0.00    +0.000 NA
ATOM     13  C   UNL     1       3.486   7.234  17.886  0.00  0.00    +0.000 C 
BRANCH  12  14
ATOM     14  C   UNL     1       5.021   6.586  16.111  0.00  0.00    +0.000 C 
BRANCH  14  16
ATOM     15  N   UNL     1       5.557   4.791  14.529  0.00  0.00    +0.000 N 
ATOM     16  C   UNL     1       6.021   5.547  15.585  0.00  0.00    +0.000 C 
ATOM     17  O   UNL     1       7.155   5.441  16.050  0.00  0.00    +0.000 OA
ATOM     18  H   UNL     1       4.564   4.876  14.334  0.00  0.00    +0.000 HD
BRANCH  15  20
ATOM     19  C   UNL     1       6.512   3.823  12.479  0.00  0.00    +0.000 C 
ATOM     20  C   UNL     1       6.308   3.685  13.979  0.00  0.00    +0.000 C 
ENDBRANCH  15  20
ENDBRANCH  14  16
ENDBRANCH  12  14
ENDBRANCH   1  12
TORSDOF 6
ENDMDL
MODEL 8
REMARK VINA RESULT:      -6.3      4.179      5.279
REMARK  Name = 
REMARK  8 active torsions:
REMARK  status: ('A' for Active; 'I' for Inactive)
REMARK    1  A    between atoms: C_1  and  C_2
REMARK    2  A    between atoms: C_2  and  N_3
REMARK    3  A    between atoms: C_4  and  C_6
REMARK    4  A    between atoms: C_6  and  N_7
REMARK    5  A    between atoms: N_7  and  C_8
REMARK    6  A    between atoms: N_7  and  C_9
REMARK    7  A    between atoms: C_9  and  C_10
REMARK    8  A    between atoms: C_10  and  C_13
REMARK                            x       y       z     vdW  Elec       q    Type
REMARK                         _______ _______ _______ _____ _____    ______ ____
ROOT
ATOM      1  C   UNL     1       4.114   6.691  17.631  0.00  0.00    +0.000 C 
ENDROOT
BRANCH   1   2
ATOM      2  C   UNL     1       2.950   6.438  18.648  0.00  0.00    +0.000 C 
ATOM      3  F   UNL     1       2.154   5.443  18.156  0.00  0.00    +0.000 F 
ATOM      4  F   UNL     1       3.465   5.951  19.814  0.00  0.00    +0.000 F 
BRANCH   2   5
ATOM      5  C   UNL     1       2.166   7.714  18.915  0.00  0.00    +0.000 A 
ATOM      6  C   UNL     1       1.680   8.011  20.199  0.00  0.00    +0.000 A 
ATOM      7  C   UNL     1       0.984   9.199  20.430  0.00  0.00    +0.000 A 
ATOM      8  C   UNL     1       0.772  10.090  19.383  0.00  0.00    +0.000 A 
ATOM      9  F   UNL     1       0.111  11.232  19.611  0.00  0.00    +0.000 F 
ATOM     10  C   UNL     1       1.242   9.814  18.105  0.00  0.00    +0.000 A 
ATOM     11  C   UNL     1       1.937   8.629  17.870  0.00  0.00    +0.000 A 
ENDBRANCH   2   5
ENDBRANCH   1   2
BRANCH   1  12
ATOM     12  N   UNL     1       5.444   6.043  17.886  0.00  0.00    +0.000 NA
ATOM     13  C   UNL     1       6.523   6.861  17.311  0.00  0.00    +0.000 C 
BRANCH  12  14
ATOM     14  C   UNL     1       5.436   4.683  17.271  0.00  0.00    +0.000 C 
BRANCH  14  16
ATOM     15  N   UNL     1       4.114   2.664  17.703  0.00  0.00    +0.000 N 
ATOM     16  C   UNL     1       4.976   3.592  18.248  0.00  0.00    +0.000 C 
ATOM     17  O   UNL     1       5.387   3.540  19.406  0.00  0.00    +0.000 OA
ATOM     18  H   UNL     1       3.743   2.897  16.786  0.00  0.00    +0.000 HD
BRANCH  15  20
ATOM     19  C   UNL     1       2.133   2.078  19.039  0.00  0.00    +0.000 C 
ATOM     20  C   UNL     1       3.482   1.634  18.496  0.00  0.00    +0.000 C 
ENDBRANCH  15  20
ENDBRANCH  14  16
ENDBRANCH  12  14
ENDBRANCH   1  12
TORSDOF 6
ENDMDL
MODEL 9
REMARK VINA RESULT:      -6.3      1.364      1.662
REMARK  Name = 
REMARK  8 active torsions:
REMARK  status: ('A' for Active; 'I' for Inactive)
REMARK    1  A    between atoms: C_1  and  C_2
REMARK    2  A    between atoms: C_2  and  N_3
REMARK    3  A    between atoms: C_4  and  C_6
REMARK    4  A    between atoms: C_6  and  N_7
REMARK    5  A    between atoms: N_7  and  C_8
REMARK    6  A    between atoms: N_7  and  C_9
REMARK    7  A    between atoms: C_9  and  C_10
REMARK    8  A    between atoms: C_10  and  C_13
REMARK                            x       y       z     vdW  Elec       q    Type
REMARK                         _______ _______ _______ _____ _____    ______ ____
ROOT
ATOM      1  C   UNL     1       3.765   5.028  17.418  0.00  0.00    +0.000 C 
ENDROOT
BRANCH   1   2
ATOM      2  C   UNL     1       4.149   3.661  18.078  0.00  0.00    +0.000 C 
ATOM      3  F   UNL     1       4.130   2.694  17.113  0.00  0.00    +0.000 F 
ATOM      4  F   UNL     1       5.442   3.716  18.513  0.00  0.00    +0.000 F 
BRANCH   2   5
ATOM      5  C   UNL     1       3.221   3.329  19.236  0.00  0.00    +0.000 A 
ATOM      6  C   UNL     1       3.703   2.694  20.392  0.00  0.00    +0.000 A 
ATOM      7  C   UNL     1       2.841   2.419  21.456  0.00  0.00    +0.000 A 
ATOM      8  C   UNL     1       1.500   2.777  21.366  0.00  0.00    +0.000 A 
ATOM      9  F   UNL     1       0.677   2.519  22.392  0.00  0.00    +0.000 F 
ATOM     10  C   UNL     1       1.002   3.402  20.230  0.00  0.00    +0.000 A 
ATOM     11  C   UNL     1       1.860   3.678  19.167  0.00  0.00    +0.000 A 
ENDBRANCH   2   5
ENDBRANCH   1   2
BRANCH   1  12
ATOM     12  N   UNL     1       4.216   6.298  18.080  0.00  0.00    +0.000 NA
ATOM     13  C   UNL     1       3.251   7.377  17.814  0.00  0.00    +0.000 C 
BRANCH  12  14
ATOM     14  C   UNL     1       5.562   6.660  17.546  0.00  0.00    +0.000 C 
BRANCH  14  16
ATOM     15  N   UNL     1       6.564   5.249  15.808  0.00  0.00    +0.000 N 
ATOM     16  C   UNL     1       5.723   6.313  16.059  0.00  0.00    +0.000 C 
ATOM     17  O   UNL     1       5.110   6.916  15.179  0.00  0.00    +0.000 OA
ATOM     18  H   UNL     1       7.115   4.931  16.601  0.00  0.00    +0.000 HD
BRANCH  15  20
ATOM     19  C   UNL     1       5.992   3.796  13.907  0.00  0.00    +0.000 C 
ATOM     20  C   UNL     1       6.932   4.851  14.468  0.00  0.00    +0.000 C 
ENDBRANCH  15  20
ENDBRANCH  14  16
ENDBRANCH  12  14
ENDBRANCH   1  12
TORSDOF 6
ENDMDL
