MODEL 1
REMARK VINA RESULT:      -7.5      0.000      0.000
REMARK  Name = 
REMARK  13 active torsions:
REMARK  status: ('A' for Active; 'I' for Inactive)
REMARK    1  A    between atoms: C_1  and  C_2
REMARK    2  A    between atoms: C_2  and  C_3
REMARK    3  A    between atoms: C_6  and  C_7
REMARK    4  A    between atoms: C_10  and  O_11
REMARK    5  A    between atoms: O_11  and  C_12
REMARK    6  A    between atoms: C_12  and  C_13
REMARK    7  A    between atoms: C_13  and  C_14
REMARK    8  A    between atoms: C_14  and  C_15
REMARK    9  A    between atoms: C_15  and  C_16
REMARK   10  A    between atoms: C_16  and  C_17
REMARK   11  A    between atoms: C_17  and  C_18
REMARK   12  A    between atoms: C_18  and  C_19
REMARK   13  A    between atoms: C_21  and  C_22
REMARK                            x       y       z     vdW  Elec       q    Type
REMARK                         _______ _______ _______ _____ _____    ______ ____
ROOT
ATOM      1  O   UNL     1       3.030   6.430  18.141  0.00  0.00    +0.000 OA
ENDROOT
BRANCH   1   5
ATOM      2  C   UNL     1       0.956   9.658  19.760  0.00  0.00    +0.000 A 
ATOM      3  C   UNL     1       1.313   8.553  20.540  0.00  0.00    +0.000 A 
ATOM      4  C   UNL     1       1.995   7.483  19.954  0.00  0.00    +0.000 A 
ATOM      5  C   UNL     1       2.306   7.500  18.591  0.00  0.00    +0.000 A 
ATOM      6  C   UNL     1       1.934   8.595  17.810  0.00  0.00    +0.000 A 
ATOM      7  C   UNL     1       1.258   9.669  18.393  0.00  0.00    +0.000 A 
BRANCH   2  11
ATOM      8  C   UNL     1      -0.347  12.462  21.651  0.00  0.00    +0.000 C 
ATOM      9  C   UNL     1      -1.154  12.475  20.361  0.00  0.00    +0.000 C 
ATOM     10  O   UNL     1      -0.786  11.278  19.692  0.00  0.00    +0.000 OA
ATOM     11  C   UNL     1       0.311  10.837  20.353  0.00  0.00    +0.000 C 
ATOM     12  N   UNL     1       0.689  11.438  21.435  0.00  0.00    +0.000 NA
BRANCH   8  14
ATOM     13  C   UNL     1      -1.047  10.611  23.243  0.00  0.00    +0.000 C 
ATOM     14  C   UNL     1      -1.201  12.077  22.866  0.00  0.00    +0.000 C 
ENDBRANCH   8  14
ENDBRANCH   2  11
ENDBRANCH   1   5
BRANCH   1  15
ATOM     15  C   UNL     1       2.288   5.252  17.831  0.00  0.00    +0.000 C 
BRANCH  15  16
ATOM     16  C   UNL     1       3.185   4.048  18.107  0.00  0.00    +0.000 C 
BRANCH  16  17
ATOM     17  C   UNL     1       3.989   4.257  19.385  0.00  0.00    +0.000 C 
BRANCH  17  18
ATOM     18  C   UNL     1       5.495   4.236  19.123  0.00  0.00    +0.000 C 
BRANCH  18  19
ATOM     19  C   UNL     1       6.054   5.659  19.151  0.00  0.00    +0.000 C 
BRANCH  19  20
ATOM     20  C   UNL     1       7.138   5.877  18.098  0.00  0.00    +0.000 C 
BRANCH  20  21
ATOM     21  C   UNL     1       7.526   4.545  17.453  0.00  0.00    +0.000 C 
BRANCH  21  22
ATOM     22  C   UNL     1       7.127   4.484  16.030  0.00  0.00    +0.000 A 
ATOM     23  C   UNL     1       6.277   3.680  15.313  0.00  0.00    +0.000 A 
ATOM     24  C   UNL     1       6.351   4.184  13.996  0.00  0.00    +0.000 A 
ATOM     25  C   UNL     1       5.644   3.704  12.789  0.00  0.00    +0.000 C 
ATOM     26  N   UNL     1       7.188   5.226  13.919  0.00  0.00    +0.000 NA
ATOM     27  O   UNL     1       7.676   5.412  15.201  0.00  0.00    +0.000 OA
ENDBRANCH  21  22
ENDBRANCH  20  21
ENDBRANCH  19  20
ENDBRANCH  18  19
ENDBRANCH  17  18
ENDBRANCH  16  17
ENDBRANCH  15  16
ENDBRANCH   1  15
TORSDOF 11
ENDMDL
MODEL 2
REMARK VINA RESULT:      -7.2      3.694      7.694
REMARK  Name = 
REMARK  13 active torsions:
REMARK  status: ('A' for Active; 'I' for Inactive)
REMARK    1  A    between atoms: C_1  and  C_2
REMARK    2  A    between atoms: C_2  and  C_3
REMARK    3  A    between atoms: C_6  and  C_7
REMARK    4  A    between atoms: C_10  and  O_11
REMARK    5  A    between atoms: O_11  and  C_12
REMARK    6  A    between atoms: C_12  and  C_13
REMARK    7  A    between atoms: C_13  and  C_14
REMARK    8  A    between atoms: C_14  and  C_15
REMARK    9  A    between atoms: C_15  and  C_16
REMARK   10  A    between atoms: C_16  and  C_17
REMARK   11  A    between atoms: C_17  and  C_18
REMARK   12  A    between atoms: C_18  and  C_19
REMARK   13  A    between atoms: C_21  and  C_22
REMARK                            x       y       z     vdW  Elec       q    Type
REMARK                         _______ _______ _______ _____ _____    ______ ____
ROOT
ATOM      1  O   UNL     1       6.262   4.607  17.689  0.00  0.00    +0.000 OA
ENDROOT
BRANCH   1   5
ATOM      2  C   UNL     1       8.072   8.317  18.234  0.00  0.00    +0.000 A 
ATOM      3  C   UNL     1       7.159   8.095  17.198  0.00  0.00    +0.000 A 
ATOM      4  C   UNL     1       6.586   6.830  17.040  0.00  0.00    +0.000 A 
ATOM      5  C   UNL     1       6.932   5.781  17.897  0.00  0.00    +0.000 A 
ATOM      6  C   UNL     1       7.857   6.000  18.919  0.00  0.00    +0.000 A 
ATOM      7  C   UNL     1       8.427   7.264  19.084  0.00  0.00    +0.000 A 
BRANCH   2  11
ATOM      8  C   UNL     1       9.347  11.708  18.344  0.00  0.00    +0.000 C 
ATOM      9  C   UNL     1       9.693  11.135  19.711  0.00  0.00    +0.000 C 
ATOM     10  O   UNL     1       9.367   9.756  19.618  0.00  0.00    +0.000 OA
ATOM     11  C   UNL     1       8.636   9.651  18.483  0.00  0.00    +0.000 C 
ATOM     12  N   UNL     1       8.509  10.679  17.708  0.00  0.00    +0.000 NA
BRANCH   8  14
ATOM     13  C   UNL     1      11.885  11.747  18.264  0.00  0.00    +0.000 C 
ATOM     14  C   UNL     1      10.594  11.955  17.486  0.00  0.00    +0.000 C 
ENDBRANCH   8  14
ENDBRANCH   2  11
ENDBRANCH   1   5
BRANCH   1  15
ATOM     15  C   UNL     1       5.662   4.442  16.405  0.00  0.00    +0.000 C 
BRANCH  15  16
ATOM     16  C   UNL     1       4.226   3.970  16.616  0.00  0.00    +0.000 C 
BRANCH  16  17
ATOM     17  C   UNL     1       4.094   3.223  17.938  0.00  0.00    +0.000 C 
BRANCH  17  18
ATOM     18  C   UNL     1       2.802   2.408  18.008  0.00  0.00    +0.000 C 
BRANCH  18  19
ATOM     19  C   UNL     1       2.265   2.397  19.439  0.00  0.00    +0.000 C 
BRANCH  19  20
ATOM     20  C   UNL     1       1.391   3.612  19.740  0.00  0.00    +0.000 C 
BRANCH  20  21
ATOM     21  C   UNL     1       2.157   4.614  20.606  0.00  0.00    +0.000 C 
BRANCH  21  22
ATOM     22  C   UNL     1       2.115   5.980  20.038  0.00  0.00    +0.000 A 
ATOM     23  C   UNL     1       2.531   6.531  18.852  0.00  0.00    +0.000 A 
ATOM     24  C   UNL     1       2.164   7.890  18.954  0.00  0.00    +0.000 A 
ATOM     25  C   UNL     1       2.367   8.972  17.965  0.00  0.00    +0.000 C 
ATOM     26  N   UNL     1       1.565   8.148  20.123  0.00  0.00    +0.000 NA
ATOM     27  O   UNL     1       1.536   6.943  20.803  0.00  0.00    +0.000 OA
ENDBRANCH  21  22
ENDBRANCH  20  21
ENDBRANCH  19  20
ENDBRANCH  18  19
ENDBRANCH  17  18
ENDBRANCH  16  17
ENDBRANCH  15  16
ENDBRANCH   1  15
TORSDOF 11
ENDMDL
MODEL 3
REMARK VINA RESULT:      -7.0      2.081      3.213
REMARK  Name = 
REMARK  13 active torsions:
REMARK  status: ('A' for Active; 'I' for Inactive)
REMARK    1  A    between atoms: C_1  and  C_2
REMARK    2  A    between atoms: C_2  and  C_3
REMARK    3  A    between atoms: C_6  and  C_7
REMARK    4  A    between atoms: C_10  and  O_11
REMARK    5  A    between atoms: O_11  and  C_12
REMARK    6  A    between atoms: C_12  and  C_13
REMARK    7  A    between atoms: C_13  and  C_14
REMARK    8  A    between atoms: C_14  and  C_15
REMARK    9  A    between atoms: C_15  and  C_16
REMARK   10  A    between atoms: C_16  and  C_17
REMARK   11  A    between atoms: C_17  and  C_18
REMARK   12  A    between atoms: C_18  and  C_19
REMARK   13  A    between atoms: C_21  and  C_22
REMARK                            x       y       z     vdW  Elec       q    Type
REMARK                         _______ _______ _______ _____ _____    ______ ____
ROOT
ATOM      1  O   UNL     1       3.018   5.863  19.870  0.00  0.00    +0.000 OA
ENDROOT
BRANCH   1   5
ATOM      2  C   UNL     1       0.931   9.465  19.764  0.00  0.00    +0.000 A 
ATOM      3  C   UNL     1       0.937   8.657  20.906  0.00  0.00    +0.000 A 
ATOM      4  C   UNL     1       1.637   7.447  20.894  0.00  0.00    +0.000 A 
ATOM      5  C   UNL     1       2.316   7.030  19.746  0.00  0.00    +0.000 A 
ATOM      6  C   UNL     1       2.294   7.829  18.601  0.00  0.00    +0.000 A 
ATOM      7  C   UNL     1       1.601   9.041  18.610  0.00  0.00    +0.000 A 
BRANCH   2  11
ATOM      8  C   UNL     1      -0.820  12.597  19.256  0.00  0.00    +0.000 C 
ATOM      9  C   UNL     1      -0.214  12.729  20.646  0.00  0.00    +0.000 C 
ATOM     10  O   UNL     1       0.624  11.592  20.785  0.00  0.00    +0.000 OA
ATOM     11  C   UNL     1       0.275  10.779  19.760  0.00  0.00    +0.000 C 
ATOM     12  N   UNL     1      -0.558  11.202  18.864  0.00  0.00    +0.000 NA
BRANCH   8  14
ATOM     13  C   UNL     1       0.535  14.718  18.917  0.00  0.00    +0.000 C 
ATOM     14  C   UNL     1      -0.164  13.545  18.245  0.00  0.00    +0.000 C 
ENDBRANCH   8  14
ENDBRANCH   2  11
ENDBRANCH   1   5
BRANCH   1  15
ATOM     15  C   UNL     1       2.401   4.833  20.641  0.00  0.00    +0.000 C 
BRANCH  15  16
ATOM     16  C   UNL     1       1.333   4.174  19.771  0.00  0.00    +0.000 C 
BRANCH  16  17
ATOM     17  C   UNL     1       1.559   2.670  19.689  0.00  0.00    +0.000 C 
BRANCH  17  18
ATOM     18  C   UNL     1       1.905   2.219  18.270  0.00  0.00    +0.000 C 
BRANCH  18  19
ATOM     19  C   UNL     1       2.540   3.372  17.492  0.00  0.00    +0.000 C 
BRANCH  19  20
ATOM     20  C   UNL     1       4.065   3.302  17.495  0.00  0.00    +0.000 C 
BRANCH  20  21
ATOM     21  C   UNL     1       4.638   4.158  16.363  0.00  0.00    +0.000 C 
BRANCH  21  22
ATOM     22  C   UNL     1       5.684   5.084  16.848  0.00  0.00    +0.000 A 
ATOM     23  C   UNL     1       5.895   6.434  16.719  0.00  0.00    +0.000 A 
ATOM     24  C   UNL     1       7.079   6.672  17.450  0.00  0.00    +0.000 A 
ATOM     25  C   UNL     1       7.788   7.953  17.658  0.00  0.00    +0.000 C 
ATOM     26  N   UNL     1       7.556   5.542  17.987  0.00  0.00    +0.000 NA
ATOM     27  O   UNL     1       6.676   4.544  17.606  0.00  0.00    +0.000 OA
ENDBRANCH  21  22
ENDBRANCH  20  21
ENDBRANCH  19  20
ENDBRANCH  18  19
ENDBRANCH  17  18
ENDBRANCH  16  17
ENDBRANCH  15  16
ENDBRANCH   1  15
TORSDOF 11
ENDMDL
MODEL 4
REMARK VINA RESULT:      -6.9      1.330      1.796
REMARK  Name = 
REMARK  13 active torsions:
REMARK  status: ('A' for Active; 'I' for Inactive)
REMARK    1  A    between atoms: C_1  and  C_2
REMARK    2  A    between atoms: C_2  and  C_3
REMARK    3  A    between atoms: C_6  and  C_7
REMARK    4  A    between atoms: C_10  and  O_11
REMARK    5  A    between atoms: O_11  and  C_12
REMARK    6  A    between atoms: C_12  and  C_13
REMARK    7  A    between atoms: C_13  and  C_14
REMARK    8  A    between atoms: C_14  and  C_15
REMARK    9  A    between atoms: C_15  and  C_16
REMARK   10  A    between atoms: C_16  and  C_17
REMARK   11  A    between atoms: C_17  and  C_18
REMARK   12  A    between atoms: C_18  and  C_19
REMARK   13  A    between atoms: C_21  and  C_22
REMARK                            x       y       z     vdW  Elec       q    Type
REMARK                         _______ _______ _______ _____ _____    ______ ____
ROOT
ATOM      1  O   UNL     1       3.034   6.700  19.049  0.00  0.00    +0.000 OA
ENDROOT
BRANCH   1   5
ATOM      2  C   UNL     1       0.421   9.902  19.559  0.00  0.00    +0.000 A 
ATOM      3  C   UNL     1       0.761   9.060  20.623  0.00  0.00    +0.000 A 
ATOM      4  C   UNL     1       1.629   7.987  20.405  0.00  0.00    +0.000 A 
ATOM      5  C   UNL     1       2.146   7.737  19.130  0.00  0.00    +0.000 A 
ATOM      6  C   UNL     1       1.791   8.567  18.066  0.00  0.00    +0.000 A 
ATOM      7  C   UNL     1       0.928   9.645  18.280  0.00  0.00    +0.000 A 
BRANCH   2  11
ATOM      8  C   UNL     1      -1.346  12.935  20.464  0.00  0.00    +0.000 C 
ATOM      9  C   UNL     1      -2.179  12.340  19.338  0.00  0.00    +0.000 C 
ATOM     10  O   UNL     1      -1.605  11.063  19.099  0.00  0.00    +0.000 OA
ATOM     11  C   UNL     1      -0.424  11.087  19.761  0.00  0.00    +0.000 C 
ATOM     12  N   UNL     1      -0.137  12.095  20.520  0.00  0.00    +0.000 NA
BRANCH   8  14
ATOM     13  C   UNL     1      -1.286  12.105  22.864  0.00  0.00    +0.000 C 
ATOM     14  C   UNL     1      -2.071  12.878  21.814  0.00  0.00    +0.000 C 
ENDBRANCH   8  14
ENDBRANCH   2  11
ENDBRANCH   1   5
BRANCH   1  15
ATOM     15  C   UNL     1       2.679   5.508  19.748  0.00  0.00    +0.000 C 
BRANCH  15  16
ATOM     16  C   UNL     1       1.690   4.734  18.880  0.00  0.00    +0.000 C 
BRANCH  16  17
ATOM     17  C   UNL     1       1.815   3.236  19.128  0.00  0.00    +0.000 C 
BRANCH  17  18
ATOM     18  C   UNL     1       2.305   2.489  17.887  0.00  0.00    +0.000 C 
BRANCH  18  19
ATOM     19  C   UNL     1       3.789   2.770  17.655  0.00  0.00    +0.000 C 
BRANCH  19  20
ATOM     20  C   UNL     1       4.015   3.992  16.768  0.00  0.00    +0.000 C 
BRANCH  20  21
ATOM     21  C   UNL     1       5.447   4.506  16.928  0.00  0.00    +0.000 C 
BRANCH  21  22
ATOM     22  C   UNL     1       6.142   4.616  15.626  0.00  0.00    +0.000 A 
ATOM     23  C   UNL     1       5.947   4.050  14.391  0.00  0.00    +0.000 A 
ATOM     24  C   UNL     1       6.965   4.609  13.589  0.00  0.00    +0.000 A 
ATOM     25  C   UNL     1       7.246   4.359  12.158  0.00  0.00    +0.000 C 
ATOM     26  N   UNL     1       7.727   5.458  14.289  0.00  0.00    +0.000 NA
ATOM     27  O   UNL     1       7.207   5.460  15.571  0.00  0.00    +0.000 OA
ENDBRANCH  21  22
ENDBRANCH  20  21
ENDBRANCH  19  20
ENDBRANCH  18  19
ENDBRANCH  17  18
ENDBRANCH  16  17
ENDBRANCH  15  16
ENDBRANCH   1  15
TORSDOF 11
ENDMDL
MODEL 5
REMARK VINA RESULT:      -6.8      2.191      3.261
REMARK  Name = 
REMARK  13 active torsions:
REMARK  status: ('A' for Active; 'I' for Inactive)
REMARK    1  A    between atoms: C_1  and  C_2
REMARK    2  A    between atoms: C_2  and  C_3
REMARK    3  A    between atoms: C_6  and  C_7
REMARK    4  A    between atoms: C_10  and  O_11
REMARK    5  A    between atoms: O_11  and  C_12
REMARK    6  A    between atoms: C_12  and  C_13
REMARK    7  A    between atoms: C_13  and  C_14
REMARK    8  A    between atoms: C_14  and  C_15
REMARK    9  A    between atoms: C_15  and  C_16
REMARK   10  A    between atoms: C_16  and  C_17
REMARK   11  A    between atoms: C_17  and  C_18
REMARK   12  A    between atoms: C_18  and  C_19
REMARK   13  A    between atoms: C_21  and  C_22
REMARK                            x       y       z     vdW  Elec       q    Type
REMARK                         _______ _______ _______ _____ _____    ______ ____
ROOT
ATOM      1  O   UNL     1       2.020   6.103  20.840  0.00  0.00    +0.000 OA
ENDROOT
BRANCH   1   5
ATOM      2  C   UNL     1       1.007   9.948  19.606  0.00  0.00    +0.000 A 
ATOM      3  C   UNL     1       0.595   9.446  20.844  0.00  0.00    +0.000 A 
ATOM      4  C   UNL     1       0.943   8.144  21.213  0.00  0.00    +0.000 A 
ATOM      5  C   UNL     1       1.683   7.333  20.348  0.00  0.00    +0.000 A 
ATOM      6  C   UNL     1       2.078   7.830  19.105  0.00  0.00    +0.000 A 
ATOM      7  C   UNL     1       1.738   9.133  18.734  0.00  0.00    +0.000 A 
BRANCH   2  11
ATOM      8  C   UNL     1       0.829  13.389  18.480  0.00  0.00    +0.000 C 
ATOM      9  C   UNL     1      -0.530  13.133  19.115  0.00  0.00    +0.000 C 
ATOM     10  O   UNL     1      -0.412  11.855  19.722  0.00  0.00    +0.000 OA
ATOM     11  C   UNL     1       0.730  11.337  19.213  0.00  0.00    +0.000 C 
ATOM     12  N   UNL     1       1.489  12.073  18.467  0.00  0.00    +0.000 NA
BRANCH   8  14
ATOM     13  C   UNL     1       0.838  15.172  20.289  0.00  0.00    +0.000 C 
ATOM     14  C   UNL     1       1.673  14.377  19.295  0.00  0.00    +0.000 C 
ENDBRANCH   8  14
ENDBRANCH   2  11
ENDBRANCH   1   5
BRANCH   1  15
ATOM     15  C   UNL     1       2.098   5.042  19.889  0.00  0.00    +0.000 C 
BRANCH  15  16
ATOM     16  C   UNL     1       1.140   3.941  20.337  0.00  0.00    +0.000 C 
BRANCH  16  17
ATOM     17  C   UNL     1       0.845   2.984  19.188  0.00  0.00    +0.000 C 
BRANCH  17  18
ATOM     18  C   UNL     1       1.698   3.288  17.956  0.00  0.00    +0.000 C 
BRANCH  18  19
ATOM     19  C   UNL     1       2.834   2.271  17.839  0.00  0.00    +0.000 C 
BRANCH  19  20
ATOM     20  C   UNL     1       4.183   2.937  17.582  0.00  0.00    +0.000 C 
BRANCH  20  21
ATOM     21  C   UNL     1       3.993   4.233  16.790  0.00  0.00    +0.000 C 
BRANCH  21  22
ATOM     22  C   UNL     1       5.183   5.109  16.872  0.00  0.00    +0.000 A 
ATOM     23  C   UNL     1       5.596   6.073  17.756  0.00  0.00    +0.000 A 
ATOM     24  C   UNL     1       6.841   6.501  17.246  0.00  0.00    +0.000 A 
ATOM     25  C   UNL     1       7.750   7.533  17.790  0.00  0.00    +0.000 C 
ATOM     26  N   UNL     1       7.162   5.840  16.127  0.00  0.00    +0.000 NA
ATOM     27  O   UNL     1       6.116   4.965  15.894  0.00  0.00    +0.000 OA
ENDBRANCH  21  22
ENDBRANCH  20  21
ENDBRANCH  19  20
ENDBRANCH  18  19
ENDBRANCH  17  18
ENDBRANCH  16  17
ENDBRANCH  15  16
ENDBRANCH   1  15
TORSDOF 11
ENDMDL
MODEL 6
REMARK VINA RESULT:      -6.8      2.237      3.576
REMARK  Name = 
REMARK  13 active torsions:
REMARK  status: ('A' for Active; 'I' for Inactive)
REMARK    1  A    between atoms: C_1  and  C_2
REMARK    2  A    between atoms: C_2  and  C_3
REMARK    3  A    between atoms: C_6  and  C_7
REMARK    4  A    between atoms: C_10  and  O_11
REMARK    5  A    between atoms: O_11  and  C_12
REMARK    6  A    between atoms: C_12  and  C_13
REMARK    7  A    between atoms: C_13  and  C_14
REMARK    8  A    between atoms: C_14  and  C_15
REMARK    9  A    between atoms: C_15  and  C_16
REMARK   10  A    between atoms: C_16  and  C_17
REMARK   11  A    between atoms: C_17  and  C_18
REMARK   12  A    between atoms: C_18  and  C_19
REMARK   13  A    between atoms: C_21  and  C_22
REMARK                            x       y       z     vdW  Elec       q    Type
REMARK                         _______ _______ _______ _____ _____    ______ ____
ROOT
ATOM      1  O   UNL     1       2.407   6.358  20.285  0.00  0.00    +0.000 OA
ENDROOT
BRANCH   1   5
ATOM      2  C   UNL     1       0.853  10.198  19.860  0.00  0.00    +0.000 A 
ATOM      3  C   UNL     1       0.762   9.503  21.070  0.00  0.00    +0.000 A 
ATOM      4  C   UNL     1       1.282   8.209  21.165  0.00  0.00    +0.000 A 
ATOM      5  C   UNL     1       1.876   7.598  20.058  0.00  0.00    +0.000 A 
ATOM      6  C   UNL     1       1.950   8.287  18.846  0.00  0.00    +0.000 A 
ATOM      7  C   UNL     1       1.437   9.582  18.747  0.00  0.00    +0.000 A 
BRANCH   2  11
ATOM      8  C   UNL     1      -0.108  13.602  19.066  0.00  0.00    +0.000 C 
ATOM      9  C   UNL     1      -0.423  13.461  20.548  0.00  0.00    +0.000 C 
ATOM     10  O   UNL     1       0.116  12.200  20.915  0.00  0.00    +0.000 OA
ATOM     11  C   UNL     1       0.391  11.588  19.739  0.00  0.00    +0.000 C 
ATOM     12  N   UNL     1       0.262  12.245  18.631  0.00  0.00    +0.000 NA
BRANCH   8  14
ATOM     13  C   UNL     1       2.297  13.839  18.285  0.00  0.00    +0.000 C 
ATOM     14  C   UNL     1       1.063  14.558  18.810  0.00  0.00    +0.000 C 
ENDBRANCH   8  14
ENDBRANCH   2  11
ENDBRANCH   1   5
BRANCH   1  15
ATOM     15  C   UNL     1       1.474   5.310  20.545  0.00  0.00    +0.000 C 
BRANCH  15  16
ATOM     16  C   UNL     1       2.246   4.132  21.132  0.00  0.00    +0.000 C 
BRANCH  16  17
ATOM     17  C   UNL     1       1.444   2.843  20.998  0.00  0.00    +0.000 C 
BRANCH  17  18
ATOM     18  C   UNL     1       1.475   2.296  19.570  0.00  0.00    +0.000 C 
BRANCH  18  19
ATOM     19  C   UNL     1       2.909   2.290  19.040  0.00  0.00    +0.000 C 
BRANCH  19  20
ATOM     20  C   UNL     1       2.986   2.710  17.574  0.00  0.00    +0.000 C 
BRANCH  20  21
ATOM     21  C   UNL     1       3.249   4.213  17.465  0.00  0.00    +0.000 C 
BRANCH  21  22
ATOM     22  C   UNL     1       4.651   4.553  17.796  0.00  0.00    +0.000 A 
ATOM     23  C   UNL     1       5.247   5.245  18.820  0.00  0.00    +0.000 A 
ATOM     24  C   UNL     1       6.626   5.175  18.529  0.00  0.00    +0.000 A 
ATOM     25  C   UNL     1       7.755   5.749  19.293  0.00  0.00    +0.000 C 
ATOM     26  N   UNL     1       6.853   4.485  17.404  0.00  0.00    +0.000 NA
ATOM     27  O   UNL     1       5.608   4.096  16.944  0.00  0.00    +0.000 OA
ENDBRANCH  21  22
ENDBRANCH  20  21
ENDBRANCH  19  20
ENDBRANCH  18  19
ENDBRANCH  17  18
ENDBRANCH  16  17
ENDBRANCH  15  16
ENDBRANCH   1  15
TORSDOF 11
ENDMDL
MODEL 7
REMARK VINA RESULT:      -6.8      2.282      3.583
REMARK  Name = 
REMARK  13 active torsions:
REMARK  status: ('A' for Active; 'I' for Inactive)
REMARK    1  A    between atoms: C_1  and  C_2
REMARK    2  A    between atoms: C_2  and  C_3
REMARK    3  A    between atoms: C_6  and  C_7
REMARK    4  A    between atoms: C_10  and  O_11
REMARK    5  A    between atoms: O_11  and  C_12
REMARK    6  A    between atoms: C_12  and  C_13
REMARK    7  A    between atoms: C_13  and  C_14
REMARK    8  A    between atoms: C_14  and  C_15
REMARK    9  A    between atoms: C_15  and  C_16
REMARK   10  A    between atoms: C_16  and  C_17
REMARK   11  A    between atoms: C_17  and  C_18
REMARK   12  A    between atoms: C_18  and  C_19
REMARK   13  A    between atoms: C_21  and  C_22
REMARK                            x       y       z     vdW  Elec       q    Type
REMARK                         _______ _______ _______ _____ _____    ______ ____
ROOT
ATOM      1  O   UNL     1       1.058   8.667  20.291  0.00  0.00    +0.000 OA
ENDROOT
BRANCH   1   5
ATOM      2  C   UNL     1      -1.244  11.412  22.414  0.00  0.00    +0.000 A 
ATOM      3  C   UNL     1      -0.846  11.657  21.096  0.00  0.00    +0.000 A 
ATOM      4  C   UNL     1      -0.060  10.716  20.424  0.00  0.00    +0.000 A 
ATOM      5  C   UNL     1       0.347   9.543  21.064  0.00  0.00    +0.000 A 
ATOM      6  C   UNL     1      -0.035   9.308  22.386  0.00  0.00    +0.000 A 
ATOM      7  C   UNL     1      -0.826  10.242  23.060  0.00  0.00    +0.000 A 
BRANCH   2  11
ATOM      8  C   UNL     1      -3.831  13.360  24.042  0.00  0.00    +0.000 C 
ATOM      9  C   UNL     1      -2.576  14.208  24.191  0.00  0.00    +0.000 C 
ATOM     10  O   UNL     1      -1.598  13.548  23.401  0.00  0.00    +0.000 OA
ATOM     11  C   UNL     1      -2.135  12.336  23.129  0.00  0.00    +0.000 C 
ATOM     12  N   UNL     1      -3.357  12.087  23.474  0.00  0.00    +0.000 NA
BRANCH   8  14
ATOM     13  C   UNL     1      -5.884  14.839  23.827  0.00  0.00    +0.000 C 
ATOM     14  C   UNL     1      -4.852  13.996  23.092  0.00  0.00    +0.000 C 
ENDBRANCH   8  14
ENDBRANCH   2  11
ENDBRANCH   1   5
BRANCH   1  15
ATOM     15  C   UNL     1       1.583   7.520  20.956  0.00  0.00    +0.000 C 
BRANCH  15  16
ATOM     16  C   UNL     1       2.039   6.528  19.889  0.00  0.00    +0.000 C 
BRANCH  16  17
ATOM     17  C   UNL     1       2.187   7.220  18.539  0.00  0.00    +0.000 C 
BRANCH  17  18
ATOM     18  C   UNL     1       3.531   6.907  17.880  0.00  0.00    +0.000 C 
BRANCH  18  19
ATOM     19  C   UNL     1       4.024   5.529  18.319  0.00  0.00    +0.000 C 
BRANCH  19  20
ATOM     20  C   UNL     1       5.548   5.446  18.362  0.00  0.00    +0.000 C 
BRANCH  20  21
ATOM     21  C   UNL     1       6.160   6.384  17.320  0.00  0.00    +0.000 C 
BRANCH  21  22
ATOM     22  C   UNL     1       6.423   5.691  16.039  0.00  0.00    +0.000 A 
ATOM     23  C   UNL     1       5.694   4.834  15.254  0.00  0.00    +0.000 A 
ATOM     24  C   UNL     1       6.540   4.565  14.156  0.00  0.00    +0.000 A 
ATOM     25  C   UNL     1       6.278   3.697  12.987  0.00  0.00    +0.000 C 
ATOM     26  N   UNL     1       7.704   5.216  14.267  0.00  0.00    +0.000 NA
ATOM     27  O   UNL     1       7.628   5.923  15.454  0.00  0.00    +0.000 OA
ENDBRANCH  21  22
ENDBRANCH  20  21
ENDBRANCH  19  20
ENDBRANCH  18  19
ENDBRANCH  17  18
ENDBRANCH  16  17
ENDBRANCH  15  16
ENDBRANCH   1  15
TORSDOF 11
ENDMDL
MODEL 8
REMARK VINA RESULT:      -6.7      1.608      2.343
REMARK  Name = 
REMARK  13 active torsions:
REMARK  status: ('A' for Active; 'I' for Inactive)
REMARK    1  A    between atoms: C_1  and  C_2
REMARK    2  A    between atoms: C_2  and  C_3
REMARK    3  A    between atoms: C_6  and  C_7
REMARK    4  A    between atoms: C_10  and  O_11
REMARK    5  A    between atoms: O_11  and  C_12
REMARK    6  A    between atoms: C_12  and  C_13
REMARK    7  A    between atoms: C_13  and  C_14
REMARK    8  A    between atoms: C_14  and  C_15
REMARK    9  A    between atoms: C_15  and  C_16
REMARK   10  A    between atoms: C_16  and  C_17
REMARK   11  A    between atoms: C_17  and  C_18
REMARK   12  A    between atoms: C_18  and  C_19
REMARK   13  A    between atoms: C_21  and  C_22
REMARK                            x       y       z     vdW  Elec       q    Type
REMARK                         _______ _______ _______ _____ _____    ______ ____
ROOT
ATOM      1  O   UNL     1       3.267   5.228  19.760  0.00  0.00    +0.000 OA
ENDROOT
BRANCH   1   5
ATOM      2  C   UNL     1       1.298   8.888  19.496  0.00  0.00    +0.000 A 
ATOM      3  C   UNL     1       2.098   8.411  18.452  0.00  0.00    +0.000 A 
ATOM      4  C   UNL     1       2.755   7.185  18.587  0.00  0.00    +0.000 A 
ATOM      5  C   UNL     1       2.634   6.440  19.764  0.00  0.00    +0.000 A 
ATOM      6  C   UNL     1       1.850   6.926  20.812  0.00  0.00    +0.000 A 
ATOM      7  C   UNL     1       1.187   8.148  20.678  0.00  0.00    +0.000 A 
BRANCH   2  11
ATOM      8  C   UNL     1      -0.383  12.096  19.628  0.00  0.00    +0.000 C 
ATOM      9  C   UNL     1      -0.965  11.420  18.395  0.00  0.00    +0.000 C 
ATOM     10  O   UNL     1      -0.455  10.096  18.433  0.00  0.00    +0.000 OA
ATOM     11  C   UNL     1       0.528  10.132  19.363  0.00  0.00    +0.000 C 
ATOM     12  N   UNL     1       0.704  11.205  20.066  0.00  0.00    +0.000 NA
BRANCH   8  14
ATOM     13  C   UNL     1      -0.790  12.705  22.060  0.00  0.00    +0.000 C 
ATOM     14  C   UNL     1      -1.415  12.236  20.754  0.00  0.00    +0.000 C 
ENDBRANCH   8  14
ENDBRANCH   2  11
ENDBRANCH   1   5
BRANCH   1  15
ATOM     15  C   UNL     1       2.585   4.157  20.410  0.00  0.00    +0.000 C 
BRANCH  15  16
ATOM     16  C   UNL     1       3.419   2.892  20.228  0.00  0.00    +0.000 C 
BRANCH  16  17
ATOM     17  C   UNL     1       3.020   2.162  18.952  0.00  0.00    +0.000 C 
BRANCH  17  18
ATOM     18  C   UNL     1       1.985   2.946  18.144  0.00  0.00    +0.000 C 
BRANCH  18  19
ATOM     19  C   UNL     1       2.647   3.587  16.924  0.00  0.00    +0.000 C 
BRANCH  19  20
ATOM     20  C   UNL     1       4.163   3.408  16.927  0.00  0.00    +0.000 C 
BRANCH  20  21
ATOM     21  C   UNL     1       4.857   4.748  16.677  0.00  0.00    +0.000 C 
BRANCH  21  22
ATOM     22  C   UNL     1       5.700   4.715  15.462  0.00  0.00    +0.000 A 
ATOM     23  C   UNL     1       5.644   4.017  14.283  0.00  0.00    +0.000 A 
ATOM     24  C   UNL     1       6.757   4.484  13.550  0.00  0.00    +0.000 A 
ATOM     25  C   UNL     1       7.201   4.078  12.198  0.00  0.00    +0.000 C 
ATOM     26  N   UNL     1       7.442   5.405  14.238  0.00  0.00    +0.000 NA
ATOM     27  O   UNL     1       6.776   5.548  15.442  0.00  0.00    +0.000 OA
ENDBRANCH  21  22
ENDBRANCH  20  21
ENDBRANCH  19  20
ENDBRANCH  18  19
ENDBRANCH  17  18
ENDBRANCH  16  17
ENDBRANCH  15  16
ENDBRANCH   1  15
TORSDOF 11
ENDMDL
MODEL 9
REMARK VINA RESULT:      -6.7      2.243      8.634
REMARK  Name = 
REMARK  13 active torsions:
REMARK  status: ('A' for Active; 'I' for Inactive)
REMARK    1  A    between atoms: C_1  and  C_2
REMARK    2  A    between atoms: C_2  and  C_3
REMARK    3  A    between atoms: C_6  and  C_7
REMARK    4  A    between atoms: C_10  and  O_11
REMARK    5  A    between atoms: O_11  and  C_12
REMARK    6  A    between atoms: C_12  and  C_13
REMARK    7  A    between atoms: C_13  and  C_14
REMARK    8  A    between atoms: C_14  and  C_15
REMARK    9  A    between atoms: C_15  and  C_16
REMARK   10  A    between atoms: C_16  and  C_17
REMARK   11  A    between atoms: C_17  and  C_18
REMARK   12  A    between atoms: C_18  and  C_19
REMARK   13  A    between atoms: C_21  and  C_22
REMARK                            x       y       z     vdW  Elec       q    Type
REMARK                         _______ _______ _______ _____ _____    ______ ____
ROOT
ATOM      1  O   UNL     1       3.972   2.270  21.164  0.00  0.00    +0.000 OA
ENDROOT
BRANCH   1   5
ATOM      2  C   UNL     1       5.090   3.753  17.437  0.00  0.00    +0.000 A 
ATOM      3  C   UNL     1       5.654   4.246  18.618  0.00  0.00    +0.000 A 
ATOM      4  C   UNL     1       5.238   3.732  19.850  0.00  0.00    +0.000 A 
ATOM      5  C   UNL     1       4.252   2.743  19.912  0.00  0.00    +0.000 A 
ATOM      6  C   UNL     1       3.678   2.265  18.733  0.00  0.00    +0.000 A 
ATOM      7  C   UNL     1       4.094   2.771  17.499  0.00  0.00    +0.000 A 
BRANCH   2  11
ATOM      8  C   UNL     1       5.755   4.745  14.015  0.00  0.00    +0.000 C 
ATOM      9  C   UNL     1       7.091   4.923  14.721  0.00  0.00    +0.000 C 
ATOM     10  O   UNL     1       6.895   4.366  16.012  0.00  0.00    +0.000 OA
ATOM     11  C   UNL     1       5.555   4.208  16.119  0.00  0.00    +0.000 C 
ATOM     12  N   UNL     1       4.801   4.432  15.091  0.00  0.00    +0.000 NA
BRANCH   8  14
ATOM     13  C   UNL     1       6.954   3.694  12.038  0.00  0.00    +0.000 C 
ATOM     14  C   UNL     1       5.782   3.592  13.004  0.00  0.00    +0.000 C 
ENDBRANCH   8  14
ENDBRANCH   2  11
ENDBRANCH   1   5
BRANCH   1  15
ATOM     15  C   UNL     1       2.599   2.282  21.550  0.00  0.00    +0.000 C 
BRANCH  15  16
ATOM     16  C   UNL     1       2.143   3.737  21.612  0.00  0.00    +0.000 C 
BRANCH  16  17
ATOM     17  C   UNL     1       0.975   3.976  20.663  0.00  0.00    +0.000 C 
BRANCH  17  18
ATOM     18  C   UNL     1       0.953   5.409  20.130  0.00  0.00    +0.000 C 
BRANCH  18  19
ATOM     19  C   UNL     1       2.368   5.854  19.760  0.00  0.00    +0.000 C 
BRANCH  19  20
ATOM     20  C   UNL     1       2.484   6.253  18.291  0.00  0.00    +0.000 C 
BRANCH  20  21
ATOM     21  C   UNL     1       2.941   7.708  18.170  0.00  0.00    +0.000 C 
BRANCH  21  22
ATOM     22  C   UNL     1       1.854   8.657  18.498  0.00  0.00    +0.000 A 
ATOM     23  C   UNL     1       0.999   9.421  17.745  0.00  0.00    +0.000 A 
ATOM     24  C   UNL     1       0.196  10.084  18.699  0.00  0.00    +0.000 A 
ATOM     25  C   UNL     1      -0.903  11.045  18.463  0.00  0.00    +0.000 C 
ATOM     26  N   UNL     1       0.540   9.744  19.947  0.00  0.00    +0.000 NA
ATOM     27  O   UNL     1       1.585   8.846  19.817  0.00  0.00    +0.000 OA
ENDBRANCH  21  22
ENDBRANCH  20  21
ENDBRANCH  19  20
ENDBRANCH  18  19
ENDBRANCH  17  18
ENDBRANCH  16  17
ENDBRANCH  15  16
ENDBRANCH   1  15
TORSDOF 11
ENDMDL
