MODEL 1
REMARK VINA RESULT:      -8.1      0.000      0.000
REMARK  Name = 
REMARK  3 active torsions:
REMARK  status: ('A' for Active; 'I' for Inactive)
REMARK    1  A    between atoms: C_11  and  C_12
REMARK    2  A    between atoms: C_12  and  C_13
REMARK    3  A    between atoms: C_13  and  N_14
REMARK                            x       y       z     vdW  Elec       q    Type
REMARK                         _______ _______ _______ _____ _____    ______ ____
ROOT
ATOM      1  C   UNL     1       5.561   5.899  18.148  0.00  0.00    +0.000 C 
ENDROOT
BRANCH   1  12
ATOM      2  O   UNL     1       4.618   3.256  16.802  0.00  0.00    +0.000 OA
ATOM      3  C   UNL     1       5.505   3.996  16.412  0.00  0.00    +0.000 C 
ATOM      4  C   UNL     1       5.929   4.065  15.018  0.00  0.00    +0.000 A 
ATOM      5  C   UNL     1       5.474   3.327  13.935  0.00  0.00    +0.000 A 
ATOM      6  C   UNL     1       6.054   3.578  12.693  0.00  0.00    +0.000 A 
ATOM      7  C   UNL     1       7.058   4.556  12.574  0.00  0.00    +0.000 A 
ATOM      8  F   UNL     1       7.596   4.796  11.372  0.00  0.00    +0.000 F 
ATOM      9  C   UNL     1       7.511   5.279  13.680  0.00  0.00    +0.000 A 
ATOM     10  C   UNL     1       6.937   5.019  14.914  0.00  0.00    +0.000 A 
ATOM     11  C   UNL     1       7.246   5.668  16.225  0.00  0.00    +0.000 C 
ATOM     12  C   UNL     1       6.366   4.925  17.263  0.00  0.00    +0.000 C 
ENDBRANCH   1  12
BRANCH   1  13
ATOM     13  C   UNL     1       4.358   6.501  17.404  0.00  0.00    +0.000 C 
BRANCH  13  14
ATOM     14  N   UNL     1       3.040   6.383  18.064  0.00  0.00    +0.000 NA
ATOM     15  C   UNL     1       3.281   6.468  19.522  0.00  0.00    +0.000 C 
ATOM     16  C   UNL     1       2.024   6.188  20.325  0.00  0.00    +0.000 C 
ATOM     17  C   UNL     1       1.719   4.740  20.100  0.00  0.00    +0.000 A 
ATOM     18  C   UNL     1       1.508   3.855  21.161  0.00  0.00    +0.000 A 
ATOM     19  C   UNL     1       1.241   2.516  20.898  0.00  0.00    +0.000 A 
ATOM     20  C   UNL     1       1.118   2.080  19.579  0.00  0.00    +0.000 A 
ATOM     21  C   UNL     1       1.364   2.959  18.518  0.00  0.00    +0.000 A 
ATOM     22  C   UNL     1       1.748   4.281  18.773  0.00  0.00    +0.000 A 
ATOM     23  C   UNL     1       2.238   5.198  17.657  0.00  0.00    +0.000 C 
ENDBRANCH  13  14
ENDBRANCH   1  13
TORSDOF 3
ENDMDL
MODEL 2
REMARK VINA RESULT:      -8.0      3.372      5.136
REMARK  Name = 
REMARK  3 active torsions:
REMARK  status: ('A' for Active; 'I' for Inactive)
REMARK    1  A    between atoms: C_11  and  C_12
REMARK    2  A    between atoms: C_12  and  C_13
REMARK    3  A    between atoms: C_13  and  N_14
REMARK                            x       y       z     vdW  Elec       q    Type
REMARK                         _______ _______ _______ _____ _____    ______ ____
ROOT
ATOM      1  C   UNL     1       5.661   4.271  17.254  0.00  0.00    +0.000 C 
ENDROOT
BRANCH   1  12
ATOM      2  O   UNL     1       5.029   7.035  15.971  0.00  0.00    +0.000 OA
ATOM      3  C   UNL     1       4.743   6.673  17.099  0.00  0.00    +0.000 C 
ATOM      4  C   UNL     1       3.637   7.242  17.860  0.00  0.00    +0.000 A 
ATOM      5  C   UNL     1       2.772   8.266  17.502  0.00  0.00    +0.000 A 
ATOM      6  C   UNL     1       1.792   8.637  18.421  0.00  0.00    +0.000 A 
ATOM      7  C   UNL     1       1.705   7.970  19.657  0.00  0.00    +0.000 A 
ATOM      8  F   UNL     1       0.749   8.328  20.524  0.00  0.00    +0.000 F 
ATOM      9  C   UNL     1       2.594   6.950  20.004  0.00  0.00    +0.000 A 
ATOM     10  C   UNL     1       3.571   6.592  19.089  0.00  0.00    +0.000 A 
ATOM     11  C   UNL     1       4.616   5.532  19.230  0.00  0.00    +0.000 C 
ATOM     12  C   UNL     1       5.477   5.638  17.945  0.00  0.00    +0.000 C 
ENDBRANCH   1  12
BRANCH   1  13
ATOM     13  C   UNL     1       4.481   3.922  16.333  0.00  0.00    +0.000 C 
BRANCH  13  14
ATOM     14  N   UNL     1       3.398   3.104  16.919  0.00  0.00    +0.000 NA
ATOM     15  C   UNL     1       2.241   4.005  17.124  0.00  0.00    +0.000 C 
ATOM     16  C   UNL     1       1.115   3.325  17.882  0.00  0.00    +0.000 C 
ATOM     17  C   UNL     1       1.641   3.103  19.266  0.00  0.00    +0.000 A 
ATOM     18  C   UNL     1       0.940   3.520  20.400  0.00  0.00    +0.000 A 
ATOM     19  C   UNL     1       1.478   3.302  21.663  0.00  0.00    +0.000 A 
ATOM     20  C   UNL     1       2.681   2.607  21.792  0.00  0.00    +0.000 A 
ATOM     21  C   UNL     1       3.399   2.220  20.656  0.00  0.00    +0.000 A 
ATOM     22  C   UNL     1       2.923   2.539  19.378  0.00  0.00    +0.000 A 
ATOM     23  C   UNL     1       3.779   2.334  18.134  0.00  0.00    +0.000 C 
ENDBRANCH  13  14
ENDBRANCH   1  13
TORSDOF 3
ENDMDL
MODEL 3
REMARK VINA RESULT:      -8.0      4.361      7.984
REMARK  Name = 
REMARK  3 active torsions:
REMARK  status: ('A' for Active; 'I' for Inactive)
REMARK    1  A    between atoms: C_11  and  C_12
REMARK    2  A    between atoms: C_12  and  C_13
REMARK    3  A    between atoms: C_13  and  N_14
REMARK                            x       y       z     vdW  Elec       q    Type
REMARK                         _______ _______ _______ _____ _____    ______ ____
ROOT
ATOM      1  C   UNL     1       2.178   6.486  18.101  0.00  0.00    +0.000 C 
ENDROOT
BRANCH   1  12
ATOM      2  O   UNL     1       1.748   9.503  17.469  0.00  0.00    +0.000 OA
ATOM      3  C   UNL     1       1.682   8.971  18.564  0.00  0.00    +0.000 C 
ATOM      4  C   UNL     1       0.908   9.522  19.670  0.00  0.00    +0.000 A 
ATOM      5  C   UNL     1       0.175  10.699  19.716  0.00  0.00    +0.000 A 
ATOM      6  C   UNL     1      -0.476  11.010  20.909  0.00  0.00    +0.000 A 
ATOM      7  C   UNL     1      -0.378  10.136  22.007  0.00  0.00    +0.000 A 
ATOM      8  F   UNL     1      -1.021  10.441  23.141  0.00  0.00    +0.000 F 
ATOM      9  C   UNL     1       0.376   8.962  21.944  0.00  0.00    +0.000 A 
ATOM     10  C   UNL     1       1.027   8.663  20.758  0.00  0.00    +0.000 A 
ATOM     11  C   UNL     1       1.874   7.469  20.452  0.00  0.00    +0.000 C 
ATOM     12  C   UNL     1       2.406   7.707  19.016  0.00  0.00    +0.000 C 
ENDBRANCH   1  12
BRANCH   1  13
ATOM     13  C   UNL     1       2.243   5.160  18.877  0.00  0.00    +0.000 C 
BRANCH  13  14
ATOM     14  N   UNL     1       3.446   4.326  18.667  0.00  0.00    +0.000 NA
ATOM     15  C   UNL     1       4.602   5.107  19.162  0.00  0.00    +0.000 C 
ATOM     16  C   UNL     1       5.924   4.430  18.848  0.00  0.00    +0.000 C 
ATOM     17  C   UNL     1       6.064   4.495  17.359  0.00  0.00    +0.000 A 
ATOM     18  C   UNL     1       7.210   5.005  16.744  0.00  0.00    +0.000 A 
ATOM     19  C   UNL     1       7.284   5.056  15.357  0.00  0.00    +0.000 A 
ATOM     20  C   UNL     1       6.243   4.536  14.588  0.00  0.00    +0.000 A 
ATOM     21  C   UNL     1       5.081   4.058  15.203  0.00  0.00    +0.000 A 
ATOM     22  C   UNL     1       4.948   4.110  16.596  0.00  0.00    +0.000 A 
ATOM     23  C   UNL     1       3.620   3.810  17.282  0.00  0.00    +0.000 C 
ENDBRANCH  13  14
ENDBRANCH   1  13
TORSDOF 3
ENDMDL
MODEL 4
REMARK VINA RESULT:      -8.0      2.967      6.231
REMARK  Name = 
REMARK  3 active torsions:
REMARK  status: ('A' for Active; 'I' for Inactive)
REMARK    1  A    between atoms: C_11  and  C_12
REMARK    2  A    between atoms: C_12  and  C_13
REMARK    3  A    between atoms: C_13  and  N_14
REMARK                            x       y       z     vdW  Elec       q    Type
REMARK                         _______ _______ _______ _____ _____    ______ ____
ROOT
ATOM      1  C   UNL     1       2.415   2.182  18.665  0.00  0.00    +0.000 C 
ENDROOT
BRANCH   1  12
ATOM      2  O   UNL     1       1.205   3.733  21.076  0.00  0.00    +0.000 OA
ATOM      3  C   UNL     1       1.436   4.179  19.965  0.00  0.00    +0.000 C 
ATOM      4  C   UNL     1       1.671   5.595  19.710  0.00  0.00    +0.000 A 
ATOM      5  C   UNL     1       1.641   6.656  20.604  0.00  0.00    +0.000 A 
ATOM      6  C   UNL     1       1.894   7.932  20.103  0.00  0.00    +0.000 A 
ATOM      7  C   UNL     1       2.174   8.103  18.735  0.00  0.00    +0.000 A 
ATOM      8  F   UNL     1       2.429   9.332  18.271  0.00  0.00    +0.000 F 
ATOM      9  C   UNL     1       2.187   7.023  17.849  0.00  0.00    +0.000 A 
ATOM     10  C   UNL     1       1.926   5.758  18.351  0.00  0.00    +0.000 A 
ATOM     11  C   UNL     1       1.897   4.462  17.606  0.00  0.00    +0.000 C 
ATOM     12  C   UNL     1       1.471   3.402  18.654  0.00  0.00    +0.000 C 
ENDBRANCH   1  12
BRANCH   1  13
ATOM     13  C   UNL     1       3.534   2.325  19.710  0.00  0.00    +0.000 C 
BRANCH  13  14
ATOM     14  N   UNL     1       4.801   2.932  19.250  0.00  0.00    +0.000 NA
ATOM     15  C   UNL     1       4.861   4.293  19.830  0.00  0.00    +0.000 C 
ATOM     16  C   UNL     1       6.036   5.091  19.294  0.00  0.00    +0.000 C 
ATOM     17  C   UNL     1       5.730   5.335  17.850  0.00  0.00    +0.000 A 
ATOM     18  C   UNL     1       5.767   6.615  17.291  0.00  0.00    +0.000 A 
ATOM     19  C   UNL     1       5.461   6.789  15.946  0.00  0.00    +0.000 A 
ATOM     20  C   UNL     1       5.185   5.679  15.149  0.00  0.00    +0.000 A 
ATOM     21  C   UNL     1       5.114   4.401  15.716  0.00  0.00    +0.000 A 
ATOM     22  C   UNL     1       5.305   4.230  17.093  0.00  0.00    +0.000 A 
ATOM     23  C   UNL     1       5.017   2.899  17.778  0.00  0.00    +0.000 C 
ENDBRANCH  13  14
ENDBRANCH   1  13
TORSDOF 3
ENDMDL
MODEL 5
REMARK VINA RESULT:      -7.9      4.600      8.219
REMARK  Name = 
REMARK  3 active torsions:
REMARK  status: ('A' for Active; 'I' for Inactive)
REMARK    1  A    between atoms: C_11  and  C_12
REMARK    2  A    between atoms: C_12  and  C_13
REMARK    3  A    between atoms: C_13  and  N_14
REMARK                            x       y       z     vdW  Elec       q    Type
REMARK                         _______ _______ _______ _____ _____    ______ ____
ROOT
ATOM      1  C   UNL     1       1.966   7.129  17.769  0.00  0.00    +0.000 C 
ENDROOT
BRANCH   1  12
ATOM      2  O   UNL     1       1.665  10.227  17.755  0.00  0.00    +0.000 OA
ATOM      3  C   UNL     1       1.587   9.492  18.724  0.00  0.00    +0.000 C 
ATOM      4  C   UNL     1       0.849   9.844  19.932  0.00  0.00    +0.000 A 
ATOM      5  C   UNL     1       0.170  11.018  20.224  0.00  0.00    +0.000 A 
ATOM      6  C   UNL     1      -0.453  11.114  21.466  0.00  0.00    +0.000 A 
ATOM      7  C   UNL     1      -0.384  10.035  22.368  0.00  0.00    +0.000 A 
ATOM      8  F   UNL     1      -1.000  10.136  23.552  0.00  0.00    +0.000 F 
ATOM      9  C   UNL     1       0.316   8.867  22.060  0.00  0.00    +0.000 A 
ATOM     10  C   UNL     1       0.941   8.782  20.826  0.00  0.00    +0.000 A 
ATOM     11  C   UNL     1       1.730   7.638  20.274  0.00  0.00    +0.000 C 
ATOM     12  C   UNL     1       2.257   8.134  18.903  0.00  0.00    +0.000 C 
ENDBRANCH   1  12
BRANCH   1  13
ATOM     13  C   UNL     1       2.105   5.671  18.237  0.00  0.00    +0.000 C 
BRANCH  13  14
ATOM     14  N   UNL     1       3.399   5.007  17.969  0.00  0.00    +0.000 NA
ATOM     15  C   UNL     1       4.008   4.708  19.284  0.00  0.00    +0.000 C 
ATOM     16  C   UNL     1       5.424   4.176  19.150  0.00  0.00    +0.000 C 
ATOM     17  C   UNL     1       6.236   5.325  18.637  0.00  0.00    +0.000 A 
ATOM     18  C   UNL     1       7.414   5.738  19.265  0.00  0.00    +0.000 A 
ATOM     19  C   UNL     1       8.123   6.820  18.756  0.00  0.00    +0.000 A 
ATOM     20  C   UNL     1       7.693   7.442  17.585  0.00  0.00    +0.000 A 
ATOM     21  C   UNL     1       6.494   7.051  16.976  0.00  0.00    +0.000 A 
ATOM     22  C   UNL     1       5.711   6.040  17.547  0.00  0.00    +0.000 A 
ATOM     23  C   UNL     1       4.303   5.742  17.044  0.00  0.00    +0.000 C 
ENDBRANCH  13  14
ENDBRANCH   1  13
TORSDOF 3
ENDMDL
MODEL 6
REMARK VINA RESULT:      -7.7      5.975      8.400
REMARK  Name = 
REMARK  3 active torsions:
REMARK  status: ('A' for Active; 'I' for Inactive)
REMARK    1  A    between atoms: C_11  and  C_12
REMARK    2  A    between atoms: C_12  and  C_13
REMARK    3  A    between atoms: C_13  and  N_14
REMARK                            x       y       z     vdW  Elec       q    Type
REMARK                         _______ _______ _______ _____ _____    ______ ____
ROOT
ATOM      1  C   UNL     1       8.438   8.098  18.622  0.00  0.00    +0.000 C 
ENDROOT
BRANCH   1  12
ATOM      2  O   UNL     1       8.107   5.112  19.436  0.00  0.00    +0.000 OA
ATOM      3  C   UNL     1       7.359   5.761  18.725  0.00  0.00    +0.000 C 
ATOM      4  C   UNL     1       5.948   5.435  18.549  0.00  0.00    +0.000 A 
ATOM      5  C   UNL     1       5.228   4.375  19.081  0.00  0.00    +0.000 A 
ATOM      6  C   UNL     1       3.878   4.279  18.750  0.00  0.00    +0.000 A 
ATOM      7  C   UNL     1       3.294   5.245  17.910  0.00  0.00    +0.000 A 
ATOM      8  F   UNL     1       1.992   5.148  17.613  0.00  0.00    +0.000 F 
ATOM      9  C   UNL     1       4.039   6.298  17.375  0.00  0.00    +0.000 A 
ATOM     10  C   UNL     1       5.383   6.383  17.701  0.00  0.00    +0.000 A 
ATOM     11  C   UNL     1       6.370   7.417  17.263  0.00  0.00    +0.000 C 
ATOM     12  C   UNL     1       7.726   6.961  17.859  0.00  0.00    +0.000 C 
ENDBRANCH   1  12
BRANCH   1  13
ATOM     13  C   UNL     1       8.238   9.464  17.946  0.00  0.00    +0.000 C 
BRANCH  13  14
ATOM     14  N   UNL     1       9.237  10.511  18.251  0.00  0.00    +0.000 NA
ATOM     15  C   UNL     1       9.540  10.405  19.697  0.00  0.00    +0.000 C 
ATOM     16  C   UNL     1      10.430  11.539  20.176  0.00  0.00    +0.000 C 
ATOM     17  C   UNL     1       9.590  12.775  20.080  0.00  0.00    +0.000 A 
ATOM     18  C   UNL     1       9.430  13.647  21.159  0.00  0.00    +0.000 A 
ATOM     19  C   UNL     1       8.628  14.774  21.021  0.00  0.00    +0.000 A 
ATOM     20  C   UNL     1       8.045  15.063  19.788  0.00  0.00    +0.000 A 
ATOM     21  C   UNL     1       8.177  14.172  18.717  0.00  0.00    +0.000 A 
ATOM     22  C   UNL     1       8.886  12.974  18.880  0.00  0.00    +0.000 A 
ATOM     23  C   UNL     1       8.863  11.883  17.816  0.00  0.00    +0.000 C 
ENDBRANCH  13  14
ENDBRANCH   1  13
TORSDOF 3
ENDMDL
MODEL 7
REMARK VINA RESULT:      -7.7      3.739      6.166
REMARK  Name = 
REMARK  3 active torsions:
REMARK  status: ('A' for Active; 'I' for Inactive)
REMARK    1  A    between atoms: C_11  and  C_12
REMARK    2  A    between atoms: C_12  and  C_13
REMARK    3  A    between atoms: C_13  and  N_14
REMARK                            x       y       z     vdW  Elec       q    Type
REMARK                         _______ _______ _______ _____ _____    ______ ____
ROOT
ATOM      1  C   UNL     1       4.586   6.265  18.021  0.00  0.00    +0.000 C 
ENDROOT
BRANCH   1  12
ATOM      2  O   UNL     1       2.495   5.991  20.310  0.00  0.00    +0.000 OA
ATOM      3  C   UNL     1       2.498   6.825  19.422  0.00  0.00    +0.000 C 
ATOM      4  C   UNL     1       1.846   8.124  19.548  0.00  0.00    +0.000 A 
ATOM      5  C   UNL     1       1.109   8.626  20.611  0.00  0.00    +0.000 A 
ATOM      6  C   UNL     1       0.577   9.908  20.481  0.00  0.00    +0.000 A 
ATOM      7  C   UNL     1       0.805  10.643  19.303  0.00  0.00    +0.000 A 
ATOM      8  F   UNL     1       0.299  11.879  19.199  0.00  0.00    +0.000 F 
ATOM      9  C   UNL     1       1.539  10.115  18.240  0.00  0.00    +0.000 A 
ATOM     10  C   UNL     1       2.059   8.837  18.372  0.00  0.00    +0.000 A 
ATOM     11  C   UNL     1       2.880   8.073  17.383  0.00  0.00    +0.000 C 
ATOM     12  C   UNL     1       3.100   6.681  18.028  0.00  0.00    +0.000 C 
ENDBRANCH   1  12
BRANCH   1  13
ATOM     13  C   UNL     1       4.863   5.122  17.030  0.00  0.00    +0.000 C 
BRANCH  13  14
ATOM     14  N   UNL     1       4.353   3.784  17.398  0.00  0.00    +0.000 NA
ATOM     15  C   UNL     1       2.916   3.760  17.042  0.00  0.00    +0.000 C 
ATOM     16  C   UNL     1       2.230   2.495  17.527  0.00  0.00    +0.000 C 
ATOM     17  C   UNL     1       2.224   2.590  19.021  0.00  0.00    +0.000 A 
ATOM     18  C   UNL     1       1.054   2.433  19.767  0.00  0.00    +0.000 A 
ATOM     19  C   UNL     1       1.099   2.544  21.152  0.00  0.00    +0.000 A 
ATOM     20  C   UNL     1       2.323   2.745  21.791  0.00  0.00    +0.000 A 
ATOM     21  C   UNL     1       3.489   2.937  21.042  0.00  0.00    +0.000 A 
ATOM     22  C   UNL     1       3.434   2.943  19.642  0.00  0.00    +0.000 A 
ATOM     23  C   UNL     1       4.631   3.369  18.799  0.00  0.00    +0.000 C 
ENDBRANCH  13  14
ENDBRANCH   1  13
TORSDOF 3
ENDMDL
MODEL 8
REMARK VINA RESULT:      -7.6      2.723      4.611
REMARK  Name = 
REMARK  3 active torsions:
REMARK  status: ('A' for Active; 'I' for Inactive)
REMARK    1  A    between atoms: C_11  and  C_12
REMARK    2  A    between atoms: C_12  and  C_13
REMARK    3  A    between atoms: C_13  and  N_14
REMARK                            x       y       z     vdW  Elec       q    Type
REMARK                         _______ _______ _______ _____ _____    ______ ____
ROOT
ATOM      1  C   UNL     1       2.717   3.204  18.092  0.00  0.00    +0.000 C 
ENDROOT
BRANCH   1  12
ATOM      2  O   UNL     1       4.371   3.930  15.558  0.00  0.00    +0.000 OA
ATOM      3  C   UNL     1       4.737   4.019  16.717  0.00  0.00    +0.000 C 
ATOM      4  C   UNL     1       5.785   4.936  17.152  0.00  0.00    +0.000 A 
ATOM      5  C   UNL     1       6.554   5.802  16.388  0.00  0.00    +0.000 A 
ATOM      6  C   UNL     1       7.507   6.574  17.048  0.00  0.00    +0.000 A 
ATOM      7  C   UNL     1       7.655   6.462  18.443  0.00  0.00    +0.000 A 
ATOM      8  F   UNL     1       8.565   7.221  19.065  0.00  0.00    +0.000 F 
ATOM      9  C   UNL     1       6.879   5.574  19.192  0.00  0.00    +0.000 A 
ATOM     10  C   UNL     1       5.939   4.803  18.529  0.00  0.00    +0.000 A 
ATOM     11  C   UNL     1       4.995   3.802  19.114  0.00  0.00    +0.000 C 
ATOM     12  C   UNL     1       4.248   3.191  17.900  0.00  0.00    +0.000 C 
ENDBRANCH   1  12
BRANCH   1  13
ATOM     13  C   UNL     1       2.118   4.604  17.882  0.00  0.00    +0.000 C 
BRANCH  13  14
ATOM     14  N   UNL     1       2.595   5.675  18.784  0.00  0.00    +0.000 NA
ATOM     15  C   UNL     1       1.635   5.746  19.909  0.00  0.00    +0.000 C 
ATOM     16  C   UNL     1       1.916   6.925  20.824  0.00  0.00    +0.000 C 
ATOM     17  C   UNL     1       1.603   8.144  20.013  0.00  0.00    +0.000 A 
ATOM     18  C   UNL     1       0.746   9.144  20.480  0.00  0.00    +0.000 A 
ATOM     19  C   UNL     1       0.478  10.250  19.682  0.00  0.00    +0.000 A 
ATOM     20  C   UNL     1       1.119  10.389  18.452  0.00  0.00    +0.000 A 
ATOM     21  C   UNL     1       1.951   9.371  17.969  0.00  0.00    +0.000 A 
ATOM     22  C   UNL     1       2.135   8.199  18.714  0.00  0.00    +0.000 A 
ATOM     23  C   UNL     1       2.846   6.986  18.127  0.00  0.00    +0.000 C 
ENDBRANCH  13  14
ENDBRANCH   1  13
TORSDOF 3
ENDMDL
MODEL 9
REMARK VINA RESULT:      -7.5      4.275      6.834
REMARK  Name = 
REMARK  3 active torsions:
REMARK  status: ('A' for Active; 'I' for Inactive)
REMARK    1  A    between atoms: C_11  and  C_12
REMARK    2  A    between atoms: C_12  and  C_13
REMARK    3  A    between atoms: C_13  and  N_14
REMARK                            x       y       z     vdW  Elec       q    Type
REMARK                         _______ _______ _______ _____ _____    ______ ____
ROOT
ATOM      1  C   UNL     1       3.224   6.755  17.144  0.00  0.00    +0.000 C 
ENDROOT
BRANCH   1  12
ATOM      2  O   UNL     1       2.259   9.713  17.216  0.00  0.00    +0.000 OA
ATOM      3  C   UNL     1       2.249   8.921  18.142  0.00  0.00    +0.000 C 
ATOM      4  C   UNL     1       1.340   9.035  19.277  0.00  0.00    +0.000 A 
ATOM      5  C   UNL     1       0.397  10.018  19.539  0.00  0.00    +0.000 A 
ATOM      6  C   UNL     1      -0.349   9.903  20.711  0.00  0.00    +0.000 A 
ATOM      7  C   UNL     1      -0.133   8.812  21.573  0.00  0.00    +0.000 A 
ATOM      8  F   UNL     1      -0.868   8.708  22.688  0.00  0.00    +0.000 F 
ATOM      9  C   UNL     1       0.831   7.840  21.297  0.00  0.00    +0.000 A 
ATOM     10  C   UNL     1       1.575   7.964  20.135  0.00  0.00    +0.000 A 
ATOM     11  C   UNL     1       2.644   7.050  19.627  0.00  0.00    +0.000 C 
ATOM     12  C   UNL     1       3.179   7.729  18.340  0.00  0.00    +0.000 C 
ENDBRANCH   1  12
BRANCH   1  13
ATOM     13  C   UNL     1       4.466   5.850  17.179  0.00  0.00    +0.000 C 
BRANCH  13  14
ATOM     14  N   UNL     1       4.254   4.444  17.587  0.00  0.00    +0.000 NA
ATOM     15  C   UNL     1       2.925   4.044  17.073  0.00  0.00    +0.000 C 
ATOM     16  C   UNL     1       2.511   2.671  17.571  0.00  0.00    +0.000 C 
ATOM     17  C   UNL     1       2.289   2.829  19.043  0.00  0.00    +0.000 A 
ATOM     18  C   UNL     1       1.106   2.417  19.662  0.00  0.00    +0.000 A 
ATOM     19  C   UNL     1       0.945   2.599  21.031  0.00  0.00    +0.000 A 
ATOM     20  C   UNL     1       1.990   3.128  21.788  0.00  0.00    +0.000 A 
ATOM     21  C   UNL     1       3.161   3.573  21.163  0.00  0.00    +0.000 A 
ATOM     22  C   UNL     1       3.286   3.502  19.769  0.00  0.00    +0.000 A 
ATOM     23  C   UNL     1       4.442   4.175  19.038  0.00  0.00    +0.000 C 
ENDBRANCH  13  14
ENDBRANCH   1  13
TORSDOF 3
ENDMDL
