MODEL 1
REMARK VINA RESULT:      -6.8      0.000      0.000
REMARK  Name = 
REMARK  10 active torsions:
REMARK  status: ('A' for Active; 'I' for Inactive)
REMARK    1  A    between atoms: C_1  and  C_2
REMARK    2  A    between atoms: C_2  and  C_3
REMARK    3  A    between atoms: C_2  and  N_4
REMARK    4  A    between atoms: C_5  and  C_7
REMARK    5  A    between atoms: C_7  and  N_8
REMARK    6  A    between atoms: N_8  and  C_9
REMARK    7  A    between atoms: N_8  and  C_10
REMARK    8  A    between atoms: C_10  and  C_11
REMARK    9  A    between atoms: N_13  and  C_14
REMARK   10  A    between atoms: C_14  and  C_15
REMARK                            x       y       z     vdW  Elec       q    Type
REMARK                         _______ _______ _______ _____ _____    ______ ____
ROOT
ATOM      1  C   UNL     1       5.023   5.183  16.609  0.00  0.00    +0.000 C 
ENDROOT
BRANCH   1   2
ATOM      2  C   UNL     1       4.250   4.073  17.343  0.00  0.00    +0.000 C 
ATOM      3  O   UNL     1       4.178   2.928  16.909  0.00  0.00    +0.000 OA
ATOM      4  N   UNL     1       3.712   4.453  18.554  0.00  0.00    +0.000 N 
ATOM      5  H   UNL     1       3.733   5.435  18.807  0.00  0.00    +0.000 HD
BRANCH   4   6
ATOM      6  C   UNL     1       3.092   3.522  19.509  0.00  0.00    +0.000 C 
ATOM      7  C   UNL     1       1.943   2.689  18.874  0.00  0.00    +0.000 C 
ATOM      8  C   UNL     1       0.692   2.998  19.696  0.00  0.00    +0.000 C 
ATOM      9  C   UNL     1       1.226   3.406  21.057  0.00  0.00    +0.000 C 
ATOM     10  C   UNL     1       2.447   4.249  20.710  0.00  0.00    +0.000 C 
BRANCH   6  11
ATOM     11  C   UNL     1       4.139   2.590  20.016  0.00  0.00    +0.000 C 
ATOM     12  N   UNL     1       4.962   1.850  20.370  0.00  0.00    +0.000 NA
ENDBRANCH   6  11
ENDBRANCH   4   6
ENDBRANCH   1   2
BRANCH   1  13
ATOM     13  N   UNL     1       6.473   5.219  16.940  0.00  0.00    +0.000 NA
ATOM     14  C   UNL     1       6.994   6.589  16.822  0.00  0.00    +0.000 C 
BRANCH  13  15
ATOM     15  C   UNL     1       7.241   4.269  16.095  0.00  0.00    +0.000 C 
BRANCH  15  17
ATOM     16  N   UNL     1       6.299   3.668  13.914  0.00  0.00    +0.000 N 
ATOM     17  C   UNL     1       7.101   4.555  14.596  0.00  0.00    +0.000 C 
ATOM     18  O   UNL     1       7.621   5.540  14.074  0.00  0.00    +0.000 OA
ATOM     19  H   UNL     1       6.079   2.811  14.418  0.00  0.00    +0.000 HD
BRANCH  16  21
ATOM     20  C   UNL     1       7.150   2.826  11.763  0.00  0.00    +0.000 C 
ATOM     21  C   UNL     1       6.133   3.720  12.471  0.00  0.00    +0.000 C 
ATOM     22  C   UNL     1       4.711   3.323  12.099  0.00  0.00    +0.000 C 
ENDBRANCH  16  21
ENDBRANCH  15  17
ENDBRANCH  13  15
ENDBRANCH   1  13
TORSDOF 7
ENDMDL
MODEL 2
REMARK VINA RESULT:      -6.7      1.280      1.494
REMARK  Name = 
REMARK  10 active torsions:
REMARK  status: ('A' for Active; 'I' for Inactive)
REMARK    1  A    between atoms: C_1  and  C_2
REMARK    2  A    between atoms: C_2  and  C_3
REMARK    3  A    between atoms: C_2  and  N_4
REMARK    4  A    between atoms: C_5  and  C_7
REMARK    5  A    between atoms: C_7  and  N_8
REMARK    6  A    between atoms: N_8  and  C_9
REMARK    7  A    between atoms: N_8  and  C_10
REMARK    8  A    between atoms: C_10  and  C_11
REMARK    9  A    between atoms: N_13  and  C_14
REMARK   10  A    between atoms: C_14  and  C_15
REMARK                            x       y       z     vdW  Elec       q    Type
REMARK                         _______ _______ _______ _____ _____    ______ ____
ROOT
ATOM      1  C   UNL     1       6.341   5.393  17.619  0.00  0.00    +0.000 C 
ENDROOT
BRANCH   1   2
ATOM      2  C   UNL     1       5.080   4.716  18.186  0.00  0.00    +0.000 C 
ATOM      3  O   UNL     1       3.949   5.071  17.871  0.00  0.00    +0.000 OA
ATOM      4  N   UNL     1       5.329   3.641  19.012  0.00  0.00    +0.000 N 
ATOM      5  H   UNL     1       6.285   3.461  19.299  0.00  0.00    +0.000 HD
BRANCH   4   6
ATOM      6  C   UNL     1       4.287   2.735  19.521  0.00  0.00    +0.000 C 
ATOM      7  C   UNL     1       3.678   1.836  18.409  0.00  0.00    +0.000 C 
ATOM      8  C   UNL     1       2.181   2.142  18.390  0.00  0.00    +0.000 C 
ATOM      9  C   UNL     1       1.878   2.630  19.795  0.00  0.00    +0.000 C 
ATOM     10  C   UNL     1       3.087   3.496  20.128  0.00  0.00    +0.000 C 
BRANCH   6  11
ATOM     11  C   UNL     1       4.885   1.863  20.572  0.00  0.00    +0.000 C 
ATOM     12  N   UNL     1       5.319   1.154  21.384  0.00  0.00    +0.000 NA
ENDBRANCH   6  11
ENDBRANCH   4   6
ENDBRANCH   1   2
BRANCH   1  13
ATOM     13  N   UNL     1       6.357   5.474  16.134  0.00  0.00    +0.000 NA
ATOM     14  C   UNL     1       5.241   6.303  15.651  0.00  0.00    +0.000 C 
BRANCH  13  15
ATOM     15  C   UNL     1       6.334   4.121  15.521  0.00  0.00    +0.000 C 
BRANCH  15  17
ATOM     16  N   UNL     1       5.546   3.324  13.342  0.00  0.00    +0.000 N 
ATOM     17  C   UNL     1       6.431   4.156  13.992  0.00  0.00    +0.000 C 
ATOM     18  O   UNL     1       7.200   4.917  13.409  0.00  0.00    +0.000 OA
ATOM     19  H   UNL     1       5.096   2.628  13.932  0.00  0.00    +0.000 HD
BRANCH  16  21
ATOM     20  C   UNL     1       6.169   1.800  11.512  0.00  0.00    +0.000 C 
ATOM     21  C   UNL     1       5.562   3.148  11.899  0.00  0.00    +0.000 C 
ATOM     22  C   UNL     1       4.150   3.285  11.345  0.00  0.00    +0.000 C 
ENDBRANCH  16  21
ENDBRANCH  15  17
ENDBRANCH  13  15
ENDBRANCH   1  13
TORSDOF 7
ENDMDL
MODEL 3
REMARK VINA RESULT:      -6.5      1.455      1.705
REMARK  Name = 
REMARK  10 active torsions:
REMARK  status: ('A' for Active; 'I' for Inactive)
REMARK    1  A    between atoms: C_1  and  C_2
REMARK    2  A    between atoms: C_2  and  C_3
REMARK    3  A    between atoms: C_2  and  N_4
REMARK    4  A    between atoms: C_5  and  C_7
REMARK    5  A    between atoms: C_7  and  N_8
REMARK    6  A    between atoms: N_8  and  C_9
REMARK    7  A    between atoms: N_8  and  C_10
REMARK    8  A    between atoms: C_10  and  C_11
REMARK    9  A    between atoms: N_13  and  C_14
REMARK   10  A    between atoms: C_14  and  C_15
REMARK                            x       y       z     vdW  Elec       q    Type
REMARK                         _______ _______ _______ _____ _____    ______ ____
ROOT
ATOM      1  C   UNL     1       6.826   4.990  17.508  0.00  0.00    +0.000 C 
ENDROOT
BRANCH   1   2
ATOM      2  C   UNL     1       5.930   4.435  18.630  0.00  0.00    +0.000 C 
ATOM      3  O   UNL     1       5.992   4.848  19.783  0.00  0.00    +0.000 OA
ATOM      4  N   UNL     1       5.009   3.496  18.216  0.00  0.00    +0.000 N 
ATOM      5  H   UNL     1       5.074   3.138  17.269  0.00  0.00    +0.000 HD
BRANCH   4   6
ATOM      6  C   UNL     1       3.935   2.963  19.069  0.00  0.00    +0.000 C 
ATOM      7  C   UNL     1       2.986   1.997  18.306  0.00  0.00    +0.000 C 
ATOM      8  C   UNL     1       1.587   2.604  18.416  0.00  0.00    +0.000 C 
ATOM      9  C   UNL     1       1.636   3.435  19.685  0.00  0.00    +0.000 C 
ATOM     10  C   UNL     1       3.018   4.075  19.627  0.00  0.00    +0.000 C 
BRANCH   6  11
ATOM     11  C   UNL     1       4.552   2.229  20.211  0.00  0.00    +0.000 C 
ATOM     12  N   UNL     1       5.053   1.632  21.072  0.00  0.00    +0.000 NA
ENDBRANCH   6  11
ENDBRANCH   4   6
ENDBRANCH   1   2
BRANCH   1  13
ATOM     13  N   UNL     1       6.177   6.058  16.700  0.00  0.00    +0.000 NA
ATOM     14  C   UNL     1       5.295   6.878  17.545  0.00  0.00    +0.000 C 
BRANCH  13  15
ATOM     15  C   UNL     1       5.443   5.485  15.543  0.00  0.00    +0.000 C 
BRANCH  15  17
ATOM     16  N   UNL     1       5.758   4.094  13.550  0.00  0.00    +0.000 N 
ATOM     17  C   UNL     1       6.374   4.918  14.467  0.00  0.00    +0.000 C 
ATOM     18  O   UNL     1       7.561   5.233  14.405  0.00  0.00    +0.000 OA
ATOM     19  H   UNL     1       4.828   3.777  13.813  0.00  0.00    +0.000 HD
BRANCH  16  21
ATOM     20  C   UNL     1       5.584   2.471  11.708  0.00  0.00    +0.000 C 
ATOM     21  C   UNL     1       6.500   3.384  12.522  0.00  0.00    +0.000 C 
ATOM     22  C   UNL     1       7.213   4.381  11.618  0.00  0.00    +0.000 C 
ENDBRANCH  16  21
ENDBRANCH  15  17
ENDBRANCH  13  15
ENDBRANCH   1  13
TORSDOF 7
ENDMDL
MODEL 4
REMARK VINA RESULT:      -6.5      1.270      1.799
REMARK  Name = 
REMARK  10 active torsions:
REMARK  status: ('A' for Active; 'I' for Inactive)
REMARK    1  A    between atoms: C_1  and  C_2
REMARK    2  A    between atoms: C_2  and  C_3
REMARK    3  A    between atoms: C_2  and  N_4
REMARK    4  A    between atoms: C_5  and  C_7
REMARK    5  A    between atoms: C_7  and  N_8
REMARK    6  A    between atoms: N_8  and  C_9
REMARK    7  A    between atoms: N_8  and  C_10
REMARK    8  A    between atoms: C_10  and  C_11
REMARK    9  A    between atoms: N_13  and  C_14
REMARK   10  A    between atoms: C_14  and  C_15
REMARK                            x       y       z     vdW  Elec       q    Type
REMARK                         _______ _______ _______ _____ _____    ______ ____
ROOT
ATOM      1  C   UNL     1       4.587   4.180  16.338  0.00  0.00    +0.000 C 
ENDROOT
BRANCH   1   2
ATOM      2  C   UNL     1       3.787   3.348  17.355  0.00  0.00    +0.000 C 
ATOM      3  O   UNL     1       3.970   2.145  17.506  0.00  0.00    +0.000 OA
ATOM      4  N   UNL     1       2.907   4.077  18.127  0.00  0.00    +0.000 N 
ATOM      5  H   UNL     1       2.742   5.049  17.887  0.00  0.00    +0.000 HD
BRANCH   4   6
ATOM      6  C   UNL     1       2.173   3.531  19.279  0.00  0.00    +0.000 C 
ATOM      7  C   UNL     1       1.593   4.639  20.202  0.00  0.00    +0.000 C 
ATOM      8  C   UNL     1       2.204   4.402  21.583  0.00  0.00    +0.000 C 
ATOM      9  C   UNL     1       2.534   2.920  21.600  0.00  0.00    +0.000 C 
ATOM     10  C   UNL     1       3.071   2.669  20.196  0.00  0.00    +0.000 C 
BRANCH   6  11
ATOM     11  C   UNL     1       1.051   2.689  18.775  0.00  0.00    +0.000 C 
ATOM     12  N   UNL     1       0.199   2.026  18.345  0.00  0.00    +0.000 NA
ENDBRANCH   6  11
ENDBRANCH   4   6
ENDBRANCH   1   2
BRANCH   1  13
ATOM     13  N   UNL     1       5.891   4.669  16.861  0.00  0.00    +0.000 NA
ATOM     14  C   UNL     1       5.879   6.135  16.984  0.00  0.00    +0.000 C 
BRANCH  13  15
ATOM     15  C   UNL     1       7.019   4.203  16.015  0.00  0.00    +0.000 C 
BRANCH  15  17
ATOM     16  N   UNL     1       6.318   3.449  13.791  0.00  0.00    +0.000 N 
ATOM     17  C   UNL     1       6.813   4.503  14.526  0.00  0.00    +0.000 C 
ATOM     18  O   UNL     1       7.021   5.620  14.057  0.00  0.00    +0.000 OA
ATOM     19  H   UNL     1       6.358   2.544  14.254  0.00  0.00    +0.000 HD
BRANCH  16  21
ATOM     20  C   UNL     1       6.958   2.419  11.649  0.00  0.00    +0.000 C 
ATOM     21  C   UNL     1       6.157   3.516  12.348  0.00  0.00    +0.000 C 
ATOM     22  C   UNL     1       4.680   3.422  11.988  0.00  0.00    +0.000 C 
ENDBRANCH  16  21
ENDBRANCH  15  17
ENDBRANCH  13  15
ENDBRANCH   1  13
TORSDOF 7
ENDMDL
MODEL 5
REMARK VINA RESULT:      -6.4      2.875      7.131
REMARK  Name = 
REMARK  10 active torsions:
REMARK  status: ('A' for Active; 'I' for Inactive)
REMARK    1  A    between atoms: C_1  and  C_2
REMARK    2  A    between atoms: C_2  and  C_3
REMARK    3  A    between atoms: C_2  and  N_4
REMARK    4  A    between atoms: C_5  and  C_7
REMARK    5  A    between atoms: C_7  and  N_8
REMARK    6  A    between atoms: N_8  and  C_9
REMARK    7  A    between atoms: N_8  and  C_10
REMARK    8  A    between atoms: C_10  and  C_11
REMARK    9  A    between atoms: N_13  and  C_14
REMARK   10  A    between atoms: C_14  and  C_15
REMARK                            x       y       z     vdW  Elec       q    Type
REMARK                         _______ _______ _______ _____ _____    ______ ____
ROOT
ATOM      1  C   UNL     1       2.226   3.220  18.994  0.00  0.00    +0.000 C 
ENDROOT
BRANCH   1   2
ATOM      2  C   UNL     1       3.366   3.666  18.061  0.00  0.00    +0.000 C 
ATOM      3  O   UNL     1       3.318   3.507  16.846  0.00  0.00    +0.000 OA
ATOM      4  N   UNL     1       4.402   4.319  18.694  0.00  0.00    +0.000 N 
ATOM      5  H   UNL     1       4.417   4.336  19.708  0.00  0.00    +0.000 HD
BRANCH   4   6
ATOM      6  C   UNL     1       5.505   4.991  17.989  0.00  0.00    +0.000 C 
ATOM      7  C   UNL     1       5.063   6.313  17.302  0.00  0.00    +0.000 C 
ATOM      8  C   UNL     1       5.371   6.141  15.815  0.00  0.00    +0.000 C 
ATOM      9  C   UNL     1       6.498   5.125  15.779  0.00  0.00    +0.000 C 
ATOM     10  C   UNL     1       6.096   4.123  16.855  0.00  0.00    +0.000 C 
BRANCH   6  11
ATOM     11  C   UNL     1       6.583   5.297  18.972  0.00  0.00    +0.000 C 
ATOM     12  N   UNL     1       7.404   5.573  19.748  0.00  0.00    +0.000 NA
ENDBRANCH   6  11
ENDBRANCH   4   6
ENDBRANCH   1   2
BRANCH   1  13
ATOM     13  N   UNL     1       2.317   3.794  20.363  0.00  0.00    +0.000 NA
ATOM     14  C   UNL     1       2.253   2.727  21.374  0.00  0.00    +0.000 C 
BRANCH  13  15
ATOM     15  C   UNL     1       1.265   4.819  20.588  0.00  0.00    +0.000 C 
BRANCH  15  17
ATOM     16  N   UNL     1       1.112   7.171  21.259  0.00  0.00    +0.000 N 
ATOM     17  C   UNL     1       1.798   6.252  20.495  0.00  0.00    +0.000 C 
ATOM     18  O   UNL     1       2.798   6.530  19.836  0.00  0.00    +0.000 OA
ATOM     19  H   UNL     1       0.212   6.852  21.611  0.00  0.00    +0.000 HD
BRANCH  16  21
ATOM     20  C   UNL     1       0.732   9.267  20.024  0.00  0.00    +0.000 C 
ATOM     21  C   UNL     1       1.409   8.593  21.217  0.00  0.00    +0.000 C 
ATOM     22  C   UNL     1       0.983   9.249  22.524  0.00  0.00    +0.000 C 
ENDBRANCH  16  21
ENDBRANCH  15  17
ENDBRANCH  13  15
ENDBRANCH   1  13
TORSDOF 7
ENDMDL
MODEL 6
REMARK VINA RESULT:      -6.4      1.365      2.001
REMARK  Name = 
REMARK  10 active torsions:
REMARK  status: ('A' for Active; 'I' for Inactive)
REMARK    1  A    between atoms: C_1  and  C_2
REMARK    2  A    between atoms: C_2  and  C_3
REMARK    3  A    between atoms: C_2  and  N_4
REMARK    4  A    between atoms: C_5  and  C_7
REMARK    5  A    between atoms: C_7  and  N_8
REMARK    6  A    between atoms: N_8  and  C_9
REMARK    7  A    between atoms: N_8  and  C_10
REMARK    8  A    between atoms: C_10  and  C_11
REMARK    9  A    between atoms: N_13  and  C_14
REMARK   10  A    between atoms: C_14  and  C_15
REMARK                            x       y       z     vdW  Elec       q    Type
REMARK                         _______ _______ _______ _____ _____    ______ ____
ROOT
ATOM      1  C   UNL     1       5.227   3.982  16.766  0.00  0.00    +0.000 C 
ENDROOT
BRANCH   1   2
ATOM      2  C   UNL     1       4.681   4.202  18.188  0.00  0.00    +0.000 C 
ATOM      3  O   UNL     1       5.342   4.746  19.067  0.00  0.00    +0.000 OA
ATOM      4  N   UNL     1       3.372   3.806  18.368  0.00  0.00    +0.000 N 
ATOM      5  H   UNL     1       2.918   3.284  17.626  0.00  0.00    +0.000 HD
BRANCH   4   6
ATOM      6  C   UNL     1       2.587   4.082  19.581  0.00  0.00    +0.000 C 
ATOM      7  C   UNL     1       3.255   3.522  20.868  0.00  0.00    +0.000 C 
ATOM      8  C   UNL     1       2.244   2.555  21.483  0.00  0.00    +0.000 C 
ATOM      9  C   UNL     1       0.898   3.048  20.984  0.00  0.00    +0.000 C 
ATOM     10  C   UNL     1       1.185   3.432  19.537  0.00  0.00    +0.000 C 
BRANCH   6  11
ATOM     11  C   UNL     1       2.430   5.557  19.722  0.00  0.00    +0.000 C 
ATOM     12  N   UNL     1       2.269   6.705  19.815  0.00  0.00    +0.000 NA
ENDBRANCH   6  11
ENDBRANCH   4   6
ENDBRANCH   1   2
BRANCH   1  13
ATOM     13  N   UNL     1       6.076   5.101  16.274  0.00  0.00    +0.000 NA
ATOM     14  C   UNL     1       5.282   6.024  15.448  0.00  0.00    +0.000 C 
BRANCH  13  15
ATOM     15  C   UNL     1       7.261   4.592  15.537  0.00  0.00    +0.000 C 
BRANCH  15  17
ATOM     16  N   UNL     1       6.283   3.619  13.511  0.00  0.00    +0.000 N 
ATOM     17  C   UNL     1       7.078   4.625  14.016  0.00  0.00    +0.000 C 
ATOM     18  O   UNL     1       7.559   5.521  13.325  0.00  0.00    +0.000 OA
ATOM     19  H   UNL     1       6.097   2.853  14.155  0.00  0.00    +0.000 HD
BRANCH  16  21
ATOM     20  C   UNL     1       6.810   2.184  11.582  0.00  0.00    +0.000 C 
ATOM     21  C   UNL     1       6.082   3.430  12.085  0.00  0.00    +0.000 C 
ATOM     22  C   UNL     1       4.592   3.348  11.779  0.00  0.00    +0.000 C 
ENDBRANCH  16  21
ENDBRANCH  15  17
ENDBRANCH  13  15
ENDBRANCH   1  13
TORSDOF 7
ENDMDL
MODEL 7
REMARK VINA RESULT:      -6.4      1.586      1.976
REMARK  Name = 
REMARK  10 active torsions:
REMARK  status: ('A' for Active; 'I' for Inactive)
REMARK    1  A    between atoms: C_1  and  C_2
REMARK    2  A    between atoms: C_2  and  C_3
REMARK    3  A    between atoms: C_2  and  N_4
REMARK    4  A    between atoms: C_5  and  C_7
REMARK    5  A    between atoms: C_7  and  N_8
REMARK    6  A    between atoms: N_8  and  C_9
REMARK    7  A    between atoms: N_8  and  C_10
REMARK    8  A    between atoms: C_10  and  C_11
REMARK    9  A    between atoms: N_13  and  C_14
REMARK   10  A    between atoms: C_14  and  C_15
REMARK                            x       y       z     vdW  Elec       q    Type
REMARK                         _______ _______ _______ _____ _____    ______ ____
ROOT
ATOM      1  C   UNL     1       5.749   5.895  18.971  0.00  0.00    +0.000 C 
ENDROOT
BRANCH   1   2
ATOM      2  C   UNL     1       4.991   4.568  19.153  0.00  0.00    +0.000 C 
ATOM      3  O   UNL     1       5.570   3.506  19.356  0.00  0.00    +0.000 OA
ATOM      4  N   UNL     1       3.618   4.685  19.140  0.00  0.00    +0.000 N 
ATOM      5  H   UNL     1       3.210   5.576  18.878  0.00  0.00    +0.000 HD
BRANCH   4   6
ATOM      6  C   UNL     1       2.694   3.589  19.473  0.00  0.00    +0.000 C 
ATOM      7  C   UNL     1       3.058   2.259  18.756  0.00  0.00    +0.000 C 
ATOM      8  C   UNL     1       1.834   1.877  17.925  0.00  0.00    +0.000 C 
ATOM      9  C   UNL     1       0.670   2.538  18.642  0.00  0.00    +0.000 C 
ATOM     10  C   UNL     1       1.240   3.892  19.048  0.00  0.00    +0.000 C 
BRANCH   6  11
ATOM     11  C   UNL     1       2.729   3.367  20.947  0.00  0.00    +0.000 C 
ATOM     12  N   UNL     1       2.719   3.215  22.099  0.00  0.00    +0.000 NA
ENDBRANCH   6  11
ENDBRANCH   4   6
ENDBRANCH   1   2
BRANCH   1  13
ATOM     13  N   UNL     1       6.670   5.901  17.803  0.00  0.00    +0.000 NA
ATOM     14  C   UNL     1       7.500   7.115  17.808  0.00  0.00    +0.000 C 
BRANCH  13  15
ATOM     15  C   UNL     1       5.922   5.758  16.527  0.00  0.00    +0.000 C 
BRANCH  15  17
ATOM     16  N   UNL     1       6.001   4.752  14.294  0.00  0.00    +0.000 N 
ATOM     17  C   UNL     1       6.665   4.908  15.491  0.00  0.00    +0.000 C 
ATOM     18  O   UNL     1       7.790   4.461  15.706  0.00  0.00    +0.000 OA
ATOM     19  H   UNL     1       5.019   5.016  14.309  0.00  0.00    +0.000 HD
BRANCH  16  21
ATOM     20  C   UNL     1       5.360   3.207  12.488  0.00  0.00    +0.000 C 
ATOM     21  C   UNL     1       6.503   3.895  13.234  0.00  0.00    +0.000 C 
ATOM     22  C   UNL     1       7.363   4.708  12.275  0.00  0.00    +0.000 C 
ENDBRANCH  16  21
ENDBRANCH  15  17
ENDBRANCH  13  15
ENDBRANCH   1  13
TORSDOF 7
ENDMDL
MODEL 8
REMARK VINA RESULT:      -6.3      2.728      7.106
REMARK  Name = 
REMARK  10 active torsions:
REMARK  status: ('A' for Active; 'I' for Inactive)
REMARK    1  A    between atoms: C_1  and  C_2
REMARK    2  A    between atoms: C_2  and  C_3
REMARK    3  A    between atoms: C_2  and  N_4
REMARK    4  A    between atoms: C_5  and  C_7
REMARK    5  A    between atoms: C_7  and  N_8
REMARK    6  A    between atoms: N_8  and  C_9
REMARK    7  A    between atoms: N_8  and  C_10
REMARK    8  A    between atoms: C_10  and  C_11
REMARK    9  A    between atoms: N_13  and  C_14
REMARK   10  A    between atoms: C_14  and  C_15
REMARK                            x       y       z     vdW  Elec       q    Type
REMARK                         _______ _______ _______ _____ _____    ______ ____
ROOT
ATOM      1  C   UNL     1       3.201   3.001  19.341  0.00  0.00    +0.000 C 
ENDROOT
BRANCH   1   2
ATOM      2  C   UNL     1       3.966   3.696  18.201  0.00  0.00    +0.000 C 
ATOM      3  O   UNL     1       3.425   4.012  17.146  0.00  0.00    +0.000 OA
ATOM      4  N   UNL     1       5.280   3.997  18.492  0.00  0.00    +0.000 N 
ATOM      5  H   UNL     1       5.684   3.627  19.346  0.00  0.00    +0.000 HD
BRANCH   4   6
ATOM      6  C   UNL     1       6.148   4.816  17.632  0.00  0.00    +0.000 C 
ATOM      7  C   UNL     1       7.586   4.968  18.201  0.00  0.00    +0.000 C 
ATOM      8  C   UNL     1       7.814   6.469  18.381  0.00  0.00    +0.000 C 
ATOM      9  C   UNL     1       6.881   7.115  17.372  0.00  0.00    +0.000 C 
ATOM     10  C   UNL     1       5.623   6.261  17.468  0.00  0.00    +0.000 C 
BRANCH   6  11
ATOM     11  C   UNL     1       6.227   4.177  16.287  0.00  0.00    +0.000 C 
ATOM     12  N   UNL     1       6.303   3.717  15.223  0.00  0.00    +0.000 NA
ENDBRANCH   6  11
ENDBRANCH   4   6
ENDBRANCH   1   2
BRANCH   1  13
ATOM     13  N   UNL     1       2.802   3.922  20.439  0.00  0.00    +0.000 NA
ATOM     14  C   UNL     1       2.423   3.158  21.638  0.00  0.00    +0.000 C 
BRANCH  13  15
ATOM     15  C   UNL     1       1.711   4.833  20.008  0.00  0.00    +0.000 C 
BRANCH  15  17
ATOM     16  N   UNL     1       1.403   7.092  20.908  0.00  0.00    +0.000 N 
ATOM     17  C   UNL     1       2.122   6.309  20.031  0.00  0.00    +0.000 C 
ATOM     18  O   UNL     1       3.062   6.731  19.360  0.00  0.00    +0.000 OA
ATOM     19  H   UNL     1       0.551   6.667  21.265  0.00  0.00    +0.000 HD
BRANCH  16  21
ATOM     20  C   UNL     1       0.820   9.250  19.878  0.00  0.00    +0.000 C 
ATOM     21  C   UNL     1       1.583   8.531  20.991  0.00  0.00    +0.000 C 
ATOM     22  C   UNL     1       1.140   9.030  22.360  0.00  0.00    +0.000 C 
ENDBRANCH  16  21
ENDBRANCH  15  17
ENDBRANCH  13  15
ENDBRANCH   1  13
TORSDOF 7
ENDMDL
MODEL 9
REMARK VINA RESULT:      -6.3      2.536      6.886
REMARK  Name = 
REMARK  10 active torsions:
REMARK  status: ('A' for Active; 'I' for Inactive)
REMARK    1  A    between atoms: C_1  and  C_2
REMARK    2  A    between atoms: C_2  and  C_3
REMARK    3  A    between atoms: C_2  and  N_4
REMARK    4  A    between atoms: C_5  and  C_7
REMARK    5  A    between atoms: C_7  and  N_8
REMARK    6  A    between atoms: N_8  and  C_9
REMARK    7  A    between atoms: N_8  and  C_10
REMARK    8  A    between atoms: C_10  and  C_11
REMARK    9  A    between atoms: N_13  and  C_14
REMARK   10  A    between atoms: C_14  and  C_15
REMARK                            x       y       z     vdW  Elec       q    Type
REMARK                         _______ _______ _______ _____ _____    ______ ____
ROOT
ATOM      1  C   UNL     1       4.413   2.521  19.853  0.00  0.00    +0.000 C 
ENDROOT
BRANCH   1   2
ATOM      2  C   UNL     1       4.965   3.799  19.197  0.00  0.00    +0.000 C 
ATOM      3  O   UNL     1       5.065   4.859  19.808  0.00  0.00    +0.000 OA
ATOM      4  N   UNL     1       5.401   3.636  17.899  0.00  0.00    +0.000 N 
ATOM      5  H   UNL     1       5.205   2.759  17.429  0.00  0.00    +0.000 HD
BRANCH   4   6
ATOM      6  C   UNL     1       6.127   4.665  17.139  0.00  0.00    +0.000 C 
ATOM      7  C   UNL     1       7.560   4.917  17.687  0.00  0.00    +0.000 C 
ATOM      8  C   UNL     1       7.614   6.396  18.066  0.00  0.00    +0.000 C 
ATOM      9  C   UNL     1       6.569   7.051  17.180  0.00  0.00    +0.000 C 
ATOM     10  C   UNL     1       5.427   6.041  17.189  0.00  0.00    +0.000 C 
BRANCH   6  11
ATOM     11  C   UNL     1       6.226   4.227  15.717  0.00  0.00    +0.000 C 
ATOM     12  N   UNL     1       6.292   3.845  14.621  0.00  0.00    +0.000 NA
ENDBRANCH   6  11
ENDBRANCH   4   6
ENDBRANCH   1   2
BRANCH   1  13
ATOM     13  N   UNL     1       2.940   2.544  20.058  0.00  0.00    +0.000 NA
ATOM     14  C   UNL     1       2.250   2.859  18.798  0.00  0.00    +0.000 C 
BRANCH  13  15
ATOM     15  C   UNL     1       2.562   3.492  21.137  0.00  0.00    +0.000 C 
BRANCH  15  17
ATOM     16  N   UNL     1       2.348   5.845  20.486  0.00  0.00    +0.000 N 
ATOM     17  C   UNL     1       1.686   4.647  20.639  0.00  0.00    +0.000 C 
ATOM     18  O   UNL     1       0.504   4.482  20.345  0.00  0.00    +0.000 OA
ATOM     19  H   UNL     1       3.264   5.891  20.926  0.00  0.00    +0.000 HD
BRANCH  16  21
ATOM     20  C   UNL     1       1.625   8.057  21.290  0.00  0.00    +0.000 C 
ATOM     21  C   UNL     1       1.659   7.072  20.122  0.00  0.00    +0.000 C 
ATOM     22  C   UNL     1       2.325   7.698  18.905  0.00  0.00    +0.000 C 
ENDBRANCH  16  21
ENDBRANCH  15  17
ENDBRANCH  13  15
ENDBRANCH   1  13
TORSDOF 7
ENDMDL
