MODEL 1
REMARK VINA RESULT:      -7.6      0.000      0.000
REMARK  Name = 
REMARK  7 active torsions:
REMARK  status: ('A' for Active; 'I' for Inactive)
REMARK    1  A    between atoms: C_1  and  C_2
REMARK    2  A    between atoms: C_2  and  C_3
REMARK    3  A    between atoms: C_6  and  N_7
REMARK    4  A    between atoms: C_8  and  C_10
REMARK    5  A    between atoms: C_10  and  O_11
REMARK    6  A    between atoms: O_11  and  C_12
REMARK    7  A    between atoms: C_21  and  C_22
REMARK                            x       y       z     vdW  Elec       q    Type
REMARK                         _______ _______ _______ _____ _____    ______ ____
ROOT
ATOM      1  C   UNL     1       4.615   2.062  20.503  0.00  0.00    +0.000 C 
ATOM      2  C   UNL     1       3.773   2.705  19.408  0.00  0.00    +0.000 C 
ATOM      3  C   UNL     1       3.335   1.671  18.358  0.00  0.00    +0.000 C 
ATOM      4  S   UNL     1       4.888   3.858  18.540  0.00  0.00    +0.000 S 
ATOM      5  C   UNL     1       3.432   4.732  17.801  0.00  0.00    +0.000 C 
ATOM      6  C   UNL     1       3.419   6.273  17.830  0.00  0.00    +0.000 C 
ATOM      7  C   UNL     1       2.641   6.045  19.179  0.00  0.00    +0.000 C 
ATOM      8  O   UNL     1       2.343   6.682  20.171  0.00  0.00    +0.000 OA
ATOM      9  N   UNL     1       2.468   4.718  18.904  0.00  0.00    +0.000 N 
ATOM     10  C   UNL     1       2.690   3.677  19.930  0.00  0.00    +0.000 C 
ENDROOT
BRANCH  10  11
ATOM     11  C   UNL     1       1.358   3.039  20.322  0.00  0.00    +0.000 C 
ATOM     12  N   UNL     1       0.357   3.210  19.404  0.00  0.00    +0.000 N 
ATOM     13  O   UNL     1       1.125   2.521  21.407  0.00  0.00    +0.000 OA
ATOM     14  H   UNL     1       0.493   3.760  18.562  0.00  0.00    +0.000 HD
ATOM     15  H   UNL     1      -0.574   2.885  19.633  0.00  0.00    +0.000 HD
ENDBRANCH  10  11
BRANCH   6  16
ATOM     16  N   UNL     1       4.713   6.996  17.886  0.00  0.00    +0.000 N 
ATOM     17  C   UNL     1       5.751   7.009  16.982  0.00  0.00    +0.000 C 
ATOM     18  O   UNL     1       6.740   7.697  17.244  0.00  0.00    +0.000 OA
ATOM     19  H   UNL     1       4.898   7.606  18.681  0.00  0.00    +0.000 HD
BRANCH  17  20
ATOM     20  C   UNL     1       5.700   6.142  15.711  0.00  0.00    +0.000 C 
BRANCH  20  21
ATOM     21  O   UNL     1       6.821   5.343  15.404  0.00  0.00    +0.000 OA
BRANCH  21  22
ATOM     22  C   UNL     1       6.743   4.763  14.155  0.00  0.00    +0.000 A 
ATOM     23  C   UNL     1       5.705   3.849  13.994  0.00  0.00    +0.000 A 
ATOM     24  C   UNL     1       5.509   3.211  12.768  0.00  0.00    +0.000 A 
ATOM     25  C   UNL     1       6.353   3.483  11.693  0.00  0.00    +0.000 A 
ATOM     26  C   UNL     1       7.409   4.378  11.849  0.00  0.00    +0.000 A 
ATOM     27  C   UNL     1       7.604   5.020  13.076  0.00  0.00    +0.000 A 
ENDBRANCH  21  22
ENDBRANCH  20  21
ENDBRANCH  17  20
ENDBRANCH   6  16
TORSDOF 5
ENDMDL
MODEL 2
REMARK VINA RESULT:      -7.6      0.744      1.202
REMARK  Name = 
REMARK  7 active torsions:
REMARK  status: ('A' for Active; 'I' for Inactive)
REMARK    1  A    between atoms: C_1  and  C_2
REMARK    2  A    between atoms: C_2  and  C_3
REMARK    3  A    between atoms: C_6  and  N_7
REMARK    4  A    between atoms: C_8  and  C_10
REMARK    5  A    between atoms: C_10  and  O_11
REMARK    6  A    between atoms: O_11  and  C_12
REMARK    7  A    between atoms: C_21  and  C_22
REMARK                            x       y       z     vdW  Elec       q    Type
REMARK                         _______ _______ _______ _____ _____    ______ ____
ROOT
ATOM      1  C   UNL     1       4.547   2.054  20.462  0.00  0.00    +0.000 C 
ATOM      2  C   UNL     1       3.654   2.711  19.415  0.00  0.00    +0.000 C 
ATOM      3  C   UNL     1       3.134   1.683  18.398  0.00  0.00    +0.000 C 
ATOM      4  S   UNL     1       4.739   3.838  18.478  0.00  0.00    +0.000 S 
ATOM      5  C   UNL     1       3.260   4.740  17.822  0.00  0.00    +0.000 C 
ATOM      6  C   UNL     1       3.280   6.280  17.846  0.00  0.00    +0.000 C 
ATOM      7  C   UNL     1       2.579   6.072  19.240  0.00  0.00    +0.000 C 
ATOM      8  O   UNL     1       2.353   6.719  20.244  0.00  0.00    +0.000 OA
ATOM      9  N   UNL     1       2.363   4.749  18.981  0.00  0.00    +0.000 N 
ATOM     10  C   UNL     1       2.625   3.707  19.997  0.00  0.00    +0.000 C 
ENDROOT
BRANCH  10  11
ATOM     11  C   UNL     1       1.305   3.098  20.470  0.00  0.00    +0.000 C 
ATOM     12  N   UNL     1       1.331   2.618  21.752  0.00  0.00    +0.000 N 
ATOM     13  O   UNL     1       0.325   2.918  19.758  0.00  0.00    +0.000 OA
ATOM     14  H   UNL     1       2.179   2.629  22.309  0.00  0.00    +0.000 HD
ATOM     15  H   UNL     1       0.518   2.128  22.105  0.00  0.00    +0.000 HD
ENDBRANCH  10  11
BRANCH   6  16
ATOM     16  N   UNL     1       4.590   6.977  17.822  0.00  0.00    +0.000 N 
ATOM     17  C   UNL     1       5.566   6.978  16.851  0.00  0.00    +0.000 C 
ATOM     18  O   UNL     1       6.584   7.643  17.053  0.00  0.00    +0.000 OA
ATOM     19  H   UNL     1       4.840   7.575  18.608  0.00  0.00    +0.000 HD
BRANCH  17  20
ATOM     20  C   UNL     1       5.412   6.125  15.578  0.00  0.00    +0.000 C 
BRANCH  20  21
ATOM     21  O   UNL     1       6.157   4.931  15.484  0.00  0.00    +0.000 OA
BRANCH  21  22
ATOM     22  C   UNL     1       6.323   4.501  14.184  0.00  0.00    +0.000 A 
ATOM     23  C   UNL     1       7.395   5.075  13.505  0.00  0.00    +0.000 A 
ATOM     24  C   UNL     1       7.678   4.705  12.189  0.00  0.00    +0.000 A 
ATOM     25  C   UNL     1       6.890   3.755  11.543  0.00  0.00    +0.000 A 
ATOM     26  C   UNL     1       5.802   3.190  12.204  0.00  0.00    +0.000 A 
ATOM     27  C   UNL     1       5.519   3.559  13.523  0.00  0.00    +0.000 A 
ENDBRANCH  21  22
ENDBRANCH  20  21
ENDBRANCH  17  20
ENDBRANCH   6  16
TORSDOF 5
ENDMDL
MODEL 3
REMARK VINA RESULT:      -7.5      1.853      2.387
REMARK  Name = 
REMARK  7 active torsions:
REMARK  status: ('A' for Active; 'I' for Inactive)
REMARK    1  A    between atoms: C_1  and  C_2
REMARK    2  A    between atoms: C_2  and  C_3
REMARK    3  A    between atoms: C_6  and  N_7
REMARK    4  A    between atoms: C_8  and  C_10
REMARK    5  A    between atoms: C_10  and  O_11
REMARK    6  A    between atoms: O_11  and  C_12
REMARK    7  A    between atoms: C_21  and  C_22
REMARK                            x       y       z     vdW  Elec       q    Type
REMARK                         _______ _______ _______ _____ _____    ______ ____
ROOT
ATOM      1  C   UNL     1       1.089   2.386  18.709  0.00  0.00    +0.000 C 
ATOM      2  C   UNL     1       1.848   3.495  19.427  0.00  0.00    +0.000 C 
ATOM      3  C   UNL     1       1.048   4.039  20.621  0.00  0.00    +0.000 C 
ATOM      4  S   UNL     1       1.961   4.869  18.233  0.00  0.00    +0.000 S 
ATOM      5  C   UNL     1       3.325   5.637  19.223  0.00  0.00    +0.000 C 
ATOM      6  C   UNL     1       4.571   6.145  18.472  0.00  0.00    +0.000 C 
ATOM      7  C   UNL     1       5.108   4.699  18.787  0.00  0.00    +0.000 C 
ATOM      8  O   UNL     1       5.993   3.959  18.403  0.00  0.00    +0.000 OA
ATOM      9  N   UNL     1       4.087   4.464  19.663  0.00  0.00    +0.000 N 
ATOM     10  C   UNL     1       3.344   3.186  19.665  0.00  0.00    +0.000 C 
ENDROOT
BRANCH  10  11
ATOM     11  C   UNL     1       3.665   2.399  20.936  0.00  0.00    +0.000 C 
ATOM     12  N   UNL     1       4.820   1.665  20.869  0.00  0.00    +0.000 N 
ATOM     13  O   UNL     1       2.922   2.303  21.903  0.00  0.00    +0.000 OA
ATOM     14  H   UNL     1       5.375   1.621  20.022  0.00  0.00    +0.000 HD
ATOM     15  H   UNL     1       5.053   1.055  21.643  0.00  0.00    +0.000 HD
ENDBRANCH  10  11
BRANCH   6  16
ATOM     16  N   UNL     1       4.433   6.541  17.049  0.00  0.00    +0.000 N 
ATOM     17  C   UNL     1       5.392   6.626  16.065  0.00  0.00    +0.000 C 
ATOM     18  O   UNL     1       5.037   6.981  14.939  0.00  0.00    +0.000 OA
ATOM     19  H   UNL     1       3.507   6.771  16.693  0.00  0.00    +0.000 HD
BRANCH  17  20
ATOM     20  C   UNL     1       6.872   6.343  16.380  0.00  0.00    +0.000 C 
BRANCH  20  21
ATOM     21  O   UNL     1       7.403   5.088  16.015  0.00  0.00    +0.000 OA
BRANCH  21  22
ATOM     22  C   UNL     1       7.210   4.788  14.683  0.00  0.00    +0.000 A 
ATOM     23  C   UNL     1       6.236   3.826  14.431  0.00  0.00    +0.000 A 
ATOM     24  C   UNL     1       5.934   3.453  13.120  0.00  0.00    +0.000 A 
ATOM     25  C   UNL     1       6.605   4.043  12.050  0.00  0.00    +0.000 A 
ATOM     26  C   UNL     1       7.597   4.990  12.292  0.00  0.00    +0.000 A 
ATOM     27  C   UNL     1       7.898   5.366  13.605  0.00  0.00    +0.000 A 
ENDBRANCH  21  22
ENDBRANCH  20  21
ENDBRANCH  17  20
ENDBRANCH   6  16
TORSDOF 5
ENDMDL
MODEL 4
REMARK VINA RESULT:      -7.5      3.769      7.519
REMARK  Name = 
REMARK  7 active torsions:
REMARK  status: ('A' for Active; 'I' for Inactive)
REMARK    1  A    between atoms: C_1  and  C_2
REMARK    2  A    between atoms: C_2  and  C_3
REMARK    3  A    between atoms: C_6  and  N_7
REMARK    4  A    between atoms: C_8  and  C_10
REMARK    5  A    between atoms: C_10  and  O_11
REMARK    6  A    between atoms: O_11  and  C_12
REMARK    7  A    between atoms: C_21  and  C_22
REMARK                            x       y       z     vdW  Elec       q    Type
REMARK                         _______ _______ _______ _____ _____    ______ ____
ROOT
ATOM      1  C   UNL     1       0.885   2.093  18.947  0.00  0.00    +0.000 C 
ATOM      2  C   UNL     1       1.925   2.941  19.668  0.00  0.00    +0.000 C 
ATOM      3  C   UNL     1       1.896   2.695  21.185  0.00  0.00    +0.000 C 
ATOM      4  S   UNL     1       1.402   4.672  19.433  0.00  0.00    +0.000 S 
ATOM      5  C   UNL     1       3.094   5.263  19.897  0.00  0.00    +0.000 C 
ATOM      6  C   UNL     1       3.752   6.345  19.020  0.00  0.00    +0.000 C 
ATOM      7  C   UNL     1       4.355   5.096  18.275  0.00  0.00    +0.000 C 
ATOM      8  O   UNL     1       4.886   4.848  17.210  0.00  0.00    +0.000 OA
ATOM      9  N   UNL     1       3.957   4.255  19.274  0.00  0.00    +0.000 N 
ATOM     10  C   UNL     1       3.313   2.956  18.986  0.00  0.00    +0.000 C 
ENDROOT
BRANCH  10  11
ATOM     11  C   UNL     1       4.253   1.813  19.366  0.00  0.00    +0.000 C 
ATOM     12  N   UNL     1       4.118   0.689  18.595  0.00  0.00    +0.000 N 
ATOM     13  O   UNL     1       4.988   1.810  20.345  0.00  0.00    +0.000 OA
ATOM     14  H   UNL     1       3.413   0.623  17.868  0.00  0.00    +0.000 HD
ATOM     15  H   UNL     1       4.651  -0.136  18.840  0.00  0.00    +0.000 HD
ENDBRANCH  10  11
BRANCH   6  16
ATOM     16  N   UNL     1       2.880   7.264  18.247  0.00  0.00    +0.000 N 
ATOM     17  C   UNL     1       2.024   8.245  18.694  0.00  0.00    +0.000 C 
ATOM     18  O   UNL     1       1.395   8.893  17.854  0.00  0.00    +0.000 OA
ATOM     19  H   UNL     1       2.899   7.216  17.230  0.00  0.00    +0.000 HD
BRANCH  17  20
ATOM     20  C   UNL     1       1.817   8.484  20.200  0.00  0.00    +0.000 C 
BRANCH  20  21
ATOM     21  O   UNL     1       0.543   8.222  20.747  0.00  0.00    +0.000 OA
BRANCH  21  22
ATOM     22  C   UNL     1      -0.071   9.351  21.247  0.00  0.00    +0.000 A 
ATOM     23  C   UNL     1      -0.337   9.321  22.614  0.00  0.00    +0.000 A 
ATOM     24  C   UNL     1      -0.936  10.415  23.241  0.00  0.00    +0.000 A 
ATOM     25  C   UNL     1      -1.275  11.548  22.504  0.00  0.00    +0.000 A 
ATOM     26  C   UNL     1      -1.034  11.580  21.132  0.00  0.00    +0.000 A 
ATOM     27  C   UNL     1      -0.431  10.486  20.504  0.00  0.00    +0.000 A 
ENDBRANCH  21  22
ENDBRANCH  20  21
ENDBRANCH  17  20
ENDBRANCH   6  16
TORSDOF 5
ENDMDL
MODEL 5
REMARK VINA RESULT:      -7.4      2.622      6.864
REMARK  Name = 
REMARK  7 active torsions:
REMARK  status: ('A' for Active; 'I' for Inactive)
REMARK    1  A    between atoms: C_1  and  C_2
REMARK    2  A    between atoms: C_2  and  C_3
REMARK    3  A    between atoms: C_6  and  N_7
REMARK    4  A    between atoms: C_8  and  C_10
REMARK    5  A    between atoms: C_10  and  O_11
REMARK    6  A    between atoms: O_11  and  C_12
REMARK    7  A    between atoms: C_21  and  C_22
REMARK                            x       y       z     vdW  Elec       q    Type
REMARK                         _______ _______ _______ _____ _____    ______ ____
ROOT
ATOM      1  C   UNL     1       8.040   5.256  18.495  0.00  0.00    +0.000 C 
ATOM      2  C   UNL     1       6.680   5.533  17.866  0.00  0.00    +0.000 C 
ATOM      3  C   UNL     1       6.592   6.972  17.333  0.00  0.00    +0.000 C 
ATOM      4  S   UNL     1       5.474   5.429  19.229  0.00  0.00    +0.000 S 
ATOM      5  C   UNL     1       4.090   5.248  18.011  0.00  0.00    +0.000 C 
ATOM      6  C   UNL     1       3.036   4.154  18.268  0.00  0.00    +0.000 C 
ATOM      7  C   UNL     1       3.993   3.294  17.362  0.00  0.00    +0.000 C 
ATOM      8  O   UNL     1       4.185   2.121  17.107  0.00  0.00    +0.000 OA
ATOM      9  N   UNL     1       4.695   4.401  16.979  0.00  0.00    +0.000 N 
ATOM     10  C   UNL     1       6.172   4.407  16.935  0.00  0.00    +0.000 C 
ENDROOT
BRANCH  10  11
ATOM     11  C   UNL     1       6.650   4.477  15.485  0.00  0.00    +0.000 C 
ATOM     12  N   UNL     1       6.133   3.505  14.672  0.00  0.00    +0.000 N 
ATOM     13  O   UNL     1       7.515   5.240  15.072  0.00  0.00    +0.000 OA
ATOM     14  H   UNL     1       5.525   2.777  15.030  0.00  0.00    +0.000 HD
ATOM     15  H   UNL     1       6.468   3.440  13.718  0.00  0.00    +0.000 HD
ENDBRANCH  10  11
BRANCH   6  16
ATOM     16  N   UNL     1       2.803   3.701  19.662  0.00  0.00    +0.000 N 
ATOM     17  C   UNL     1       2.081   4.300  20.670  0.00  0.00    +0.000 C 
ATOM     18  O   UNL     1       2.025   3.728  21.761  0.00  0.00    +0.000 OA
ATOM     19  H   UNL     1       3.194   2.809  19.958  0.00  0.00    +0.000 HD
BRANCH  17  20
ATOM     20  C   UNL     1       1.416   5.672  20.456  0.00  0.00    +0.000 C 
BRANCH  20  21
ATOM     21  O   UNL     1       2.180   6.830  20.713  0.00  0.00    +0.000 OA
BRANCH  21  22
ATOM     22  C   UNL     1       1.817   7.901  19.924  0.00  0.00    +0.000 A 
ATOM     23  C   UNL     1       1.032   8.860  20.557  0.00  0.00    +0.000 A 
ATOM     24  C   UNL     1       0.618  10.002  19.869  0.00  0.00    +0.000 A 
ATOM     25  C   UNL     1       0.989  10.192  18.539  0.00  0.00    +0.000 A 
ATOM     26  C   UNL     1       1.755   9.228  17.888  0.00  0.00    +0.000 A 
ATOM     27  C   UNL     1       2.172   8.085  18.578  0.00  0.00    +0.000 A 
ENDBRANCH  21  22
ENDBRANCH  20  21
ENDBRANCH  17  20
ENDBRANCH   6  16
TORSDOF 5
ENDMDL
MODEL 6
REMARK VINA RESULT:      -7.4      3.160      5.160
REMARK  Name = 
REMARK  7 active torsions:
REMARK  status: ('A' for Active; 'I' for Inactive)
REMARK    1  A    between atoms: C_1  and  C_2
REMARK    2  A    between atoms: C_2  and  C_3
REMARK    3  A    between atoms: C_6  and  N_7
REMARK    4  A    between atoms: C_8  and  C_10
REMARK    5  A    between atoms: C_10  and  O_11
REMARK    6  A    between atoms: O_11  and  C_12
REMARK    7  A    between atoms: C_21  and  C_22
REMARK                            x       y       z     vdW  Elec       q    Type
REMARK                         _______ _______ _______ _____ _____    ______ ____
ROOT
ATOM      1  C   UNL     1       2.686   1.627  18.247  0.00  0.00    +0.000 C 
ATOM      2  C   UNL     1       2.619   3.128  18.497  0.00  0.00    +0.000 C 
ATOM      3  C   UNL     1       1.171   3.641  18.449  0.00  0.00    +0.000 C 
ATOM      4  S   UNL     1       3.472   3.904  17.084  0.00  0.00    +0.000 S 
ATOM      5  C   UNL     1       3.646   5.483  18.037  0.00  0.00    +0.000 C 
ATOM      6  C   UNL     1       5.014   6.191  18.023  0.00  0.00    +0.000 C 
ATOM      7  C   UNL     1       5.249   5.339  19.325  0.00  0.00    +0.000 C 
ATOM      8  O   UNL     1       6.183   4.982  20.016  0.00  0.00    +0.000 OA
ATOM      9  N   UNL     1       3.928   4.998  19.391  0.00  0.00    +0.000 N 
ATOM     10  C   UNL     1       3.497   3.613  19.675  0.00  0.00    +0.000 C 
ENDROOT
BRANCH  10  11
ATOM     11  C   UNL     1       2.851   3.541  21.058  0.00  0.00    +0.000 C 
ATOM     12  N   UNL     1       2.406   4.744  21.538  0.00  0.00    +0.000 N 
ATOM     13  O   UNL     1       2.826   2.542  21.765  0.00  0.00    +0.000 OA
ATOM     14  H   UNL     1       2.547   5.608  21.025  0.00  0.00    +0.000 HD
ATOM     15  H   UNL     1       2.041   4.787  22.481  0.00  0.00    +0.000 HD
ENDBRANCH  10  11
BRANCH   6  16
ATOM     16  N   UNL     1       5.922   5.967  16.871  0.00  0.00    +0.000 N 
ATOM     17  C   UNL     1       7.173   6.487  16.625  0.00  0.00    +0.000 C 
ATOM     18  O   UNL     1       7.747   6.151  15.588  0.00  0.00    +0.000 OA
ATOM     19  H   UNL     1       5.632   5.323  16.138  0.00  0.00    +0.000 HD
BRANCH  17  20
ATOM     20  C   UNL     1       7.808   7.504  17.591  0.00  0.00    +0.000 C 
BRANCH  20  21
ATOM     21  O   UNL     1       7.294   8.818  17.607  0.00  0.00    +0.000 OA
BRANCH  21  22
ATOM     22  C   UNL     1       8.185   9.739  18.117  0.00  0.00    +0.000 A 
ATOM     23  C   UNL     1       8.154  10.990  17.507  0.00  0.00    +0.000 A 
ATOM     24  C   UNL     1       8.994  12.013  17.950  0.00  0.00    +0.000 A 
ATOM     25  C   UNL     1       9.872  11.791  19.009  0.00  0.00    +0.000 A 
ATOM     26  C   UNL     1       9.927  10.537  19.612  0.00  0.00    +0.000 A 
ATOM     27  C   UNL     1       9.085   9.512  19.171  0.00  0.00    +0.000 A 
ENDBRANCH  21  22
ENDBRANCH  20  21
ENDBRANCH  17  20
ENDBRANCH   6  16
TORSDOF 5
ENDMDL
MODEL 7
REMARK VINA RESULT:      -7.4      1.880      2.614
REMARK  Name = 
REMARK  7 active torsions:
REMARK  status: ('A' for Active; 'I' for Inactive)
REMARK    1  A    between atoms: C_1  and  C_2
REMARK    2  A    between atoms: C_2  and  C_3
REMARK    3  A    between atoms: C_6  and  N_7
REMARK    4  A    between atoms: C_8  and  C_10
REMARK    5  A    between atoms: C_10  and  O_11
REMARK    6  A    between atoms: O_11  and  C_12
REMARK    7  A    between atoms: C_21  and  C_22
REMARK                            x       y       z     vdW  Elec       q    Type
REMARK                         _______ _______ _______ _____ _____    ______ ____
ROOT
ATOM      1  C   UNL     1       0.970   2.658  18.893  0.00  0.00    +0.000 C 
ATOM      2  C   UNL     1       1.859   3.692  19.572  0.00  0.00    +0.000 C 
ATOM      3  C   UNL     1       1.178   4.285  20.816  0.00  0.00    +0.000 C 
ATOM      4  S   UNL     1       2.016   5.067  18.384  0.00  0.00    +0.000 S 
ATOM      5  C   UNL     1       3.494   5.707  19.298  0.00  0.00    +0.000 C 
ATOM      6  C   UNL     1       4.731   6.120  18.477  0.00  0.00    +0.000 C 
ATOM      7  C   UNL     1       5.165   4.631  18.749  0.00  0.00    +0.000 C 
ATOM      8  O   UNL     1       5.961   3.826  18.308  0.00  0.00    +0.000 OA
ATOM      9  N   UNL     1       4.180   4.471  19.683  0.00  0.00    +0.000 N 
ATOM     10  C   UNL     1       3.336   3.258  19.719  0.00  0.00    +0.000 C 
ENDROOT
BRANCH  10  11
ATOM     11  C   UNL     1       3.665   2.432  20.962  0.00  0.00    +0.000 C 
ATOM     12  N   UNL     1       4.847   1.744  20.888  0.00  0.00    +0.000 N 
ATOM     13  O   UNL     1       2.909   2.268  21.911  0.00  0.00    +0.000 OA
ATOM     14  H   UNL     1       5.418   1.755  20.050  0.00  0.00    +0.000 HD
ATOM     15  H   UNL     1       5.090   1.112  21.641  0.00  0.00    +0.000 HD
ENDBRANCH  10  11
BRANCH   6  16
ATOM     16  N   UNL     1       4.543   6.544  17.068  0.00  0.00    +0.000 N 
ATOM     17  C   UNL     1       5.457   6.600  16.039  0.00  0.00    +0.000 C 
ATOM     18  O   UNL     1       5.065   6.988  14.937  0.00  0.00    +0.000 OA
ATOM     19  H   UNL     1       3.613   6.822  16.760  0.00  0.00    +0.000 HD
BRANCH  17  20
ATOM     20  C   UNL     1       6.936   6.245  16.278  0.00  0.00    +0.000 C 
BRANCH  20  21
ATOM     21  O   UNL     1       7.379   4.957  15.910  0.00  0.00    +0.000 OA
BRANCH  21  22
ATOM     22  C   UNL     1       7.144   4.665  14.583  0.00  0.00    +0.000 A 
ATOM     23  C   UNL     1       7.910   5.392  13.675  0.00  0.00    +0.000 A 
ATOM     24  C   UNL     1       7.779   5.172  12.303  0.00  0.00    +0.000 A 
ATOM     25  C   UNL     1       6.878   4.220  11.829  0.00  0.00    +0.000 A 
ATOM     26  C   UNL     1       6.090   3.503  12.727  0.00  0.00    +0.000 A 
ATOM     27  C   UNL     1       6.223   3.722  14.101  0.00  0.00    +0.000 A 
ENDBRANCH  21  22
ENDBRANCH  20  21
ENDBRANCH  17  20
ENDBRANCH   6  16
TORSDOF 5
ENDMDL
MODEL 8
REMARK VINA RESULT:      -7.3      3.928      7.520
REMARK  Name = 
REMARK  7 active torsions:
REMARK  status: ('A' for Active; 'I' for Inactive)
REMARK    1  A    between atoms: C_1  and  C_2
REMARK    2  A    between atoms: C_2  and  C_3
REMARK    3  A    between atoms: C_6  and  N_7
REMARK    4  A    between atoms: C_8  and  C_10
REMARK    5  A    between atoms: C_10  and  O_11
REMARK    6  A    between atoms: O_11  and  C_12
REMARK    7  A    between atoms: C_21  and  C_22
REMARK                            x       y       z     vdW  Elec       q    Type
REMARK                         _______ _______ _______ _____ _____    ______ ____
ROOT
ATOM      1  C   UNL     1       2.747   1.838  17.382  0.00  0.00    +0.000 C 
ATOM      2  C   UNL     1       2.386   2.702  18.584  0.00  0.00    +0.000 C 
ATOM      3  C   UNL     1       1.239   2.081  19.397  0.00  0.00    +0.000 C 
ATOM      4  S   UNL     1       1.726   4.257  17.895  0.00  0.00    +0.000 S 
ATOM      5  C   UNL     1       1.977   5.102  19.523  0.00  0.00    +0.000 C 
ATOM      6  C   UNL     1       2.631   6.497  19.524  0.00  0.00    +0.000 C 
ATOM      7  C   UNL     1       3.952   5.662  19.715  0.00  0.00    +0.000 C 
ATOM      8  O   UNL     1       5.151   5.827  19.603  0.00  0.00    +0.000 OA
ATOM      9  N   UNL     1       3.244   4.525  19.982  0.00  0.00    +0.000 N 
ATOM     10  C   UNL     1       3.606   3.225  19.378  0.00  0.00    +0.000 C 
ENDROOT
BRANCH  10  11
ATOM     11  C   UNL     1       4.152   2.285  20.452  0.00  0.00    +0.000 C 
ATOM     12  N   UNL     1       5.175   1.478  20.032  0.00  0.00    +0.000 N 
ATOM     13  O   UNL     1       3.664   2.142  21.566  0.00  0.00    +0.000 OA
ATOM     14  H   UNL     1       5.497   1.483  19.070  0.00  0.00    +0.000 HD
ATOM     15  H   UNL     1       5.531   0.774  20.666  0.00  0.00    +0.000 HD
ENDBRANCH  10  11
BRANCH   6  16
ATOM     16  N   UNL     1       2.511   7.342  18.309  0.00  0.00    +0.000 N 
ATOM     17  C   UNL     1       2.077   8.642  18.185  0.00  0.00    +0.000 C 
ATOM     18  O   UNL     1       2.066   9.144  17.059  0.00  0.00    +0.000 OA
ATOM     19  H   UNL     1       2.804   6.955  17.414  0.00  0.00    +0.000 HD
BRANCH  17  20
ATOM     20  C   UNL     1       1.564   9.423  19.408  0.00  0.00    +0.000 C 
BRANCH  20  21
ATOM     21  O   UNL     1       0.200   9.782  19.445  0.00  0.00    +0.000 OA
BRANCH  21  22
ATOM     22  C   UNL     1      -0.238  10.104  20.713  0.00  0.00    +0.000 A 
ATOM     23  C   UNL     1      -0.889  11.330  20.818  0.00  0.00    +0.000 A 
ATOM     24  C   UNL     1      -1.397  11.757  22.046  0.00  0.00    +0.000 A 
ATOM     25  C   UNL     1      -1.258  10.958  23.179  0.00  0.00    +0.000 A 
ATOM     26  C   UNL     1      -0.589   9.739  23.090  0.00  0.00    +0.000 A 
ATOM     27  C   UNL     1      -0.082   9.310  21.860  0.00  0.00    +0.000 A 
ENDBRANCH  21  22
ENDBRANCH  20  21
ENDBRANCH  17  20
ENDBRANCH   6  16
TORSDOF 5
ENDMDL
MODEL 9
REMARK VINA RESULT:      -7.2      4.021      7.566
REMARK  Name = 
REMARK  7 active torsions:
REMARK  status: ('A' for Active; 'I' for Inactive)
REMARK    1  A    between atoms: C_1  and  C_2
REMARK    2  A    between atoms: C_2  and  C_3
REMARK    3  A    between atoms: C_6  and  N_7
REMARK    4  A    between atoms: C_8  and  C_10
REMARK    5  A    between atoms: C_10  and  O_11
REMARK    6  A    between atoms: O_11  and  C_12
REMARK    7  A    between atoms: C_21  and  C_22
REMARK                            x       y       z     vdW  Elec       q    Type
REMARK                         _______ _______ _______ _____ _____    ______ ____
ROOT
ATOM      1  C   UNL     1       2.536   1.970  17.390  0.00  0.00    +0.000 C 
ATOM      2  C   UNL     1       2.302   2.823  18.631  0.00  0.00    +0.000 C 
ATOM      3  C   UNL     1       1.167   2.254  19.496  0.00  0.00    +0.000 C 
ATOM      4  S   UNL     1       1.707   4.434  18.020  0.00  0.00    +0.000 S 
ATOM      5  C   UNL     1       2.106   5.217  19.650  0.00  0.00    +0.000 C 
ATOM      6  C   UNL     1       2.849   6.567  19.644  0.00  0.00    +0.000 C 
ATOM      7  C   UNL     1       4.121   5.644  19.736  0.00  0.00    +0.000 C 
ATOM      8  O   UNL     1       5.320   5.735  19.556  0.00  0.00    +0.000 OA
ATOM      9  N   UNL     1       3.357   4.548  20.017  0.00  0.00    +0.000 N 
ATOM     10  C   UNL     1       3.598   3.245  19.362  0.00  0.00    +0.000 C 
ENDROOT
BRANCH  10  11
ATOM     11  C   UNL     1       4.143   2.243  20.380  0.00  0.00    +0.000 C 
ATOM     12  N   UNL     1       5.091   1.389  19.881  0.00  0.00    +0.000 N 
ATOM     13  O   UNL     1       3.710   2.097  21.515  0.00  0.00    +0.000 OA
ATOM     14  H   UNL     1       5.359   1.402  18.903  0.00  0.00    +0.000 HD
ATOM     15  H   UNL     1       5.437   0.646  20.476  0.00  0.00    +0.000 HD
ENDBRANCH  10  11
BRANCH   6  16
ATOM     16  N   UNL     1       2.714   7.450  18.459  0.00  0.00    +0.000 N 
ATOM     17  C   UNL     1       2.003   8.621  18.314  0.00  0.00    +0.000 C 
ATOM     18  O   UNL     1       2.042   9.190  17.221  0.00  0.00    +0.000 OA
ATOM     19  H   UNL     1       3.223   7.211  17.610  0.00  0.00    +0.000 HD
BRANCH  17  20
ATOM     20  C   UNL     1       1.138   9.166  19.465  0.00  0.00    +0.000 C 
BRANCH  20  21
ATOM     21  O   UNL     1       1.111  10.561  19.674  0.00  0.00    +0.000 OA
BRANCH  21  22
ATOM     22  C   UNL     1       0.304  10.931  20.730  0.00  0.00    +0.000 A 
ATOM     23  C   UNL     1       0.120   9.952  21.703  0.00  0.00    +0.000 A 
ATOM     24  C   UNL     1      -0.659  10.215  22.831  0.00  0.00    +0.000 A 
ATOM     25  C   UNL     1      -1.260  11.461  22.994  0.00  0.00    +0.000 A 
ATOM     26  C   UNL     1      -1.101  12.441  22.016  0.00  0.00    +0.000 A 
ATOM     27  C   UNL     1      -0.319  12.179  20.887  0.00  0.00    +0.000 A 
ENDBRANCH  21  22
ENDBRANCH  20  21
ENDBRANCH  17  20
ENDBRANCH   6  16
TORSDOF 5
ENDMDL
