MODEL 1
REMARK VINA RESULT:      -7.4      0.000      0.000
REMARK  Name = 
REMARK  8 active torsions:
REMARK  status: ('A' for Active; 'I' for Inactive)
REMARK    1  A    between atoms: C_1  and  C_2
REMARK    2  A    between atoms: C_2  and  C_3
REMARK    3  A    between atoms: C_3  and  C_4
REMARK    4  A    between atoms: P_12  and  N_14
REMARK    5  A    between atoms: N_14  and  C_15
REMARK    6  A    between atoms: C_15  and  C_16
REMARK    7  A    between atoms: C_16  and  C_17
REMARK    8  A    between atoms: C_16  and  C_18
REMARK                            x       y       z     vdW  Elec       q    Type
REMARK                         _______ _______ _______ _____ _____    ______ ____
ROOT
ATOM      1  C   UNL     1       7.862   7.873  17.925  0.00  0.00    +0.000 A 
ATOM      2  C   UNL     1       8.318   7.002  18.921  0.00  0.00    +0.000 A 
ATOM      3  C   UNL     1       7.693   5.766  19.133  0.00  0.00    +0.000 A 
ATOM      4  C   UNL     1       6.591   5.413  18.359  0.00  0.00    +0.000 A 
ATOM      5  C   UNL     1       6.164   6.231  17.309  0.00  0.00    +0.000 A 
ATOM      6  C   UNL     1       6.818   7.451  17.091  0.00  0.00    +0.000 A 
ATOM      7  C   UNL     1       4.974   5.889  16.453  0.00  0.00    +0.000 C 
ATOM      8  O   UNL     1       4.276   4.730  16.861  0.00  0.00    +0.000 OA
ATOM      9  P   UNL     1       4.247   4.409  18.447  0.00  0.00    +0.000 P 
ATOM     10  S   UNL     1       3.291   5.732  19.506  0.00  0.00    +0.000 S 
ATOM     11  O   UNL     1       5.851   4.309  18.712  0.00  0.00    +0.000 OA
ENDROOT
BRANCH   9  12
ATOM     12  N   UNL     1       3.596   2.905  18.420  0.00  0.00    +0.000 NA
ATOM     13  H   UNL     1       4.159   2.319  17.813  0.00  0.00    +0.000 HD
BRANCH  12  14
ATOM     14  C   UNL     1       3.207   2.139  19.582  0.00  0.00    +0.000 C 
BRANCH  14  15
ATOM     15  C   UNL     1       1.700   2.122  19.884  0.00  0.00    +0.000 C 
ATOM     16  C   UNL     1       1.324   2.950  21.116  0.00  0.00    +0.000 C 
ATOM     17  C   UNL     1       0.943   2.658  18.662  0.00  0.00    +0.000 C 
ENDBRANCH  14  15
ENDBRANCH  12  14
ENDBRANCH   9  12
BRANCH   1  18
ATOM     18  C   UNL     1       8.372   9.289  17.794  0.00  0.00    +0.000 C 
BRANCH  18  20
ATOM     19  C   UNL     1       9.723  11.180  18.723  0.00  0.00    +0.000 C 
ATOM     20  C   UNL     1       9.090   9.829  19.027  0.00  0.00    +0.000 C 
ENDBRANCH  18  20
ENDBRANCH   1  18
TORSDOF 5
ENDMDL
MODEL 2
REMARK VINA RESULT:      -7.2      2.762      7.436
REMARK  Name = 
REMARK  8 active torsions:
REMARK  status: ('A' for Active; 'I' for Inactive)
REMARK    1  A    between atoms: C_1  and  C_2
REMARK    2  A    between atoms: C_2  and  C_3
REMARK    3  A    between atoms: C_3  and  C_4
REMARK    4  A    between atoms: P_12  and  N_14
REMARK    5  A    between atoms: N_14  and  C_15
REMARK    6  A    between atoms: C_15  and  C_16
REMARK    7  A    between atoms: C_16  and  C_17
REMARK    8  A    between atoms: C_16  and  C_18
REMARK                            x       y       z     vdW  Elec       q    Type
REMARK                         _______ _______ _______ _____ _____    ______ ____
ROOT
ATOM      1  C   UNL     1       3.180   3.802  17.391  0.00  0.00    +0.000 A 
ATOM      2  C   UNL     1       2.709   4.998  17.947  0.00  0.00    +0.000 A 
ATOM      3  C   UNL     1       3.484   6.164  17.899  0.00  0.00    +0.000 A 
ATOM      4  C   UNL     1       4.747   6.125  17.313  0.00  0.00    +0.000 A 
ATOM      5  C   UNL     1       5.207   4.964  16.685  0.00  0.00    +0.000 A 
ATOM      6  C   UNL     1       4.407   3.814  16.715  0.00  0.00    +0.000 A 
ATOM      7  C   UNL     1       6.567   4.878  16.046  0.00  0.00    +0.000 C 
ATOM      8  O   UNL     1       7.367   6.030  16.219  0.00  0.00    +0.000 OA
ATOM      9  P   UNL     1       7.174   6.859  17.596  0.00  0.00    +0.000 P 
ATOM     10  S   UNL     1       7.699   5.877  19.192  0.00  0.00    +0.000 S 
ATOM     11  O   UNL     1       5.587   7.202  17.462  0.00  0.00    +0.000 OA
ENDROOT
BRANCH   9  12
ATOM     12  N   UNL     1       8.060   8.193  17.251  0.00  0.00    +0.000 NA
ATOM     13  H   UNL     1       8.182   8.250  16.245  0.00  0.00    +0.000 HD
BRANCH  12  14
ATOM     14  C   UNL     1       7.817   9.519  17.769  0.00  0.00    +0.000 C 
BRANCH  14  15
ATOM     15  C   UNL     1       9.074  10.320  18.145  0.00  0.00    +0.000 C 
ATOM     16  C   UNL     1       8.946  11.816  17.847  0.00  0.00    +0.000 C 
ATOM     17  C   UNL     1       9.358  10.123  19.640  0.00  0.00    +0.000 C 
ENDBRANCH  14  15
ENDBRANCH  12  14
ENDBRANCH   9  12
BRANCH   1  18
ATOM     18  C   UNL     1       2.471   2.483  17.594  0.00  0.00    +0.000 C 
BRANCH  18  20
ATOM     19  C   UNL     1       1.687   2.293  19.963  0.00  0.00    +0.000 C 
ATOM     20  C   UNL     1       1.262   2.541  18.522  0.00  0.00    +0.000 C 
ENDBRANCH  18  20
ENDBRANCH   1  18
TORSDOF 5
ENDMDL
MODEL 3
REMARK VINA RESULT:      -7.0      2.992      4.613
REMARK  Name = 
REMARK  8 active torsions:
REMARK  status: ('A' for Active; 'I' for Inactive)
REMARK    1  A    between atoms: C_1  and  C_2
REMARK    2  A    between atoms: C_2  and  C_3
REMARK    3  A    between atoms: C_3  and  C_4
REMARK    4  A    between atoms: P_12  and  N_14
REMARK    5  A    between atoms: N_14  and  C_15
REMARK    6  A    between atoms: C_15  and  C_16
REMARK    7  A    between atoms: C_16  and  C_17
REMARK    8  A    between atoms: C_16  and  C_18
REMARK                            x       y       z     vdW  Elec       q    Type
REMARK                         _______ _______ _______ _____ _____    ______ ____
ROOT
ATOM      1  C   UNL     1       6.424   4.371  14.706  0.00  0.00    +0.000 A 
ATOM      2  C   UNL     1       7.342   4.847  15.650  0.00  0.00    +0.000 A 
ATOM      3  C   UNL     1       6.989   4.952  17.002  0.00  0.00    +0.000 A 
ATOM      4  C   UNL     1       5.703   4.602  17.405  0.00  0.00    +0.000 A 
ATOM      5  C   UNL     1       4.794   4.053  16.496  0.00  0.00    +0.000 A 
ATOM      6  C   UNL     1       5.172   3.926  15.152  0.00  0.00    +0.000 A 
ATOM      7  C   UNL     1       3.394   3.667  16.889  0.00  0.00    +0.000 C 
ATOM      8  O   UNL     1       3.050   3.993  18.221  0.00  0.00    +0.000 OA
ATOM      9  P   UNL     1       3.727   5.324  18.848  0.00  0.00    +0.000 P 
ATOM     10  S   UNL     1       3.184   6.976  17.976  0.00  0.00    +0.000 S 
ATOM     11  O   UNL     1       5.294   4.911  18.680  0.00  0.00    +0.000 OA
ENDROOT
BRANCH   9  12
ATOM     12  N   UNL     1       3.276   5.158  20.415  0.00  0.00    +0.000 NA
ATOM     13  H   UNL     1       3.771   5.848  20.970  0.00  0.00    +0.000 HD
BRANCH  12  14
ATOM     14  C   UNL     1       1.916   5.062  20.891  0.00  0.00    +0.000 C 
BRANCH  14  15
ATOM     15  C   UNL     1       1.419   3.636  21.181  0.00  0.00    +0.000 C 
ATOM     16  C   UNL     1       0.681   3.004  19.997  0.00  0.00    +0.000 C 
ATOM     17  C   UNL     1       2.620   2.760  21.556  0.00  0.00    +0.000 C 
ENDBRANCH  14  15
ENDBRANCH  12  14
ENDBRANCH   9  12
BRANCH   1  18
ATOM     18  C   UNL     1       6.690   4.428  13.220  0.00  0.00    +0.000 C 
BRANCH  18  20
ATOM     19  C   UNL     1       4.849   3.480  11.813  0.00  0.00    +0.000 C 
ATOM     20  C   UNL     1       6.213   3.210  12.436  0.00  0.00    +0.000 C 
ENDBRANCH  18  20
ENDBRANCH   1  18
TORSDOF 5
ENDMDL
MODEL 4
REMARK VINA RESULT:      -6.8      3.818      5.320
REMARK  Name = 
REMARK  8 active torsions:
REMARK  status: ('A' for Active; 'I' for Inactive)
REMARK    1  A    between atoms: C_1  and  C_2
REMARK    2  A    between atoms: C_2  and  C_3
REMARK    3  A    between atoms: C_3  and  C_4
REMARK    4  A    between atoms: P_12  and  N_14
REMARK    5  A    between atoms: N_14  and  C_15
REMARK    6  A    between atoms: C_15  and  C_16
REMARK    7  A    between atoms: C_16  and  C_17
REMARK    8  A    between atoms: C_16  and  C_18
REMARK                            x       y       z     vdW  Elec       q    Type
REMARK                         _______ _______ _______ _____ _____    ______ ____
ROOT
ATOM      1  C   UNL     1       5.896   4.226  16.400  0.00  0.00    +0.000 A 
ATOM      2  C   UNL     1       6.645   4.802  17.434  0.00  0.00    +0.000 A 
ATOM      3  C   UNL     1       6.016   5.297  18.584  0.00  0.00    +0.000 A 
ATOM      4  C   UNL     1       4.629   5.237  18.687  0.00  0.00    +0.000 A 
ATOM      5  C   UNL     1       3.866   4.600  17.704  0.00  0.00    +0.000 A 
ATOM      6  C   UNL     1       4.513   4.083  16.573  0.00  0.00    +0.000 A 
ATOM      7  C   UNL     1       2.365   4.519  17.774  0.00  0.00    +0.000 C 
ATOM      8  O   UNL     1       1.793   5.220  18.860  0.00  0.00    +0.000 OA
ATOM      9  P   UNL     1       2.552   6.563  19.349  0.00  0.00    +0.000 P 
ATOM     10  S   UNL     1       2.561   7.993  18.031  0.00  0.00    +0.000 S 
ATOM     11  O   UNL     1       4.004   5.915  19.706  0.00  0.00    +0.000 OA
ENDROOT
BRANCH   9  12
ATOM     12  N   UNL     1       1.728   6.867  20.732  0.00  0.00    +0.000 NA
ATOM     13  H   UNL     1       2.026   6.204  21.440  0.00  0.00    +0.000 HD
BRANCH  12  14
ATOM     14  C   UNL     1       1.565   8.165  21.344  0.00  0.00    +0.000 C 
BRANCH  14  15
ATOM     15  C   UNL     1       0.113   8.654  21.475  0.00  0.00    +0.000 C 
ATOM     16  C   UNL     1      -0.185   9.295  22.834  0.00  0.00    +0.000 C 
ATOM     17  C   UNL     1      -0.170   9.670  20.362  0.00  0.00    +0.000 C 
ENDBRANCH  14  15
ENDBRANCH  12  14
ENDBRANCH   9  12
BRANCH   1  18
ATOM     18  C   UNL     1       6.505   3.864  15.066  0.00  0.00    +0.000 C 
BRANCH  18  20
ATOM     19  C   UNL     1       6.290   3.646  12.582  0.00  0.00    +0.000 C 
ATOM     20  C   UNL     1       5.580   4.050  13.867  0.00  0.00    +0.000 C 
ENDBRANCH  18  20
ENDBRANCH   1  18
TORSDOF 5
ENDMDL
MODEL 5
REMARK VINA RESULT:      -6.8      3.921      6.603
REMARK  Name = 
REMARK  8 active torsions:
REMARK  status: ('A' for Active; 'I' for Inactive)
REMARK    1  A    between atoms: C_1  and  C_2
REMARK    2  A    between atoms: C_2  and  C_3
REMARK    3  A    between atoms: C_3  and  C_4
REMARK    4  A    between atoms: P_12  and  N_14
REMARK    5  A    between atoms: N_14  and  C_15
REMARK    6  A    between atoms: C_15  and  C_16
REMARK    7  A    between atoms: C_16  and  C_17
REMARK    8  A    between atoms: C_16  and  C_18
REMARK                            x       y       z     vdW  Elec       q    Type
REMARK                         _______ _______ _______ _____ _____    ______ ____
ROOT
ATOM      1  C   UNL     1       2.394   5.344  19.257  0.00  0.00    +0.000 A 
ATOM      2  C   UNL     1       2.638   6.634  18.768  0.00  0.00    +0.000 A 
ATOM      3  C   UNL     1       3.546   6.843  17.722  0.00  0.00    +0.000 A 
ATOM      4  C   UNL     1       4.231   5.758  17.181  0.00  0.00    +0.000 A 
ATOM      5  C   UNL     1       3.950   4.455  17.599  0.00  0.00    +0.000 A 
ATOM      6  C   UNL     1       3.017   4.259  18.626  0.00  0.00    +0.000 A 
ATOM      7  C   UNL     1       4.671   3.256  17.045  0.00  0.00    +0.000 C 
ATOM      8  O   UNL     1       5.714   3.568  16.143  0.00  0.00    +0.000 OA
ATOM      9  P   UNL     1       6.522   4.947  16.403  0.00  0.00    +0.000 P 
ATOM     10  S   UNL     1       7.533   4.971  18.065  0.00  0.00    +0.000 S 
ATOM     11  O   UNL     1       5.273   5.990  16.314  0.00  0.00    +0.000 OA
ENDROOT
BRANCH   9  12
ATOM     12  N   UNL     1       7.404   5.023  15.025  0.00  0.00    +0.000 NA
ATOM     13  H   UNL     1       8.083   4.268  15.032  0.00  0.00    +0.000 HD
BRANCH  12  14
ATOM     14  C   UNL     1       6.866   5.156  13.691  0.00  0.00    +0.000 C 
BRANCH  14  15
ATOM     15  C   UNL     1       6.561   3.833  12.969  0.00  0.00    +0.000 C 
ATOM     16  C   UNL     1       5.066   3.613  12.723  0.00  0.00    +0.000 C 
ATOM     17  C   UNL     1       7.304   3.817  11.628  0.00  0.00    +0.000 C 
ENDBRANCH  14  15
ENDBRANCH  12  14
ENDBRANCH   9  12
BRANCH   1  18
ATOM     18  C   UNL     1       1.581   5.094  20.506  0.00  0.00    +0.000 C 
BRANCH  18  20
ATOM     19  C   UNL     1       1.309   2.807  21.486  0.00  0.00    +0.000 C 
ATOM     20  C   UNL     1       2.173   4.061  21.459  0.00  0.00    +0.000 C 
ENDBRANCH  18  20
ENDBRANCH   1  18
TORSDOF 5
ENDMDL
MODEL 6
REMARK VINA RESULT:      -6.5      3.827      6.168
REMARK  Name = 
REMARK  8 active torsions:
REMARK  status: ('A' for Active; 'I' for Inactive)
REMARK    1  A    between atoms: C_1  and  C_2
REMARK    2  A    between atoms: C_2  and  C_3
REMARK    3  A    between atoms: C_3  and  C_4
REMARK    4  A    between atoms: P_12  and  N_14
REMARK    5  A    between atoms: N_14  and  C_15
REMARK    6  A    between atoms: C_15  and  C_16
REMARK    7  A    between atoms: C_16  and  C_17
REMARK    8  A    between atoms: C_16  and  C_18
REMARK                            x       y       z     vdW  Elec       q    Type
REMARK                         _______ _______ _______ _____ _____    ______ ____
ROOT
ATOM      1  C   UNL     1       1.600   7.970  20.450  0.00  0.00    +0.000 A 
ATOM      2  C   UNL     1       1.846   8.465  19.164  0.00  0.00    +0.000 A 
ATOM      3  C   UNL     1       2.349   7.628  18.158  0.00  0.00    +0.000 A 
ATOM      4  C   UNL     1       2.628   6.296  18.452  0.00  0.00    +0.000 A 
ATOM      5  C   UNL     1       2.320   5.760  19.705  0.00  0.00    +0.000 A 
ATOM      6  C   UNL     1       1.790   6.603  20.691  0.00  0.00    +0.000 A 
ATOM      7  C   UNL     1       2.612   4.328  20.064  0.00  0.00    +0.000 C 
ATOM      8  O   UNL     1       3.305   3.606  19.066  0.00  0.00    +0.000 OA
ATOM      9  P   UNL     1       4.349   4.437  18.150  0.00  0.00    +0.000 P 
ATOM     10  S   UNL     1       5.872   5.147  19.130  0.00  0.00    +0.000 S 
ATOM     11  O   UNL     1       3.321   5.540  17.535  0.00  0.00    +0.000 OA
ENDROOT
BRANCH   9  12
ATOM     12  N   UNL     1       4.690   3.306  17.013  0.00  0.00    +0.000 NA
ATOM     13  H   UNL     1       3.843   3.103  16.493  0.00  0.00    +0.000 HD
BRANCH  12  14
ATOM     14  C   UNL     1       5.805   3.349  16.095  0.00  0.00    +0.000 C 
BRANCH  14  15
ATOM     15  C   UNL     1       5.781   4.507  15.085  0.00  0.00    +0.000 C 
ATOM     16  C   UNL     1       6.862   5.559  15.348  0.00  0.00    +0.000 C 
ATOM     17  C   UNL     1       5.962   3.936  13.673  0.00  0.00    +0.000 C 
ENDBRANCH  14  15
ENDBRANCH  12  14
ENDBRANCH   9  12
BRANCH   1  18
ATOM     18  C   UNL     1       1.251   8.874  21.610  0.00  0.00    +0.000 C 
BRANCH  18  20
ATOM     19  C   UNL     1      -0.479   9.680  23.229  0.00  0.00    +0.000 C 
ATOM     20  C   UNL     1      -0.243   9.037  21.869  0.00  0.00    +0.000 C 
ENDBRANCH  18  20
ENDBRANCH   1  18
TORSDOF 5
ENDMDL
MODEL 7
REMARK VINA RESULT:      -6.5      3.823      6.334
REMARK  Name = 
REMARK  8 active torsions:
REMARK  status: ('A' for Active; 'I' for Inactive)
REMARK    1  A    between atoms: C_1  and  C_2
REMARK    2  A    between atoms: C_2  and  C_3
REMARK    3  A    between atoms: C_3  and  C_4
REMARK    4  A    between atoms: P_12  and  N_14
REMARK    5  A    between atoms: N_14  and  C_15
REMARK    6  A    between atoms: C_15  and  C_16
REMARK    7  A    between atoms: C_16  and  C_17
REMARK    8  A    between atoms: C_16  and  C_18
REMARK                            x       y       z     vdW  Elec       q    Type
REMARK                         _______ _______ _______ _____ _____    ______ ____
ROOT
ATOM      1  C   UNL     1       2.477   5.211  19.527  0.00  0.00    +0.000 A 
ATOM      2  C   UNL     1       1.707   4.590  18.536  0.00  0.00    +0.000 A 
ATOM      3  C   UNL     1       2.316   3.997  17.422  0.00  0.00    +0.000 A 
ATOM      4  C   UNL     1       3.702   4.049  17.290  0.00  0.00    +0.000 A 
ATOM      5  C   UNL     1       4.496   4.595  18.301  0.00  0.00    +0.000 A 
ATOM      6  C   UNL     1       3.873   5.158  19.423  0.00  0.00    +0.000 A 
ATOM      7  C   UNL     1       5.995   4.676  18.194  0.00  0.00    +0.000 C 
ATOM      8  O   UNL     1       6.516   4.243  16.954  0.00  0.00    +0.000 OA
ATOM      9  P   UNL     1       5.599   4.496  15.644  0.00  0.00    +0.000 P 
ATOM     10  S   UNL     1       5.321   6.374  15.222  0.00  0.00    +0.000 S 
ATOM     11  O   UNL     1       4.274   3.664  16.101  0.00  0.00    +0.000 OA
ENDROOT
BRANCH   9  12
ATOM     12  N   UNL     1       6.441   3.629  14.537  0.00  0.00    +0.000 NA
ATOM     13  H   UNL     1       6.324   2.642  14.740  0.00  0.00    +0.000 HD
BRANCH  12  14
ATOM     14  C   UNL     1       6.391   3.822  13.106  0.00  0.00    +0.000 C 
BRANCH  14  15
ATOM     15  C   UNL     1       5.528   2.811  12.335  0.00  0.00    +0.000 C 
ATOM     16  C   UNL     1       4.400   3.469  11.535  0.00  0.00    +0.000 C 
ATOM     17  C   UNL     1       6.428   2.015  11.382  0.00  0.00    +0.000 C 
ENDBRANCH  14  15
ENDBRANCH  12  14
ENDBRANCH   9  12
BRANCH   1  18
ATOM     18  C   UNL     1       1.859   6.031  20.635  0.00  0.00    +0.000 C 
BRANCH  18  20
ATOM     19  C   UNL     1       1.023   8.240  21.465  0.00  0.00    +0.000 C 
ATOM     20  C   UNL     1       1.811   7.533  20.370  0.00  0.00    +0.000 C 
ENDBRANCH  18  20
ENDBRANCH   1  18
TORSDOF 5
ENDMDL
MODEL 8
REMARK VINA RESULT:      -6.5      3.837      6.244
REMARK  Name = 
REMARK  8 active torsions:
REMARK  status: ('A' for Active; 'I' for Inactive)
REMARK    1  A    between atoms: C_1  and  C_2
REMARK    2  A    between atoms: C_2  and  C_3
REMARK    3  A    between atoms: C_3  and  C_4
REMARK    4  A    between atoms: P_12  and  N_14
REMARK    5  A    between atoms: N_14  and  C_15
REMARK    6  A    between atoms: C_15  and  C_16
REMARK    7  A    between atoms: C_16  and  C_17
REMARK    8  A    between atoms: C_16  and  C_18
REMARK                            x       y       z     vdW  Elec       q    Type
REMARK                         _______ _______ _______ _____ _____    ______ ____
ROOT
ATOM      1  C   UNL     1       1.808   7.421  20.176  0.00  0.00    +0.000 A 
ATOM      2  C   UNL     1       2.120   8.154  19.025  0.00  0.00    +0.000 A 
ATOM      3  C   UNL     1       2.849   7.572  17.980  0.00  0.00    +0.000 A 
ATOM      4  C   UNL     1       3.290   6.256  18.101  0.00  0.00    +0.000 A 
ATOM      5  C   UNL     1       2.928   5.480  19.205  0.00  0.00    +0.000 A 
ATOM      6  C   UNL     1       2.172   6.069  20.229  0.00  0.00    +0.000 A 
ATOM      7  C   UNL     1       3.387   4.058  19.378  0.00  0.00    +0.000 C 
ATOM      8  O   UNL     1       4.286   3.610  18.382  0.00  0.00    +0.000 OA
ATOM      9  P   UNL     1       5.291   4.712  17.751  0.00  0.00    +0.000 P 
ATOM     10  S   UNL     1       6.573   5.435  19.023  0.00  0.00    +0.000 S 
ATOM     11  O   UNL     1       4.184   5.763  17.181  0.00  0.00    +0.000 OA
ENDROOT
BRANCH   9  12
ATOM     12  N   UNL     1       5.920   3.845  16.512  0.00  0.00    +0.000 NA
ATOM     13  H   UNL     1       5.157   3.492  15.943  0.00  0.00    +0.000 HD
BRANCH  12  14
ATOM     14  C   UNL     1       6.992   4.276  15.645  0.00  0.00    +0.000 C 
BRANCH  14  15
ATOM     15  C   UNL     1       6.552   4.830  14.280  0.00  0.00    +0.000 C 
ATOM     16  C   UNL     1       7.728   5.168  13.360  0.00  0.00    +0.000 C 
ATOM     17  C   UNL     1       5.651   3.796  13.593  0.00  0.00    +0.000 C 
ENDBRANCH  14  15
ENDBRANCH  12  14
ENDBRANCH   9  12
BRANCH   1  18
ATOM     18  C   UNL     1       1.203   8.061  21.403  0.00  0.00    +0.000 C 
BRANCH  18  20
ATOM     19  C   UNL     1      -0.472   9.618  22.421  0.00  0.00    +0.000 C 
ATOM     20  C   UNL     1       0.112   9.089  21.118  0.00  0.00    +0.000 C 
ENDBRANCH  18  20
ENDBRANCH   1  18
TORSDOF 5
ENDMDL
MODEL 9
REMARK VINA RESULT:      -6.5      3.763      5.289
REMARK  Name = 
REMARK  8 active torsions:
REMARK  status: ('A' for Active; 'I' for Inactive)
REMARK    1  A    between atoms: C_1  and  C_2
REMARK    2  A    between atoms: C_2  and  C_3
REMARK    3  A    between atoms: C_3  and  C_4
REMARK    4  A    between atoms: P_12  and  N_14
REMARK    5  A    between atoms: N_14  and  C_15
REMARK    6  A    between atoms: C_15  and  C_16
REMARK    7  A    between atoms: C_16  and  C_17
REMARK    8  A    between atoms: C_16  and  C_18
REMARK                            x       y       z     vdW  Elec       q    Type
REMARK                         _______ _______ _______ _____ _____    ______ ____
ROOT
ATOM      1  C   UNL     1       6.177   4.628  16.003  0.00  0.00    +0.000 A 
ATOM      2  C   UNL     1       6.934   5.234  17.014  0.00  0.00    +0.000 A 
ATOM      3  C   UNL     1       6.336   5.626  18.219  0.00  0.00    +0.000 A 
ATOM      4  C   UNL     1       4.969   5.432  18.401  0.00  0.00    +0.000 A 
ATOM      5  C   UNL     1       4.207   4.763  17.440  0.00  0.00    +0.000 A 
ATOM      6  C   UNL     1       4.826   4.350  16.252  0.00  0.00    +0.000 A 
ATOM      7  C   UNL     1       2.727   4.539  17.596  0.00  0.00    +0.000 C 
ATOM      8  O   UNL     1       2.163   5.143  18.743  0.00  0.00    +0.000 OA
ATOM      9  P   UNL     1       2.826   6.533  19.241  0.00  0.00    +0.000 P 
ATOM     10  S   UNL     1       2.621   8.005  17.985  0.00  0.00    +0.000 S 
ATOM     11  O   UNL     1       4.350   6.012  19.484  0.00  0.00    +0.000 OA
ENDROOT
BRANCH   9  12
ATOM     12  N   UNL     1       2.066   6.708  20.682  0.00  0.00    +0.000 NA
ATOM     13  H   UNL     1       2.760   6.913  21.393  0.00  0.00    +0.000 HD
BRANCH  12  14
ATOM     14  C   UNL     1       0.897   7.524  20.920  0.00  0.00    +0.000 C 
BRANCH  14  15
ATOM     15  C   UNL     1       1.182   8.974  21.345  0.00  0.00    +0.000 C 
ATOM     16  C   UNL     1       0.676  10.007  20.334  0.00  0.00    +0.000 C 
ATOM     17  C   UNL     1       0.523   9.230  22.705  0.00  0.00    +0.000 C 
ENDBRANCH  14  15
ENDBRANCH  12  14
ENDBRANCH   9  12
BRANCH   1  18
ATOM     18  C   UNL     1       6.731   4.373  14.621  0.00  0.00    +0.000 C 
BRANCH  18  20
ATOM     19  C   UNL     1       6.408   3.529  12.287  0.00  0.00    +0.000 C 
ATOM     20  C   UNL     1       5.740   3.763  13.636  0.00  0.00    +0.000 C 
ENDBRANCH  18  20
ENDBRANCH   1  18
TORSDOF 5
ENDMDL
