MODEL 1
REMARK VINA RESULT:      -8.4      0.000      0.000
REMARK  Name = 
REMARK  12 active torsions:
REMARK  status: ('A' for Active; 'I' for Inactive)
REMARK    1  A    between atoms: C_1  and  C_2
REMARK    2  A    between atoms: C_2  and  O_4
REMARK    3  A    between atoms: O_4  and  C_5
REMARK    4  A    between atoms: C_6  and  C_7
REMARK    5  A    between atoms: C_20  and  C_21
REMARK    6  A    between atoms: C_21  and  O_23
REMARK    7  A    between atoms: C_24  and  O_25
REMARK    8  A    between atoms: O_25  and  C_26
REMARK    9  A    between atoms: C_26  and  C_27
REMARK   10  A    between atoms: C_29  and  O_30
REMARK   11  A    between atoms: O_30  and  C_31
REMARK   12  A    between atoms: C_31  and  C_32
REMARK                            x       y       z     vdW  Elec       q    Type
REMARK                         _______ _______ _______ _____ _____    ______ ____
ROOT
ATOM      1  C   UNL     1       4.735   5.974  18.260  0.00  0.00    +0.000 C 
ATOM      2  C   UNL     1       3.276   6.173  17.748  0.00  0.00    +0.000 C 
ATOM      3  O   UNL     1       2.442   5.083  18.200  0.00  0.00    +0.000 OA
ATOM      4  C   UNL     1       2.919   3.788  17.790  0.00  0.00    +0.000 C 
ATOM      5  C   UNL     1       4.229   3.454  18.500  0.00  0.00    +0.000 C 
ATOM      6  C   UNL     1       5.283   4.525  18.160  0.00  0.00    +0.000 C 
ENDROOT
BRANCH   2   7
ATOM      7  C   UNL     1       2.636   7.456  18.291  0.00  0.00    +0.000 C 
ATOM      8  C   UNL     1       2.544   8.603  17.597  0.00  0.00    +0.000 C 
ATOM      9  C   UNL     1       1.902   9.829  18.106  0.00  0.00    +0.000 C 
ATOM     10  O   UNL     1       1.970  10.872  17.474  0.00  0.00    +0.000 OA
ATOM     11  C   UNL     1       1.145   9.720  19.358  0.00  0.00    +0.000 A 
ATOM     12  C   UNL     1       0.314  10.772  19.758  0.00  0.00    +0.000 A 
ATOM     13  C   UNL     1      -0.432  10.653  20.931  0.00  0.00    +0.000 A 
ATOM     14  C   UNL     1      -0.341   9.491  21.699  0.00  0.00    +0.000 A 
ATOM     15  C   UNL     1       0.503   8.450  21.306  0.00  0.00    +0.000 A 
ATOM     16  C   UNL     1       1.244   8.563  20.125  0.00  0.00    +0.000 A 
ATOM     17  C   UNL     1       2.135   7.460  19.696  0.00  0.00    +0.000 C 
ATOM     18  O   UNL     1       2.454   6.588  20.493  0.00  0.00    +0.000 OA
ENDBRANCH   2   7
BRANCH   4  19
ATOM     19  C   UNL     1       1.854   2.758  18.167  0.00  0.00    +0.000 C 
ATOM     20  O   UNL     1       0.743   3.028  18.589  0.00  0.00    +0.000 OA
BRANCH  19  21
ATOM     21  O   UNL     1       2.269   1.481  17.963  0.00  0.00    +0.000 OA
ATOM     22  H   UNL     1       1.480   0.922  17.787  0.00  0.00    +0.000 HD
ENDBRANCH  19  21
ENDBRANCH   4  19
BRANCH   1  23
ATOM     23  O   UNL     1       5.686   6.921  17.694  0.00  0.00    +0.000 OA
BRANCH  23  25
ATOM     24  C   UNL     1       5.046   6.675  15.430  0.00  0.00    +0.000 C 
ATOM     25  C   UNL     1       6.162   6.701  16.435  0.00  0.00    +0.000 C 
ATOM     26  O   UNL     1       7.343   6.520  16.167  0.00  0.00    +0.000 OA
ENDBRANCH  23  25
ENDBRANCH   1  23
BRANCH   5  27
ATOM     27  O   UNL     1       4.000   3.454  19.937  0.00  0.00    +0.000 OA
BRANCH  27  28
ATOM     28  C   UNL     1       4.194   2.262  20.575  0.00  0.00    +0.000 C 
ATOM     29  C   UNL     1       3.078   1.969  21.529  0.00  0.00    +0.000 C 
ATOM     30  O   UNL     1       5.140   1.510  20.405  0.00  0.00    +0.000 OA
ENDBRANCH  27  28
ENDBRANCH   5  27
BRANCH   6  31
ATOM     31  O   UNL     1       6.389   4.477  19.107  0.00  0.00    +0.000 OA
BRANCH  31  32
ATOM     32  C   UNL     1       7.644   4.706  18.645  0.00  0.00    +0.000 C 
ATOM     33  C   UNL     1       8.279   5.810  19.440  0.00  0.00    +0.000 C 
ATOM     34  O   UNL     1       8.187   4.085  17.746  0.00  0.00    +0.000 OA
ENDBRANCH  31  32
ENDBRANCH   6  31
TORSDOF 9
ENDMDL
MODEL 2
REMARK VINA RESULT:      -8.1      0.946      1.175
REMARK  Name = 
REMARK  12 active torsions:
REMARK  status: ('A' for Active; 'I' for Inactive)
REMARK    1  A    between atoms: C_1  and  C_2
REMARK    2  A    between atoms: C_2  and  O_4
REMARK    3  A    between atoms: O_4  and  C_5
REMARK    4  A    between atoms: C_6  and  C_7
REMARK    5  A    between atoms: C_20  and  C_21
REMARK    6  A    between atoms: C_21  and  O_23
REMARK    7  A    between atoms: C_24  and  O_25
REMARK    8  A    between atoms: O_25  and  C_26
REMARK    9  A    between atoms: C_26  and  C_27
REMARK   10  A    between atoms: C_29  and  O_30
REMARK   11  A    between atoms: O_30  and  C_31
REMARK   12  A    between atoms: C_31  and  C_32
REMARK                            x       y       z     vdW  Elec       q    Type
REMARK                         _______ _______ _______ _____ _____    ______ ____
ROOT
ATOM      1  C   UNL     1       4.287   5.869  18.227  0.00  0.00    +0.000 C 
ATOM      2  C   UNL     1       2.782   6.141  17.927  0.00  0.00    +0.000 C 
ATOM      3  O   UNL     1       1.958   5.190  18.639  0.00  0.00    +0.000 OA
ATOM      4  C   UNL     1       2.267   3.819  18.329  0.00  0.00    +0.000 C 
ATOM      5  C   UNL     1       3.649   3.451  18.864  0.00  0.00    +0.000 C 
ATOM      6  C   UNL     1       4.707   4.375  18.229  0.00  0.00    +0.000 C 
ENDROOT
BRANCH   2   7
ATOM      7  C   UNL     1       2.333   7.530  18.394  0.00  0.00    +0.000 C 
ATOM      8  C   UNL     1       2.402   8.638  17.636  0.00  0.00    +0.000 C 
ATOM      9  C   UNL     1       1.944   9.969  18.072  0.00  0.00    +0.000 C 
ATOM     10  O   UNL     1       2.156  10.954  17.382  0.00  0.00    +0.000 OA
ATOM     11  C   UNL     1       1.185  10.041  19.326  0.00  0.00    +0.000 A 
ATOM     12  C   UNL     1       0.514  11.221  19.662  0.00  0.00    +0.000 A 
ATOM     13  C   UNL     1      -0.235  11.277  20.838  0.00  0.00    +0.000 A 
ATOM     14  C   UNL     1      -0.307  10.159  21.671  0.00  0.00    +0.000 A 
ATOM     15  C   UNL     1       0.378   8.987  21.341  0.00  0.00    +0.000 A 
ATOM     16  C   UNL     1       1.122   8.926  20.158  0.00  0.00    +0.000 A 
ATOM     17  C   UNL     1       1.845   7.686  19.795  0.00  0.00    +0.000 C 
ATOM     18  O   UNL     1       2.040   6.824  20.642  0.00  0.00    +0.000 OA
ENDBRANCH   2   7
BRANCH   4  19
ATOM     19  C   UNL     1       1.208   2.940  18.996  0.00  0.00    +0.000 C 
ATOM     20  O   UNL     1       0.908   1.815  18.635  0.00  0.00    +0.000 OA
BRANCH  19  21
ATOM     21  O   UNL     1       0.634   3.541  20.069  0.00  0.00    +0.000 OA
ATOM     22  H   UNL     1       1.188   3.363  20.861  0.00  0.00    +0.000 HD
ENDBRANCH  19  21
ENDBRANCH   4  19
BRANCH   1  23
ATOM     23  O   UNL     1       5.197   6.655  17.403  0.00  0.00    +0.000 OA
BRANCH  23  25
ATOM     24  C   UNL     1       5.348   5.268  15.492  0.00  0.00    +0.000 C 
ATOM     25  C   UNL     1       5.043   6.630  16.049  0.00  0.00    +0.000 C 
ATOM     26  O   UNL     1       4.725   7.600  15.373  0.00  0.00    +0.000 OA
ENDBRANCH  23  25
ENDBRANCH   1  23
BRANCH   5  27
ATOM     27  O   UNL     1       3.662   3.637  20.307  0.00  0.00    +0.000 OA
BRANCH  27  28
ATOM     28  C   UNL     1       3.649   2.496  21.058  0.00  0.00    +0.000 C 
ATOM     29  C   UNL     1       4.725   1.550  20.627  0.00  0.00    +0.000 C 
ATOM     30  O   UNL     1       2.877   2.255  21.972  0.00  0.00    +0.000 OA
ENDBRANCH  27  28
ENDBRANCH   5  27
BRANCH   6  31
ATOM     31  O   UNL     1       5.947   4.336  18.991  0.00  0.00    +0.000 OA
BRANCH  31  32
ATOM     32  C   UNL     1       7.095   4.709  18.373  0.00  0.00    +0.000 C 
ATOM     33  C   UNL     1       7.799   5.745  19.201  0.00  0.00    +0.000 C 
ATOM     34  O   UNL     1       7.511   4.247  17.323  0.00  0.00    +0.000 OA
ENDBRANCH  31  32
ENDBRANCH   6  31
TORSDOF 9
ENDMDL
MODEL 3
REMARK VINA RESULT:      -7.7      5.161     10.818
REMARK  Name = 
REMARK  12 active torsions:
REMARK  status: ('A' for Active; 'I' for Inactive)
REMARK    1  A    between atoms: C_1  and  C_2
REMARK    2  A    between atoms: C_2  and  O_4
REMARK    3  A    between atoms: O_4  and  C_5
REMARK    4  A    between atoms: C_6  and  C_7
REMARK    5  A    between atoms: C_20  and  C_21
REMARK    6  A    between atoms: C_21  and  O_23
REMARK    7  A    between atoms: C_24  and  O_25
REMARK    8  A    between atoms: O_25  and  C_26
REMARK    9  A    between atoms: C_26  and  C_27
REMARK   10  A    between atoms: C_29  and  O_30
REMARK   11  A    between atoms: O_30  and  C_31
REMARK   12  A    between atoms: C_31  and  C_32
REMARK                            x       y       z     vdW  Elec       q    Type
REMARK                         _______ _______ _______ _____ _____    ______ ____
ROOT
ATOM      1  C   UNL     1      -2.917  12.048  19.645  0.00  0.00    +0.000 C 
ATOM      2  C   UNL     1      -1.540  12.470  20.241  0.00  0.00    +0.000 C 
ATOM      3  O   UNL     1      -1.711  12.917  21.605  0.00  0.00    +0.000 OA
ATOM      4  C   UNL     1      -2.642  14.006  21.739  0.00  0.00    +0.000 C 
ATOM      5  C   UNL     1      -4.059  13.536  21.417  0.00  0.00    +0.000 C 
ATOM      6  C   UNL     1      -4.104  12.992  19.976  0.00  0.00    +0.000 C 
ENDROOT
BRANCH   2   7
ATOM      7  C   UNL     1      -0.545  11.306  20.293  0.00  0.00    +0.000 C 
ATOM      8  C   UNL     1      -0.432  10.458  21.330  0.00  0.00    +0.000 C 
ATOM      9  C   UNL     1       0.505   9.320  21.370  0.00  0.00    +0.000 C 
ATOM     10  O   UNL     1       0.647   8.670  22.395  0.00  0.00    +0.000 OA
ATOM     11  C   UNL     1       1.201   8.979  20.125  0.00  0.00    +0.000 A 
ATOM     12  C   UNL     1       1.901   7.772  20.031  0.00  0.00    +0.000 A 
ATOM     13  C   UNL     1       2.534   7.433  18.836  0.00  0.00    +0.000 A 
ATOM     14  C   UNL     1       2.469   8.300  17.743  0.00  0.00    +0.000 A 
ATOM     15  C   UNL     1       1.783   9.513  17.845  0.00  0.00    +0.000 A 
ATOM     16  C   UNL     1       1.140   9.850  19.040  0.00  0.00    +0.000 A 
ATOM     17  C   UNL     1       0.403  11.130  19.155  0.00  0.00    +0.000 C 
ATOM     18  O   UNL     1       0.590  12.017  18.333  0.00  0.00    +0.000 OA
ENDBRANCH   2   7
BRANCH   4  19
ATOM     19  C   UNL     1      -2.581  14.497  23.186  0.00  0.00    +0.000 C 
ATOM     20  O   UNL     1      -1.927  13.974  24.071  0.00  0.00    +0.000 OA
BRANCH  19  21
ATOM     21  O   UNL     1      -3.328  15.612  23.390  0.00  0.00    +0.000 OA
ATOM     22  H   UNL     1      -3.310  16.154  22.569  0.00  0.00    +0.000 HD
ENDBRANCH  19  21
ENDBRANCH   4  19
BRANCH   1  23
ATOM     23  O   UNL     1      -2.872  11.766  18.216  0.00  0.00    +0.000 OA
BRANCH  23  25
ATOM     24  C   UNL     1      -1.975   9.973  16.961  0.00  0.00    +0.000 C 
ATOM     25  C   UNL     1      -3.115  10.494  17.789  0.00  0.00    +0.000 C 
ATOM     26  O   UNL     1      -4.141   9.871  18.028  0.00  0.00    +0.000 OA
ENDBRANCH  23  25
ENDBRANCH   1  23
BRANCH   5  27
ATOM     27  O   UNL     1      -4.423  12.470  22.338  0.00  0.00    +0.000 OA
BRANCH  27  28
ATOM     28  C   UNL     1      -5.369  12.783  23.273  0.00  0.00    +0.000 C 
ATOM     29  C   UNL     1      -6.348  13.783  22.742  0.00  0.00    +0.000 C 
ATOM     30  O   UNL     1      -5.436  12.319  24.400  0.00  0.00    +0.000 OA
ENDBRANCH  27  28
ENDBRANCH   5  27
BRANCH   6  31
ATOM     31  O   UNL     1      -5.296  12.182  19.770  0.00  0.00    +0.000 OA
BRANCH  31  32
ATOM     32  C   UNL     1      -6.226  12.618  18.882  0.00  0.00    +0.000 C 
ATOM     33  C   UNL     1      -7.601  12.365  19.429  0.00  0.00    +0.000 C 
ATOM     34  O   UNL     1      -5.981  13.166  17.820  0.00  0.00    +0.000 OA
ENDBRANCH  31  32
ENDBRANCH   6  31
TORSDOF 9
ENDMDL
MODEL 4
REMARK VINA RESULT:      -7.7      1.064      2.013
REMARK  Name = 
REMARK  12 active torsions:
REMARK  status: ('A' for Active; 'I' for Inactive)
REMARK    1  A    between atoms: C_1  and  C_2
REMARK    2  A    between atoms: C_2  and  O_4
REMARK    3  A    between atoms: O_4  and  C_5
REMARK    4  A    between atoms: C_6  and  C_7
REMARK    5  A    between atoms: C_20  and  C_21
REMARK    6  A    between atoms: C_21  and  O_23
REMARK    7  A    between atoms: C_24  and  O_25
REMARK    8  A    between atoms: O_25  and  C_26
REMARK    9  A    between atoms: C_26  and  C_27
REMARK   10  A    between atoms: C_29  and  O_30
REMARK   11  A    between atoms: O_30  and  C_31
REMARK   12  A    between atoms: C_31  and  C_32
REMARK                            x       y       z     vdW  Elec       q    Type
REMARK                         _______ _______ _______ _____ _____    ______ ____
ROOT
ATOM      1  C   UNL     1       4.423   6.256  18.676  0.00  0.00    +0.000 C 
ATOM      2  C   UNL     1       2.959   6.426  18.171  0.00  0.00    +0.000 C 
ATOM      3  O   UNL     1       2.198   5.229  18.452  0.00  0.00    +0.000 OA
ATOM      4  C   UNL     1       2.768   4.040  17.874  0.00  0.00    +0.000 C 
ATOM      5  C   UNL     1       4.092   3.699  18.555  0.00  0.00    +0.000 C 
ATOM      6  C   UNL     1       5.072   4.876  18.386  0.00  0.00    +0.000 C 
ENDROOT
BRANCH   2   7
ATOM      7  C   UNL     1       2.226   7.573  18.875  0.00  0.00    +0.000 C 
ATOM      8  C   UNL     1       1.679   7.478  20.099  0.00  0.00    +0.000 C 
ATOM      9  C   UNL     1       1.000   8.590  20.791  0.00  0.00    +0.000 C 
ATOM     10  O   UNL     1       0.412   8.396  21.845  0.00  0.00    +0.000 OA
ATOM     11  C   UNL     1       1.113   9.923  20.190  0.00  0.00    +0.000 A 
ATOM     12  C   UNL     1       0.711  11.047  20.920  0.00  0.00    +0.000 A 
ATOM     13  C   UNL     1       0.851  12.317  20.361  0.00  0.00    +0.000 A 
ATOM     14  C   UNL     1       1.385  12.459  19.079  0.00  0.00    +0.000 A 
ATOM     15  C   UNL     1       1.769  11.334  18.347  0.00  0.00    +0.000 A 
ATOM     16  C   UNL     1       1.639  10.060  18.909  0.00  0.00    +0.000 A 
ATOM     17  C   UNL     1       2.052   8.861  18.143  0.00  0.00    +0.000 C 
ATOM     18  O   UNL     1       2.229   8.941  16.935  0.00  0.00    +0.000 OA
ENDBRANCH   2   7
BRANCH   4  19
ATOM     19  C   UNL     1       1.773   2.897  18.086  0.00  0.00    +0.000 C 
ATOM     20  O   UNL     1       0.608   3.040  18.411  0.00  0.00    +0.000 OA
BRANCH  19  21
ATOM     21  O   UNL     1       2.324   1.678  17.851  0.00  0.00    +0.000 OA
ATOM     22  H   UNL     1       1.600   1.042  17.657  0.00  0.00    +0.000 HD
ENDBRANCH  19  21
ENDBRANCH   4  19
BRANCH   1  23
ATOM     23  O   UNL     1       5.311   7.335  18.264  0.00  0.00    +0.000 OA
BRANCH  23  25
ATOM     24  C   UNL     1       7.347   7.743  17.131  0.00  0.00    +0.000 C 
ATOM     25  C   UNL     1       5.930   7.250  17.052  0.00  0.00    +0.000 C 
ATOM     26  O   UNL     1       5.390   6.851  16.029  0.00  0.00    +0.000 OA
ENDBRANCH  23  25
ENDBRANCH   1  23
BRANCH   5  27
ATOM     27  O   UNL     1       3.851   3.483  19.974  0.00  0.00    +0.000 OA
BRANCH  27  28
ATOM     28  C   UNL     1       4.181   2.248  20.456  0.00  0.00    +0.000 C 
ATOM     29  C   UNL     1       3.217   1.802  21.511  0.00  0.00    +0.000 C 
ATOM     30  O   UNL     1       5.127   1.570  20.089  0.00  0.00    +0.000 OA
ENDBRANCH  27  28
ENDBRANCH   5  27
BRANCH   6  31
ATOM     31  O   UNL     1       6.170   4.771  19.337  0.00  0.00    +0.000 OA
BRANCH  31  32
ATOM     32  C   UNL     1       7.440   4.826  18.863  0.00  0.00    +0.000 C 
ATOM     33  C   UNL     1       8.302   5.595  19.822  0.00  0.00    +0.000 C 
ATOM     34  O   UNL     1       7.831   4.299  17.834  0.00  0.00    +0.000 OA
ENDBRANCH  31  32
ENDBRANCH   6  31
TORSDOF 9
ENDMDL
MODEL 5
REMARK VINA RESULT:      -7.6      5.124     10.938
REMARK  Name = 
REMARK  12 active torsions:
REMARK  status: ('A' for Active; 'I' for Inactive)
REMARK    1  A    between atoms: C_1  and  C_2
REMARK    2  A    between atoms: C_2  and  O_4
REMARK    3  A    between atoms: O_4  and  C_5
REMARK    4  A    between atoms: C_6  and  C_7
REMARK    5  A    between atoms: C_20  and  C_21
REMARK    6  A    between atoms: C_21  and  O_23
REMARK    7  A    between atoms: C_24  and  O_25
REMARK    8  A    between atoms: O_25  and  C_26
REMARK    9  A    between atoms: C_26  and  C_27
REMARK   10  A    between atoms: C_29  and  O_30
REMARK   11  A    between atoms: O_30  and  C_31
REMARK   12  A    between atoms: C_31  and  C_32
REMARK                            x       y       z     vdW  Elec       q    Type
REMARK                         _______ _______ _______ _____ _____    ______ ____
ROOT
ATOM      1  C   UNL     1      -2.607  12.417  20.007  0.00  0.00    +0.000 C 
ATOM      2  C   UNL     1      -1.157  12.732  20.483  0.00  0.00    +0.000 C 
ATOM      3  O   UNL     1      -1.177  13.193  21.854  0.00  0.00    +0.000 OA
ATOM      4  C   UNL     1      -2.008  14.350  22.056  0.00  0.00    +0.000 C 
ATOM      5  C   UNL     1      -3.479  13.991  21.857  0.00  0.00    +0.000 C 
ATOM      6  C   UNL     1      -3.686  13.450  20.429  0.00  0.00    +0.000 C 
ENDROOT
BRANCH   2   7
ATOM      7  C   UNL     1      -0.252  11.495  20.461  0.00  0.00    +0.000 C 
ATOM      8  C   UNL     1      -0.145  10.622  21.478  0.00  0.00    +0.000 C 
ATOM      9  C   UNL     1       0.702   9.416  21.448  0.00  0.00    +0.000 C 
ATOM     10  O   UNL     1       0.852   8.739  22.454  0.00  0.00    +0.000 OA
ATOM     11  C   UNL     1       1.296   9.045  20.159  0.00  0.00    +0.000 A 
ATOM     12  C   UNL     1       1.895   7.789  20.008  0.00  0.00    +0.000 A 
ATOM     13  C   UNL     1       2.429   7.425  18.773  0.00  0.00    +0.000 A 
ATOM     14  C   UNL     1       2.368   8.314  17.698  0.00  0.00    +0.000 A 
ATOM     15  C   UNL     1       1.785   9.573  17.857  0.00  0.00    +0.000 A 
ATOM     16  C   UNL     1       1.239   9.937  19.092  0.00  0.00    +0.000 A 
ATOM     17  C   UNL     1       0.612  11.267  19.267  0.00  0.00    +0.000 C 
ATOM     18  O   UNL     1       0.819  12.151  18.447  0.00  0.00    +0.000 OA
ENDBRANCH   2   7
BRANCH   4  19
ATOM     19  C   UNL     1      -1.788  14.836  23.489  0.00  0.00    +0.000 C 
ATOM     20  O   UNL     1      -0.878  14.476  24.215  0.00  0.00    +0.000 OA
BRANCH  19  21
ATOM     21  O   UNL     1      -2.718  15.746  23.879  0.00  0.00    +0.000 OA
ATOM     22  H   UNL     1      -3.334  15.904  23.128  0.00  0.00    +0.000 HD
ENDBRANCH  19  21
ENDBRANCH   4  19
BRANCH   1  23
ATOM     23  O   UNL     1      -2.703  12.131  18.581  0.00  0.00    +0.000 OA
BRANCH  23  25
ATOM     24  C   UNL     1      -4.453  10.841  17.649  0.00  0.00    +0.000 C 
ATOM     25  C   UNL     1      -3.050  10.873  18.186  0.00  0.00    +0.000 C 
ATOM     26  O   UNL     1      -2.321   9.895  18.283  0.00  0.00    +0.000 OA
ENDBRANCH  23  25
ENDBRANCH   1  23
BRANCH   5  27
ATOM     27  O   UNL     1      -3.846  12.957  22.813  0.00  0.00    +0.000 OA
BRANCH  27  28
ATOM     28  C   UNL     1      -4.829  13.284  23.703  0.00  0.00    +0.000 C 
ATOM     29  C   UNL     1      -4.937  12.264  24.793  0.00  0.00    +0.000 C 
ATOM     30  O   UNL     1      -5.539  14.276  23.646  0.00  0.00    +0.000 OA
ENDBRANCH  27  28
ENDBRANCH   5  27
BRANCH   6  31
ATOM     31  O   UNL     1      -4.950  12.734  20.328  0.00  0.00    +0.000 OA
BRANCH  31  32
ATOM     32  C   UNL     1      -6.071  13.443  20.043  0.00  0.00    +0.000 C 
ATOM     33  C   UNL     1      -7.243  12.843  20.764  0.00  0.00    +0.000 C 
ATOM     34  O   UNL     1      -6.113  14.438  19.339  0.00  0.00    +0.000 OA
ENDBRANCH  31  32
ENDBRANCH   6  31
TORSDOF 9
ENDMDL
MODEL 6
REMARK VINA RESULT:      -7.5      5.654     11.216
REMARK  Name = 
REMARK  12 active torsions:
REMARK  status: ('A' for Active; 'I' for Inactive)
REMARK    1  A    between atoms: C_1  and  C_2
REMARK    2  A    between atoms: C_2  and  O_4
REMARK    3  A    between atoms: O_4  and  C_5
REMARK    4  A    between atoms: C_6  and  C_7
REMARK    5  A    between atoms: C_20  and  C_21
REMARK    6  A    between atoms: C_21  and  O_23
REMARK    7  A    between atoms: C_24  and  O_25
REMARK    8  A    between atoms: O_25  and  C_26
REMARK    9  A    between atoms: C_26  and  C_27
REMARK   10  A    between atoms: C_29  and  O_30
REMARK   11  A    between atoms: O_30  and  C_31
REMARK   12  A    between atoms: C_31  and  C_32
REMARK                            x       y       z     vdW  Elec       q    Type
REMARK                         _______ _______ _______ _____ _____    ______ ____
ROOT
ATOM      1  C   UNL     1      -3.438  12.210  19.628  0.00  0.00    +0.000 C 
ATOM      2  C   UNL     1      -2.159  12.699  20.374  0.00  0.00    +0.000 C 
ATOM      3  O   UNL     1      -2.506  13.153  21.701  0.00  0.00    +0.000 OA
ATOM      4  C   UNL     1      -3.493  14.201  21.708  0.00  0.00    +0.000 C 
ATOM      5  C   UNL     1      -4.842  13.665  21.232  0.00  0.00    +0.000 C 
ATOM      6  C   UNL     1      -4.695  13.104  19.805  0.00  0.00    +0.000 C 
ENDROOT
BRANCH   2   7
ATOM      7  C   UNL     1      -1.128  11.581  20.560  0.00  0.00    +0.000 C 
ATOM      8  C   UNL     1      -1.018  10.835  21.672  0.00  0.00    +0.000 C 
ATOM      9  C   UNL     1      -0.046   9.740  21.842  0.00  0.00    +0.000 C 
ATOM     10  O   UNL     1       0.086   9.191  22.926  0.00  0.00    +0.000 OA
ATOM     11  C   UNL     1       0.700   9.313  20.653  0.00  0.00    +0.000 A 
ATOM     12  C   UNL     1       1.442   8.128  20.690  0.00  0.00    +0.000 A 
ATOM     13  C   UNL     1       2.122   7.706  19.548  0.00  0.00    +0.000 A 
ATOM     14  C   UNL     1       2.062   8.468  18.380  0.00  0.00    +0.000 A 
ATOM     15  C   UNL     1       1.333   9.659  18.351  0.00  0.00    +0.000 A 
ATOM     16  C   UNL     1       0.643  10.079  19.492  0.00  0.00    +0.000 A 
ATOM     17  C   UNL     1      -0.140  11.337  19.469  0.00  0.00    +0.000 C 
ATOM     18  O   UNL     1       0.043  12.152  18.575  0.00  0.00    +0.000 OA
ENDBRANCH   2   7
BRANCH   4  19
ATOM     19  C   UNL     1      -3.621  14.710  23.145  0.00  0.00    +0.000 C 
ATOM     20  O   UNL     1      -2.910  14.366  24.072  0.00  0.00    +0.000 OA
BRANCH  19  21
ATOM     21  O   UNL     1      -4.618  15.621  23.287  0.00  0.00    +0.000 OA
ATOM     22  H   UNL     1      -4.221  16.521  23.287  0.00  0.00    +0.000 HD
ENDBRANCH  19  21
ENDBRANCH   4  19
BRANCH   1  23
ATOM     23  O   UNL     1      -3.215  11.915  18.219  0.00  0.00    +0.000 OA
BRANCH  23  25
ATOM     24  C   UNL     1      -2.259  10.241  16.847  0.00  0.00    +0.000 C 
ATOM     25  C   UNL     1      -3.366  10.631  17.785  0.00  0.00    +0.000 C 
ATOM     26  O   UNL     1      -4.299   9.903  18.098  0.00  0.00    +0.000 OA
ENDBRANCH  23  25
ENDBRANCH   1  23
BRANCH   5  27
ATOM     27  O   UNL     1      -5.264  12.594  22.122  0.00  0.00    +0.000 OA
BRANCH  27  28
ATOM     28  C   UNL     1      -6.456  12.782  22.762  0.00  0.00    +0.000 C 
ATOM     29  C   UNL     1      -7.484  11.798  22.295  0.00  0.00    +0.000 C 
ATOM     30  O   UNL     1      -6.682  13.628  23.612  0.00  0.00    +0.000 OA
ENDBRANCH  27  28
ENDBRANCH   5  27
BRANCH   6  31
ATOM     31  O   UNL     1      -5.819  12.239  19.475  0.00  0.00    +0.000 OA
BRANCH  31  32
ATOM     32  C   UNL     1      -6.837  12.757  18.743  0.00  0.00    +0.000 C 
ATOM     33  C   UNL     1      -6.557  12.559  17.281  0.00  0.00    +0.000 C 
ATOM     34  O   UNL     1      -7.843  13.271  19.202  0.00  0.00    +0.000 OA
ENDBRANCH  31  32
ENDBRANCH   6  31
TORSDOF 9
ENDMDL
MODEL 7
REMARK VINA RESULT:      -7.5      1.080      1.419
REMARK  Name = 
REMARK  12 active torsions:
REMARK  status: ('A' for Active; 'I' for Inactive)
REMARK    1  A    between atoms: C_1  and  C_2
REMARK    2  A    between atoms: C_2  and  O_4
REMARK    3  A    between atoms: O_4  and  C_5
REMARK    4  A    between atoms: C_6  and  C_7
REMARK    5  A    between atoms: C_20  and  C_21
REMARK    6  A    between atoms: C_21  and  O_23
REMARK    7  A    between atoms: C_24  and  O_25
REMARK    8  A    between atoms: O_25  and  C_26
REMARK    9  A    between atoms: C_26  and  C_27
REMARK   10  A    between atoms: C_29  and  O_30
REMARK   11  A    between atoms: O_30  and  C_31
REMARK   12  A    between atoms: C_31  and  C_32
REMARK                            x       y       z     vdW  Elec       q    Type
REMARK                         _______ _______ _______ _____ _____    ______ ____
ROOT
ATOM      1  C   UNL     1       3.990   6.580  18.401  0.00  0.00    +0.000 C 
ATOM      2  C   UNL     1       2.467   6.794  18.151  0.00  0.00    +0.000 C 
ATOM      3  O   UNL     1       1.721   5.663  18.657  0.00  0.00    +0.000 OA
ATOM      4  C   UNL     1       2.127   4.407  18.083  0.00  0.00    +0.000 C 
ATOM      5  C   UNL     1       3.538   4.043  18.543  0.00  0.00    +0.000 C 
ATOM      6  C   UNL     1       4.519   5.150  18.110  0.00  0.00    +0.000 C 
ENDROOT
BRANCH   2   7
ATOM      7  C   UNL     1       1.922   8.026  18.882  0.00  0.00    +0.000 C 
ATOM      8  C   UNL     1       1.782   9.237  18.314  0.00  0.00    +0.000 C 
ATOM      9  C   UNL     1       1.230  10.416  19.006  0.00  0.00    +0.000 C 
ATOM     10  O   UNL     1       1.254  11.515  18.471  0.00  0.00    +0.000 OA
ATOM     11  C   UNL     1       0.613  10.198  20.319  0.00  0.00    +0.000 A 
ATOM     12  C   UNL     1      -0.143  11.217  20.906  0.00  0.00    +0.000 A 
ATOM     13  C   UNL     1      -0.757  10.996  22.139  0.00  0.00    +0.000 A 
ATOM     14  C   UNL     1      -0.611   9.764  22.779  0.00  0.00    +0.000 A 
ATOM     15  C   UNL     1       0.159   8.754  22.197  0.00  0.00    +0.000 A 
ATOM     16  C   UNL     1       0.768   8.970  20.956  0.00  0.00    +0.000 A 
ATOM     17  C   UNL     1       1.579   7.902  20.328  0.00  0.00    +0.000 C 
ATOM     18  O   UNL     1       1.962   6.953  20.998  0.00  0.00    +0.000 OA
ENDBRANCH   2   7
BRANCH   4  19
ATOM     19  C   UNL     1       1.142   3.338  18.557  0.00  0.00    +0.000 C 
ATOM     20  O   UNL     1       0.967   2.262  18.013  0.00  0.00    +0.000 OA
BRANCH  19  21
ATOM     21  O   UNL     1       0.478   3.705  19.683  0.00  0.00    +0.000 OA
ATOM     22  H   UNL     1       0.797   4.593  19.958  0.00  0.00    +0.000 HD
ENDBRANCH  19  21
ENDBRANCH   4  19
BRANCH   1  23
ATOM     23  O   UNL     1       4.833   7.578  17.754  0.00  0.00    +0.000 OA
BRANCH  23  25
ATOM     24  C   UNL     1       7.002   7.474  16.817  0.00  0.00    +0.000 C 
ATOM     25  C   UNL     1       5.532   7.223  16.638  0.00  0.00    +0.000 C 
ATOM     26  O   UNL     1       5.021   6.785  15.615  0.00  0.00    +0.000 OA
ENDBRANCH  23  25
ENDBRANCH   1  23
BRANCH   5  27
ATOM     27  O   UNL     1       3.549   3.941  19.994  0.00  0.00    +0.000 OA
BRANCH  27  28
ATOM     28  C   UNL     1       3.883   2.719  20.506  0.00  0.00    +0.000 C 
ATOM     29  C   UNL     1       2.898   2.279  21.545  0.00  0.00    +0.000 C 
ATOM     30  O   UNL     1       4.847   2.048  20.175  0.00  0.00    +0.000 OA
ENDBRANCH  27  28
ENDBRANCH   5  27
BRANCH   6  31
ATOM     31  O   UNL     1       5.766   5.052  18.856  0.00  0.00    +0.000 OA
BRANCH  31  32
ATOM     32  C   UNL     1       6.850   4.526  18.233  0.00  0.00    +0.000 C 
ATOM     33  C   UNL     1       6.436   3.939  16.914  0.00  0.00    +0.000 C 
ATOM     34  O   UNL     1       7.991   4.559  18.660  0.00  0.00    +0.000 OA
ENDBRANCH  31  32
ENDBRANCH   6  31
TORSDOF 9
ENDMDL
MODEL 8
REMARK VINA RESULT:      -7.5      1.644      4.460
REMARK  Name = 
REMARK  12 active torsions:
REMARK  status: ('A' for Active; 'I' for Inactive)
REMARK    1  A    between atoms: C_1  and  C_2
REMARK    2  A    between atoms: C_2  and  O_4
REMARK    3  A    between atoms: O_4  and  C_5
REMARK    4  A    between atoms: C_6  and  C_7
REMARK    5  A    between atoms: C_20  and  C_21
REMARK    6  A    between atoms: C_21  and  O_23
REMARK    7  A    between atoms: C_24  and  O_25
REMARK    8  A    between atoms: O_25  and  C_26
REMARK    9  A    between atoms: C_26  and  C_27
REMARK   10  A    between atoms: C_29  and  O_30
REMARK   11  A    between atoms: O_30  and  C_31
REMARK   12  A    between atoms: C_31  and  C_32
REMARK                            x       y       z     vdW  Elec       q    Type
REMARK                         _______ _______ _______ _____ _____    ______ ____
ROOT
ATOM      1  C   UNL     1       2.974   5.047  18.729  0.00  0.00    +0.000 C 
ATOM      2  C   UNL     1       3.525   6.239  19.568  0.00  0.00    +0.000 C 
ATOM      3  O   UNL     1       4.882   6.537  19.169  0.00  0.00    +0.000 OA
ATOM      4  C   UNL     1       5.775   5.415  19.291  0.00  0.00    +0.000 C 
ATOM      5  C   UNL     1       5.413   4.335  18.274  0.00  0.00    +0.000 C 
ATOM      6  C   UNL     1       3.963   3.870  18.514  0.00  0.00    +0.000 C 
ENDROOT
BRANCH   2   7
ATOM      7  C   UNL     1       2.722   7.526  19.353  0.00  0.00    +0.000 C 
ATOM      8  C   UNL     1       2.803   8.288  18.248  0.00  0.00    +0.000 C 
ATOM      9  C   UNL     1       2.010   9.511  18.026  0.00  0.00    +0.000 C 
ATOM     10  O   UNL     1       2.229  10.224  17.058  0.00  0.00    +0.000 OA
ATOM     11  C   UNL     1       0.928   9.791  18.976  0.00  0.00    +0.000 A 
ATOM     12  C   UNL     1      -0.011  10.786  18.682  0.00  0.00    +0.000 A 
ATOM     13  C   UNL     1      -1.059  11.028  19.571  0.00  0.00    +0.000 A 
ATOM     14  C   UNL     1      -1.162  10.282  20.746  0.00  0.00    +0.000 A 
ATOM     15  C   UNL     1      -0.213   9.301  21.044  0.00  0.00    +0.000 A 
ATOM     16  C   UNL     1       0.833   9.050  20.151  0.00  0.00    +0.000 A 
ATOM     17  C   UNL     1       1.839   8.006  20.454  0.00  0.00    +0.000 C 
ATOM     18  O   UNL     1       1.937   7.568  21.593  0.00  0.00    +0.000 OA
ENDBRANCH   2   7
BRANCH   4  19
ATOM     19  C   UNL     1       7.194   5.918  19.022  0.00  0.00    +0.000 C 
ATOM     20  O   UNL     1       8.200   5.476  19.548  0.00  0.00    +0.000 OA
BRANCH  19  21
ATOM     21  O   UNL     1       7.227   6.916  18.103  0.00  0.00    +0.000 OA
ATOM     22  H   UNL     1       7.281   7.775  18.578  0.00  0.00    +0.000 HD
ENDBRANCH  19  21
ENDBRANCH   4  19
BRANCH   1  23
ATOM     23  O   UNL     1       1.685   4.552  19.194  0.00  0.00    +0.000 OA
BRANCH  23  25
ATOM     24  C   UNL     1       0.752   2.711  20.350  0.00  0.00    +0.000 C 
ATOM     25  C   UNL     1       1.616   3.939  20.410  0.00  0.00    +0.000 C 
ATOM     26  O   UNL     1       2.165   4.352  21.422  0.00  0.00    +0.000 OA
ENDBRANCH  23  25
ENDBRANCH   1  23
BRANCH   5  27
ATOM     27  O   UNL     1       5.515   4.894  16.934  0.00  0.00    +0.000 OA
BRANCH  27  28
ATOM     28  C   UNL     1       6.486   4.360  16.134  0.00  0.00    +0.000 C 
ATOM     29  C   UNL     1       5.913   3.867  14.842  0.00  0.00    +0.000 C 
ATOM     30  O   UNL     1       7.673   4.287  16.408  0.00  0.00    +0.000 OA
ENDBRANCH  27  28
ENDBRANCH   5  27
BRANCH   6  31
ATOM     31  O   UNL     1       3.452   3.158  17.351  0.00  0.00    +0.000 OA
BRANCH  31  32
ATOM     32  C   UNL     1       2.819   1.975  17.547  0.00  0.00    +0.000 C 
ATOM     33  C   UNL     1       3.671   1.084  18.404  0.00  0.00    +0.000 C 
ATOM     34  O   UNL     1       1.711   1.691  17.123  0.00  0.00    +0.000 OA
ENDBRANCH  31  32
ENDBRANCH   6  31
TORSDOF 9
ENDMDL
MODEL 9
REMARK VINA RESULT:      -7.4      1.418      2.332
REMARK  Name = 
REMARK  12 active torsions:
REMARK  status: ('A' for Active; 'I' for Inactive)
REMARK    1  A    between atoms: C_1  and  C_2
REMARK    2  A    between atoms: C_2  and  O_4
REMARK    3  A    between atoms: O_4  and  C_5
REMARK    4  A    between atoms: C_6  and  C_7
REMARK    5  A    between atoms: C_20  and  C_21
REMARK    6  A    between atoms: C_21  and  O_23
REMARK    7  A    between atoms: C_24  and  O_25
REMARK    8  A    between atoms: O_25  and  C_26
REMARK    9  A    between atoms: C_26  and  C_27
REMARK   10  A    between atoms: C_29  and  O_30
REMARK   11  A    between atoms: O_30  and  C_31
REMARK   12  A    between atoms: C_31  and  C_32
REMARK                            x       y       z     vdW  Elec       q    Type
REMARK                         _______ _______ _______ _____ _____    ______ ____
ROOT
ATOM      1  C   UNL     1       4.040   6.432  18.821  0.00  0.00    +0.000 C 
ATOM      2  C   UNL     1       2.542   6.635  18.441  0.00  0.00    +0.000 C 
ATOM      3  O   UNL     1       1.756   5.522  18.924  0.00  0.00    +0.000 OA
ATOM      4  C   UNL     1       2.206   4.246  18.430  0.00  0.00    +0.000 C 
ATOM      5  C   UNL     1       3.573   3.901  19.016  0.00  0.00    +0.000 C 
ATOM      6  C   UNL     1       4.588   4.993  18.625  0.00  0.00    +0.000 C 
ENDROOT
BRANCH   2   7
ATOM      7  C   UNL     1       1.942   7.892  19.079  0.00  0.00    +0.000 C 
ATOM      8  C   UNL     1       1.413   7.930  20.315  0.00  0.00    +0.000 C 
ATOM      9  C   UNL     1       0.861   9.145  20.942  0.00  0.00    +0.000 C 
ATOM     10  O   UNL     1       0.279   9.078  22.014  0.00  0.00    +0.000 OA
ATOM     11  C   UNL     1       1.093  10.420  20.254  0.00  0.00    +0.000 A 
ATOM     12  C   UNL     1       0.820  11.622  20.915  0.00  0.00    +0.000 A 
ATOM     13  C   UNL     1       1.073  12.834  20.273  0.00  0.00    +0.000 A 
ATOM     14  C   UNL     1       1.591  12.840  18.977  0.00  0.00    +0.000 A 
ATOM     15  C   UNL     1       1.848  11.638  18.314  0.00  0.00    +0.000 A 
ATOM     16  C   UNL     1       1.604  10.422  18.959  0.00  0.00    +0.000 A 
ATOM     17  C   UNL     1       1.880   9.141  18.267  0.00  0.00    +0.000 C 
ATOM     18  O   UNL     1       2.039   9.127  17.054  0.00  0.00    +0.000 OA
ENDBRANCH   2   7
BRANCH   4  19
ATOM     19  C   UNL     1       1.183   3.194  18.861  0.00  0.00    +0.000 C 
ATOM     20  O   UNL     1       0.938   2.170  18.248  0.00  0.00    +0.000 OA
BRANCH  19  21
ATOM     21  O   UNL     1       0.573   3.509  20.032  0.00  0.00    +0.000 OA
ATOM     22  H   UNL     1       1.233   3.436  20.757  0.00  0.00    +0.000 HD
ENDBRANCH  19  21
ENDBRANCH   4  19
BRANCH   1  23
ATOM     23  O   UNL     1       4.934   7.407  18.209  0.00  0.00    +0.000 OA
BRANCH  23  25
ATOM     24  C   UNL     1       6.904   7.505  16.903  0.00  0.00    +0.000 C 
ATOM     25  C   UNL     1       5.447   7.143  16.974  0.00  0.00    +0.000 C 
ATOM     26  O   UNL     1       4.797   6.696  16.038  0.00  0.00    +0.000 OA
ENDBRANCH  23  25
ENDBRANCH   1  23
BRANCH   5  27
ATOM     27  O   UNL     1       3.466   3.851  20.467  0.00  0.00    +0.000 OA
BRANCH  27  28
ATOM     28  C   UNL     1       3.537   2.608  21.030  0.00  0.00    +0.000 C 
ATOM     29  C   UNL     1       4.559   1.758  20.341  0.00  0.00    +0.000 C 
ATOM     30  O   UNL     1       2.873   2.216  21.976  0.00  0.00    +0.000 OA
ENDBRANCH  27  28
ENDBRANCH   5  27
BRANCH   6  31
ATOM     31  O   UNL     1       5.770   4.924  19.474  0.00  0.00    +0.000 OA
BRANCH  31  32
ATOM     32  C   UNL     1       6.985   4.828  18.879  0.00  0.00    +0.000 C 
ATOM     33  C   UNL     1       7.996   5.605  19.672  0.00  0.00    +0.000 C 
ATOM     34  O   UNL     1       7.228   4.180  17.875  0.00  0.00    +0.000 OA
ENDBRANCH  31  32
ENDBRANCH   6  31
TORSDOF 9
ENDMDL
