MODEL 1
REMARK VINA RESULT:      -7.3      0.000      0.000
REMARK  Name = 
REMARK  5 active torsions:
REMARK  status: ('A' for Active; 'I' for Inactive)
REMARK    1  A    between atoms: C_1  and  C_2
REMARK    2  A    between atoms: C_14  and  C_16
REMARK    3  A    between atoms: C_16  and  S_17
REMARK    4  A    between atoms: S_17  and  C_18
REMARK    5  A    between atoms: N_22  and  C_23
REMARK                            x       y       z     vdW  Elec       q    Type
REMARK                         _______ _______ _______ _____ _____    ______ ____
ROOT
ATOM      1  C   UNL     1       2.361   7.933  17.134  0.00  0.00    +0.000 C 
ATOM      2  C   UNL     1       2.230   6.920  18.269  0.00  0.00    +0.000 C 
ATOM      3  C   UNL     1       2.660   7.555  19.598  0.00  0.00    +0.000 C 
ATOM      4  C   UNL     1       1.991   6.809  20.732  0.00  0.00    +0.000 C 
ATOM      5  O   UNL     1       1.031   7.254  21.343  0.00  0.00    +0.000 OA
ATOM      6  N   UNL     1       2.512   5.536  20.912  0.00  0.00    +0.000 N 
ATOM      7  C   UNL     1       1.877   4.549  20.112  0.00  0.00    +0.000 A 
ATOM      8  C   UNL     1       1.116   3.576  20.759  0.00  0.00    +0.000 A 
ATOM      9  C   UNL     1       0.556   2.539  20.017  0.00  0.00    +0.000 A 
ATOM     10  C   UNL     1       0.774   2.471  18.640  0.00  0.00    +0.000 A 
ATOM     11  C   UNL     1       1.555   3.436  17.994  0.00  0.00    +0.000 A 
ATOM     12  C   UNL     1       2.109   4.497  18.718  0.00  0.00    +0.000 A 
ATOM     13  N   UNL     1       2.831   5.555  18.034  0.00  0.00    +0.000 N 
ATOM     14  C   UNL     1       3.971   5.177  17.295  0.00  0.00    +0.000 C 
ATOM     15  O   UNL     1       4.334   3.996  17.243  0.00  0.00    +0.000 OA
ATOM     16  H   UNL     1       3.490   5.554  20.631  0.00  0.00    +0.000 HD
ENDROOT
BRANCH  14  17
ATOM     17  C   UNL     1       4.785   6.264  16.590  0.00  0.00    +0.000 C 
BRANCH  17  18
ATOM     18  S   UNL     1       6.456   5.696  16.097  0.00  0.00    +0.000 S 
BRANCH  18  19
ATOM     19  C   UNL     1       7.276   5.722  17.618  0.00  0.00    +0.000 A 
ATOM     20  N   UNL     1       7.502   4.699  18.410  0.00  0.00    +0.000 NA
ATOM     21  N   UNL     1       8.197   5.203  19.486  0.00  0.00    +0.000 NA
ATOM     22  N   UNL     1       8.393   6.509  19.359  0.00  0.00    +0.000 NA
ATOM     23  N   UNL     1       7.812   6.842  18.191  0.00  0.00    +0.000 N 
ATOM     24  C   UNL     1       7.830   8.205  17.737  0.00  0.00    +0.000 C 
ENDBRANCH  18  19
ENDBRANCH  17  18
ENDBRANCH  14  17
TORSDOF 3
ENDMDL
MODEL 2
REMARK VINA RESULT:      -7.2      1.111      1.475
REMARK  Name = 
REMARK  5 active torsions:
REMARK  status: ('A' for Active; 'I' for Inactive)
REMARK    1  A    between atoms: C_1  and  C_2
REMARK    2  A    between atoms: C_14  and  C_16
REMARK    3  A    between atoms: C_16  and  S_17
REMARK    4  A    between atoms: S_17  and  C_18
REMARK    5  A    between atoms: N_22  and  C_23
REMARK                            x       y       z     vdW  Elec       q    Type
REMARK                         _______ _______ _______ _____ _____    ______ ____
ROOT
ATOM      1  C   UNL     1       1.850   8.458  17.406  0.00  0.00    +0.000 C 
ATOM      2  C   UNL     1       1.843   7.371  18.480  0.00  0.00    +0.000 C 
ATOM      3  C   UNL     1       2.162   7.981  19.852  0.00  0.00    +0.000 C 
ATOM      4  C   UNL     1       1.586   7.086  20.927  0.00  0.00    +0.000 C 
ATOM      5  O   UNL     1       0.565   7.359  21.541  0.00  0.00    +0.000 OA
ATOM      6  N   UNL     1       2.276   5.887  21.048  0.00  0.00    +0.000 N 
ATOM      7  C   UNL     1       1.794   4.871  20.179  0.00  0.00    +0.000 A 
ATOM      8  C   UNL     1       1.165   3.767  20.754  0.00  0.00    +0.000 A 
ATOM      9  C   UNL     1       0.764   2.709  19.944  0.00  0.00    +0.000 A 
ATOM     10  C   UNL     1       1.010   2.751  18.571  0.00  0.00    +0.000 A 
ATOM     11  C   UNL     1       1.659   3.850  17.996  0.00  0.00    +0.000 A 
ATOM     12  C   UNL     1       2.051   4.933  18.791  0.00  0.00    +0.000 A 
ATOM     13  N   UNL     1       2.630   6.118  18.183  0.00  0.00    +0.000 N 
ATOM     14  C   UNL     1       3.822   5.943  17.450  0.00  0.00    +0.000 C 
ATOM     15  O   UNL     1       4.345   4.828  17.340  0.00  0.00    +0.000 OA
ATOM     16  H   UNL     1       3.245   6.055  20.790  0.00  0.00    +0.000 HD
ENDROOT
BRANCH  14  17
ATOM     17  C   UNL     1       4.489   7.171  16.825  0.00  0.00    +0.000 C 
BRANCH  17  18
ATOM     18  S   UNL     1       6.124   7.544  17.560  0.00  0.00    +0.000 S 
BRANCH  18  19
ATOM     19  C   UNL     1       6.971   6.070  17.249  0.00  0.00    +0.000 A 
ATOM     20  N   UNL     1       7.140   5.489  16.083  0.00  0.00    +0.000 NA
ATOM     21  N   UNL     1       7.887   4.360  16.331  0.00  0.00    +0.000 NA
ATOM     22  N   UNL     1       8.171   4.248  17.622  0.00  0.00    +0.000 NA
ATOM     23  N   UNL     1       7.594   5.317  18.204  0.00  0.00    +0.000 N 
ATOM     24  C   UNL     1       7.698   5.510  19.624  0.00  0.00    +0.000 C 
ENDBRANCH  18  19
ENDBRANCH  17  18
ENDBRANCH  14  17
TORSDOF 3
ENDMDL
MODEL 3
REMARK VINA RESULT:      -7.1      0.837      1.408
REMARK  Name = 
REMARK  5 active torsions:
REMARK  status: ('A' for Active; 'I' for Inactive)
REMARK    1  A    between atoms: C_1  and  C_2
REMARK    2  A    between atoms: C_14  and  C_16
REMARK    3  A    between atoms: C_16  and  S_17
REMARK    4  A    between atoms: S_17  and  C_18
REMARK    5  A    between atoms: N_22  and  C_23
REMARK                            x       y       z     vdW  Elec       q    Type
REMARK                         _______ _______ _______ _____ _____    ______ ____
ROOT
ATOM      1  C   UNL     1       2.247   8.095  17.252  0.00  0.00    +0.000 C 
ATOM      2  C   UNL     1       2.117   7.058  18.366  0.00  0.00    +0.000 C 
ATOM      3  C   UNL     1       2.437   7.698  19.724  0.00  0.00    +0.000 C 
ATOM      4  C   UNL     1       1.756   6.895  20.811  0.00  0.00    +0.000 C 
ATOM      5  O   UNL     1       0.739   7.273  21.375  0.00  0.00    +0.000 OA
ATOM      6  N   UNL     1       2.343   5.653  21.004  0.00  0.00    +0.000 N 
ATOM      7  C   UNL     1       1.811   4.643  20.158  0.00  0.00    +0.000 A 
ATOM      8  C   UNL     1       1.078   3.616  20.752  0.00  0.00    +0.000 A 
ATOM      9  C   UNL     1       0.622   2.559  19.968  0.00  0.00    +0.000 A 
ATOM     10  C   UNL     1       0.916   2.525  18.605  0.00  0.00    +0.000 A 
ATOM     11  C   UNL     1       1.670   3.545  18.013  0.00  0.00    +0.000 A 
ATOM     12  C   UNL     1       2.119   4.626  18.779  0.00  0.00    +0.000 A 
ATOM     13  N   UNL     1       2.812   5.735  18.147  0.00  0.00    +0.000 N 
ATOM     14  C   UNL     1       4.010   5.437  17.466  0.00  0.00    +0.000 C 
ATOM     15  O   UNL     1       4.446   4.282  17.419  0.00  0.00    +0.000 OA
ATOM     16  H   UNL     1       3.331   5.734  20.776  0.00  0.00    +0.000 HD
ENDROOT
BRANCH  14  17
ATOM     17  C   UNL     1       4.793   6.583  16.819  0.00  0.00    +0.000 C 
BRANCH  17  18
ATOM     18  S   UNL     1       6.501   6.106  16.359  0.00  0.00    +0.000 S 
BRANCH  18  19
ATOM     19  C   UNL     1       7.423   7.173  17.360  0.00  0.00    +0.000 A 
ATOM     20  N   UNL     1       7.705   8.433  17.119  0.00  0.00    +0.000 NA
ATOM     21  N   UNL     1       8.440   8.866  18.200  0.00  0.00    +0.000 NA
ATOM     22  N   UNL     1       8.607   7.893  19.085  0.00  0.00    +0.000 NA
ATOM     23  N   UNL     1       7.975   6.826  18.561  0.00  0.00    +0.000 N 
ATOM     24  C   UNL     1       7.963   5.574  19.267  0.00  0.00    +0.000 C 
ENDBRANCH  18  19
ENDBRANCH  17  18
ENDBRANCH  14  17
TORSDOF 3
ENDMDL
MODEL 4
REMARK VINA RESULT:      -7.0      3.029      5.961
REMARK  Name = 
REMARK  5 active torsions:
REMARK  status: ('A' for Active; 'I' for Inactive)
REMARK    1  A    between atoms: C_1  and  C_2
REMARK    2  A    between atoms: C_14  and  C_16
REMARK    3  A    between atoms: C_16  and  S_17
REMARK    4  A    between atoms: S_17  and  C_18
REMARK    5  A    between atoms: N_22  and  C_23
REMARK                            x       y       z     vdW  Elec       q    Type
REMARK                         _______ _______ _______ _____ _____    ______ ____
ROOT
ATOM      1  C   UNL     1       1.396   4.388  18.170  0.00  0.00    +0.000 C 
ATOM      2  C   UNL     1       2.921   4.411  18.257  0.00  0.00    +0.000 C 
ATOM      3  C   UNL     1       3.377   4.009  19.666  0.00  0.00    +0.000 C 
ATOM      4  C   UNL     1       4.787   3.468  19.584  0.00  0.00    +0.000 C 
ATOM      5  O   UNL     1       5.044   2.275  19.645  0.00  0.00    +0.000 OA
ATOM      6  N   UNL     1       5.723   4.457  19.318  0.00  0.00    +0.000 N 
ATOM      7  C   UNL     1       5.913   4.693  17.929  0.00  0.00    +0.000 A 
ATOM      8  C   UNL     1       7.143   4.348  17.372  0.00  0.00    +0.000 A 
ATOM      9  C   UNL     1       7.400   4.650  16.038  0.00  0.00    +0.000 A 
ATOM     10  C   UNL     1       6.435   5.310  15.275  0.00  0.00    +0.000 A 
ATOM     11  C   UNL     1       5.207   5.674  15.840  0.00  0.00    +0.000 A 
ATOM     12  C   UNL     1       4.923   5.361  17.173  0.00  0.00    +0.000 A 
ATOM     13  N   UNL     1       3.612   5.645  17.730  0.00  0.00    +0.000 N 
ATOM     14  C   UNL     1       3.195   6.992  17.729  0.00  0.00    +0.000 C 
ATOM     15  O   UNL     1       3.922   7.884  17.277  0.00  0.00    +0.000 OA
ATOM     16  H   UNL     1       5.382   5.328  19.717  0.00  0.00    +0.000 HD
ENDROOT
BRANCH  14  17
ATOM     17  C   UNL     1       1.837   7.343  18.342  0.00  0.00    +0.000 C 
BRANCH  17  18
ATOM     18  S   UNL     1       1.543   9.149  18.436  0.00  0.00    +0.000 S 
BRANCH  18  19
ATOM     19  C   UNL     1       1.242   9.347  20.127  0.00  0.00    +0.000 A 
ATOM     20  N   UNL     1       1.336   8.425  21.058  0.00  0.00    +0.000 NA
ATOM     21  N   UNL     1       1.020   9.054  22.241  0.00  0.00    +0.000 NA
ATOM     22  N   UNL     1       0.737  10.334  22.042  0.00  0.00    +0.000 NA
ATOM     23  N   UNL     1       0.869  10.523  20.715  0.00  0.00    +0.000 N 
ATOM     24  C   UNL     1       0.625  11.817  20.141  0.00  0.00    +0.000 C 
ENDBRANCH  18  19
ENDBRANCH  17  18
ENDBRANCH  14  17
TORSDOF 3
ENDMDL
MODEL 5
REMARK VINA RESULT:      -7.0      2.308      2.992
REMARK  Name = 
REMARK  5 active torsions:
REMARK  status: ('A' for Active; 'I' for Inactive)
REMARK    1  A    between atoms: C_1  and  C_2
REMARK    2  A    between atoms: C_14  and  C_16
REMARK    3  A    between atoms: C_16  and  S_17
REMARK    4  A    between atoms: S_17  and  C_18
REMARK    5  A    between atoms: N_22  and  C_23
REMARK                            x       y       z     vdW  Elec       q    Type
REMARK                         _______ _______ _______ _____ _____    ______ ____
ROOT
ATOM      1  C   UNL     1       4.598   6.882  16.458  0.00  0.00    +0.000 C 
ATOM      2  C   UNL     1       3.723   6.598  17.678  0.00  0.00    +0.000 C 
ATOM      3  C   UNL     1       3.425   7.902  18.430  0.00  0.00    +0.000 C 
ATOM      4  C   UNL     1       2.147   7.725  19.220  0.00  0.00    +0.000 C 
ATOM      5  O   UNL     1       1.079   8.207  18.869  0.00  0.00    +0.000 OA
ATOM      6  N   UNL     1       2.302   6.871  20.302  0.00  0.00    +0.000 N 
ATOM      7  C   UNL     1       2.091   5.505  19.975  0.00  0.00    +0.000 A 
ATOM      8  C   UNL     1       0.976   4.869  20.521  0.00  0.00    +0.000 A 
ATOM      9  C   UNL     1       0.788   3.508  20.300  0.00  0.00    +0.000 A 
ATOM     10  C   UNL     1       1.721   2.787  19.554  0.00  0.00    +0.000 A 
ATOM     11  C   UNL     1       2.851   3.421  19.023  0.00  0.00    +0.000 A 
ATOM     12  C   UNL     1       3.047   4.792  19.217  0.00  0.00    +0.000 A 
ATOM     13  N   UNL     1       4.163   5.471  18.581  0.00  0.00    +0.000 N 
ATOM     14  C   UNL     1       5.457   5.017  18.907  0.00  0.00    +0.000 C 
ATOM     15  O   UNL     1       5.625   4.087  19.704  0.00  0.00    +0.000 OA
ATOM     16  H   UNL     1       3.263   6.948  20.627  0.00  0.00    +0.000 HD
ENDROOT
BRANCH  14  17
ATOM     17  C   UNL     1       6.664   5.729  18.290  0.00  0.00    +0.000 C 
BRANCH  17  18
ATOM     18  S   UNL     1       7.811   4.580  17.440  0.00  0.00    +0.000 S 
BRANCH  18  19
ATOM     19  C   UNL     1       7.215   4.659  15.819  0.00  0.00    +0.000 A 
ATOM     20  N   UNL     1       7.724   5.349  14.824  0.00  0.00    +0.000 NA
ATOM     21  N   UNL     1       6.924   5.085  13.736  0.00  0.00    +0.000 NA
ATOM     22  N   UNL     1       5.943   4.252  14.055  0.00  0.00    +0.000 NA
ATOM     23  N   UNL     1       6.117   3.985  15.363  0.00  0.00    +0.000 N 
ATOM     24  C   UNL     1       5.210   3.106  16.049  0.00  0.00    +0.000 C 
ENDBRANCH  18  19
ENDBRANCH  17  18
ENDBRANCH  14  17
TORSDOF 3
ENDMDL
MODEL 6
REMARK VINA RESULT:      -6.8      3.271      6.268
REMARK  Name = 
REMARK  5 active torsions:
REMARK  status: ('A' for Active; 'I' for Inactive)
REMARK    1  A    between atoms: C_1  and  C_2
REMARK    2  A    between atoms: C_14  and  C_16
REMARK    3  A    between atoms: C_16  and  S_17
REMARK    4  A    between atoms: S_17  and  C_18
REMARK    5  A    between atoms: N_22  and  C_23
REMARK                            x       y       z     vdW  Elec       q    Type
REMARK                         _______ _______ _______ _____ _____    ______ ____
ROOT
ATOM      1  C   UNL     1       1.387   4.336  18.116  0.00  0.00    +0.000 C 
ATOM      2  C   UNL     1       2.909   4.373  18.247  0.00  0.00    +0.000 C 
ATOM      3  C   UNL     1       3.328   3.960  19.665  0.00  0.00    +0.000 C 
ATOM      4  C   UNL     1       4.746   3.434  19.617  0.00  0.00    +0.000 C 
ATOM      5  O   UNL     1       5.013   2.243  19.672  0.00  0.00    +0.000 OA
ATOM      6  N   UNL     1       5.679   4.436  19.389  0.00  0.00    +0.000 N 
ATOM      7  C   UNL     1       5.906   4.689  18.010  0.00  0.00    +0.000 A 
ATOM      8  C   UNL     1       7.156   4.363  17.484  0.00  0.00    +0.000 A 
ATOM      9  C   UNL     1       7.447   4.684  16.161  0.00  0.00    +0.000 A 
ATOM     10  C   UNL     1       6.498   5.342  15.379  0.00  0.00    +0.000 A 
ATOM     11  C   UNL     1       5.251   5.688  15.912  0.00  0.00    +0.000 A 
ATOM     12  C   UNL     1       4.932   5.356  17.233  0.00  0.00    +0.000 A 
ATOM     13  N   UNL     1       3.602   5.621  17.755  0.00  0.00    +0.000 N 
ATOM     14  C   UNL     1       3.171   6.963  17.757  0.00  0.00    +0.000 C 
ATOM     15  O   UNL     1       3.901   7.868  17.337  0.00  0.00    +0.000 OA
ATOM     16  H   UNL     1       5.317   5.298  19.789  0.00  0.00    +0.000 HD
ENDROOT
BRANCH  14  17
ATOM     17  C   UNL     1       1.793   7.293  18.335  0.00  0.00    +0.000 C 
BRANCH  17  18
ATOM     18  S   UNL     1       1.862   7.807  20.092  0.00  0.00    +0.000 S 
BRANCH  18  19
ATOM     19  C   UNL     1       0.955   9.279  20.042  0.00  0.00    +0.000 A 
ATOM     20  N   UNL     1       0.988  10.193  19.100  0.00  0.00    +0.000 NA
ATOM     21  N   UNL     1       0.091  11.163  19.487  0.00  0.00    +0.000 NA
ATOM     22  N   UNL     1      -0.480  10.852  20.643  0.00  0.00    +0.000 NA
ATOM     23  N   UNL     1       0.063   9.672  20.999  0.00  0.00    +0.000 N 
ATOM     24  C   UNL     1      -0.330   9.037  22.227  0.00  0.00    +0.000 C 
ENDBRANCH  18  19
ENDBRANCH  17  18
ENDBRANCH  14  17
TORSDOF 3
ENDMDL
MODEL 7
REMARK VINA RESULT:      -6.7      3.118      4.371
REMARK  Name = 
REMARK  5 active torsions:
REMARK  status: ('A' for Active; 'I' for Inactive)
REMARK    1  A    between atoms: C_1  and  C_2
REMARK    2  A    between atoms: C_14  and  C_16
REMARK    3  A    between atoms: C_16  and  S_17
REMARK    4  A    between atoms: S_17  and  C_18
REMARK    5  A    between atoms: N_22  and  C_23
REMARK                            x       y       z     vdW  Elec       q    Type
REMARK                         _______ _______ _______ _____ _____    ______ ____
ROOT
ATOM      1  C   UNL     1       6.791   4.981  19.027  0.00  0.00    +0.000 C 
ATOM      2  C   UNL     1       5.295   4.782  19.264  0.00  0.00    +0.000 C 
ATOM      3  C   UNL     1       4.926   3.301  19.100  0.00  0.00    +0.000 C 
ATOM      4  C   UNL     1       3.663   3.026  19.886  0.00  0.00    +0.000 C 
ATOM      5  O   UNL     1       3.664   2.446  20.961  0.00  0.00    +0.000 OA
ATOM      6  N   UNL     1       2.540   3.602  19.308  0.00  0.00    +0.000 N 
ATOM      7  C   UNL     1       2.313   4.938  19.734  0.00  0.00    +0.000 A 
ATOM      8  C   UNL     1       1.186   5.190  20.515  0.00  0.00    +0.000 A 
ATOM      9  C   UNL     1       0.878   6.501  20.872  0.00  0.00    +0.000 A 
ATOM     10  C   UNL     1       1.686   7.550  20.431  0.00  0.00    +0.000 A 
ATOM     11  C   UNL     1       2.806   7.299  19.630  0.00  0.00    +0.000 A 
ATOM     12  C   UNL     1       3.143   5.988  19.278  0.00  0.00    +0.000 A 
ATOM     13  N   UNL     1       4.361   5.717  18.535  0.00  0.00    +0.000 N 
ATOM     14  C   UNL     1       4.484   6.321  17.267  0.00  0.00    +0.000 C 
ATOM     15  O   UNL     1       3.587   7.043  16.814  0.00  0.00    +0.000 OA
ATOM     16  H   UNL     1       2.687   3.637  18.302  0.00  0.00    +0.000 HD
ENDROOT
BRANCH  14  17
ATOM     17  C   UNL     1       5.733   6.032  16.431  0.00  0.00    +0.000 C 
BRANCH  17  18
ATOM     18  S   UNL     1       5.624   4.452  15.510  0.00  0.00    +0.000 S 
BRANCH  18  19
ATOM     19  C   UNL     1       6.683   4.770  14.181  0.00  0.00    +0.000 A 
ATOM     20  N   UNL     1       7.728   5.566  14.178  0.00  0.00    +0.000 NA
ATOM     21  N   UNL     1       8.260   5.482  12.912  0.00  0.00    +0.000 NA
ATOM     22  N   UNL     1       7.557   4.654  12.151  0.00  0.00    +0.000 NA
ATOM     23  N   UNL     1       6.562   4.208  12.941  0.00  0.00    +0.000 N 
ATOM     24  C   UNL     1       5.590   3.282  12.428  0.00  0.00    +0.000 C 
ENDBRANCH  18  19
ENDBRANCH  17  18
ENDBRANCH  14  17
TORSDOF 3
ENDMDL
MODEL 8
REMARK VINA RESULT:      -6.6      0.912      1.321
REMARK  Name = 
REMARK  5 active torsions:
REMARK  status: ('A' for Active; 'I' for Inactive)
REMARK    1  A    between atoms: C_1  and  C_2
REMARK    2  A    between atoms: C_14  and  C_16
REMARK    3  A    between atoms: C_16  and  S_17
REMARK    4  A    between atoms: S_17  and  C_18
REMARK    5  A    between atoms: N_22  and  C_23
REMARK                            x       y       z     vdW  Elec       q    Type
REMARK                         _______ _______ _______ _____ _____    ______ ____
ROOT
ATOM      1  C   UNL     1       2.059   8.162  17.229  0.00  0.00    +0.000 C 
ATOM      2  C   UNL     1       2.014   7.123  18.349  0.00  0.00    +0.000 C 
ATOM      3  C   UNL     1       2.428   7.763  19.681  0.00  0.00    +0.000 C 
ATOM      4  C   UNL     1       1.829   6.956  20.813  0.00  0.00    +0.000 C 
ATOM      5  O   UNL     1       0.854   7.329  21.449  0.00  0.00    +0.000 OA
ATOM      6  N   UNL     1       2.433   5.716  20.961  0.00  0.00    +0.000 N 
ATOM      7  C   UNL     1       1.846   4.704  20.154  0.00  0.00    +0.000 A 
ATOM      8  C   UNL     1       1.160   3.674  20.797  0.00  0.00    +0.000 A 
ATOM      9  C   UNL     1       0.653   2.617  20.047  0.00  0.00    +0.000 A 
ATOM     10  C   UNL     1       0.849   2.585  18.666  0.00  0.00    +0.000 A 
ATOM     11  C   UNL     1       1.554   3.609  18.023  0.00  0.00    +0.000 A 
ATOM     12  C   UNL     1       2.054   4.690  18.757  0.00  0.00    +0.000 A 
ATOM     13  N   UNL     1       2.695   5.803  18.079  0.00  0.00    +0.000 N 
ATOM     14  C   UNL     1       3.842   5.511  17.313  0.00  0.00    +0.000 C 
ATOM     15  O   UNL     1       4.278   4.357  17.233  0.00  0.00    +0.000 OA
ATOM     16  H   UNL     1       3.402   5.800  20.663  0.00  0.00    +0.000 HD
ENDROOT
BRANCH  14  17
ATOM     17  C   UNL     1       4.573   6.659  16.613  0.00  0.00    +0.000 C 
BRANCH  17  18
ATOM     18  S   UNL     1       5.948   7.342  17.612  0.00  0.00    +0.000 S 
BRANCH  18  19
ATOM     19  C   UNL     1       6.976   5.959  17.749  0.00  0.00    +0.000 A 
ATOM     20  N   UNL     1       7.525   5.489  18.846  0.00  0.00    +0.000 NA
ATOM     21  N   UNL     1       8.237   4.376  18.461  0.00  0.00    +0.000 NA
ATOM     22  N   UNL     1       8.130   4.166  17.156  0.00  0.00    +0.000 NA
ATOM     23  N   UNL     1       7.344   5.160  16.702  0.00  0.00    +0.000 N 
ATOM     24  C   UNL     1       7.021   5.246  15.305  0.00  0.00    +0.000 C 
ENDBRANCH  18  19
ENDBRANCH  17  18
ENDBRANCH  14  17
TORSDOF 3
ENDMDL
MODEL 9
REMARK VINA RESULT:      -6.5      3.325      6.123
REMARK  Name = 
REMARK  5 active torsions:
REMARK  status: ('A' for Active; 'I' for Inactive)
REMARK    1  A    between atoms: C_1  and  C_2
REMARK    2  A    between atoms: C_14  and  C_16
REMARK    3  A    between atoms: C_16  and  S_17
REMARK    4  A    between atoms: S_17  and  C_18
REMARK    5  A    between atoms: N_22  and  C_23
REMARK                            x       y       z     vdW  Elec       q    Type
REMARK                         _______ _______ _______ _____ _____    ______ ____
ROOT
ATOM      1  C   UNL     1       1.379   4.442  18.015  0.00  0.00    +0.000 C 
ATOM      2  C   UNL     1       2.899   4.447  18.176  0.00  0.00    +0.000 C 
ATOM      3  C   UNL     1       3.281   4.021  19.600  0.00  0.00    +0.000 C 
ATOM      4  C   UNL     1       4.688   3.465  19.578  0.00  0.00    +0.000 C 
ATOM      5  O   UNL     1       4.929   2.268  19.636  0.00  0.00    +0.000 OA
ATOM      6  N   UNL     1       5.647   4.447  19.372  0.00  0.00    +0.000 N 
ATOM      7  C   UNL     1       5.906   4.700  17.998  0.00  0.00    +0.000 A 
ATOM      8  C   UNL     1       7.159   4.348  17.496  0.00  0.00    +0.000 A 
ATOM      9  C   UNL     1       7.483   4.666  16.180  0.00  0.00    +0.000 A 
ATOM     10  C   UNL     1       6.563   5.347  15.381  0.00  0.00    +0.000 A 
ATOM     11  C   UNL     1       5.313   5.717  15.891  0.00  0.00    +0.000 A 
ATOM     12  C   UNL     1       4.962   5.389  17.204  0.00  0.00    +0.000 A 
ATOM     13  N   UNL     1       3.628   5.680  17.701  0.00  0.00    +0.000 N 
ATOM     14  C   UNL     1       3.226   7.032  17.699  0.00  0.00    +0.000 C 
ATOM     15  O   UNL     1       3.983   7.922  17.295  0.00  0.00    +0.000 OA
ATOM     16  H   UNL     1       5.296   5.316  19.767  0.00  0.00    +0.000 HD
ENDROOT
BRANCH  14  17
ATOM     17  C   UNL     1       1.843   7.389  18.251  0.00  0.00    +0.000 C 
BRANCH  17  18
ATOM     18  S   UNL     1       1.912   8.097  19.939  0.00  0.00    +0.000 S 
BRANCH  18  19
ATOM     19  C   UNL     1       0.824   9.431  19.784  0.00  0.00    +0.000 A 
ATOM     20  N   UNL     1      -0.339   9.574  20.378  0.00  0.00    +0.000 NA
ATOM     21  N   UNL     1      -0.825  10.792  19.962  0.00  0.00    +0.000 NA
ATOM     22  N   UNL     1       0.019  11.386  19.129  0.00  0.00    +0.000 NA
ATOM     23  N   UNL     1       1.055  10.533  19.009  0.00  0.00    +0.000 N 
ATOM     24  C   UNL     1       2.167  10.861  18.160  0.00  0.00    +0.000 C 
ENDBRANCH  18  19
ENDBRANCH  17  18
ENDBRANCH  14  17
TORSDOF 3
ENDMDL
