MODEL 1
REMARK VINA RESULT:      -8.8      0.000      0.000
REMARK  Name = 
REMARK  6 active torsions:
REMARK  status: ('A' for Active; 'I' for Inactive)
REMARK    1  A    between atoms: C_1  and  C_2
REMARK    2  A    between atoms: C_2  and  C_3
REMARK    3  A    between atoms: C_2  and  C_4
REMARK    4  A    between atoms: C_4  and  C_5
REMARK    5  A    between atoms: C_8  and  C_9
REMARK    6  A    between atoms: C_9  and  N_10
REMARK                            x       y       z     vdW  Elec       q    Type
REMARK                         _______ _______ _______ _____ _____    ______ ____
ROOT
ATOM      1  N   UNL     1       5.350   5.086  17.389  0.00  0.00    +0.000 N 
ATOM      2  C   UNL     1       4.944   6.385  17.254  0.00  0.00    +0.000 A 
ATOM      3  N   UNL     1       3.676   6.531  17.563  0.00  0.00    +0.000 NA
ATOM      4  C   UNL     1       3.239   5.281  17.917  0.00  0.00    +0.000 A 
ATOM      5  C   UNL     1       1.961   4.867  18.318  0.00  0.00    +0.000 A 
ATOM      6  C   UNL     1       1.772   3.519  18.621  0.00  0.00    +0.000 A 
ATOM      7  F   UNL     1       0.554   3.102  18.994  0.00  0.00    +0.000 F 
ATOM      8  C   UNL     1       2.819   2.606  18.538  0.00  0.00    +0.000 A 
ATOM      9  F   UNL     1       2.603   1.316  18.837  0.00  0.00    +0.000 F 
ATOM     10  C   UNL     1       4.101   2.994  18.143  0.00  0.00    +0.000 A 
ATOM     11  C   UNL     1       4.276   4.349  17.830  0.00  0.00    +0.000 A 
ENDROOT
BRANCH   1  12
ATOM     12  C   UNL     1       6.651   4.580  16.994  0.00  0.00    +0.000 C 
BRANCH  12  16
ATOM     13  C   UNL     1       6.936   4.406  13.459  0.00  0.00    +0.000 A 
ATOM     14  N   UNL     1       7.783   5.417  13.687  0.00  0.00    +0.000 NA
ATOM     15  O   UNL     1       7.719   5.586  15.069  0.00  0.00    +0.000 OA
ATOM     16  C   UNL     1       6.837   4.652  15.531  0.00  0.00    +0.000 A 
ATOM     17  N   UNL     1       6.334   3.895  14.582  0.00  0.00    +0.000 NA
BRANCH  13  18
ATOM     18  C   UNL     1       6.673   3.873  12.096  0.00  0.00    +0.000 C 
BRANCH  18  20
ATOM     19  C   UNL     1       4.290   3.302  11.411  0.00  0.00    +0.000 C 
ATOM     20  C   UNL     1       5.578   2.793  12.065  0.00  0.00    +0.000 C 
ATOM     21  C   UNL     1       6.079   1.554  11.319  0.00  0.00    +0.000 C 
ENDBRANCH  18  20
ENDBRANCH  13  18
ENDBRANCH  12  16
ENDBRANCH   1  12
TORSDOF 4
ENDMDL
MODEL 2
REMARK VINA RESULT:      -8.4      1.091      1.732
REMARK  Name = 
REMARK  6 active torsions:
REMARK  status: ('A' for Active; 'I' for Inactive)
REMARK    1  A    between atoms: C_1  and  C_2
REMARK    2  A    between atoms: C_2  and  C_3
REMARK    3  A    between atoms: C_2  and  C_4
REMARK    4  A    between atoms: C_4  and  C_5
REMARK    5  A    between atoms: C_8  and  C_9
REMARK    6  A    between atoms: C_9  and  N_10
REMARK                            x       y       z     vdW  Elec       q    Type
REMARK                         _______ _______ _______ _____ _____    ______ ____
ROOT
ATOM      1  N   UNL     1       5.027   5.001  17.503  0.00  0.00    +0.000 N 
ATOM      2  C   UNL     1       6.112   4.825  18.317  0.00  0.00    +0.000 A 
ATOM      3  N   UNL     1       5.836   4.034  19.329  0.00  0.00    +0.000 NA
ATOM      4  C   UNL     1       4.522   3.677  19.167  0.00  0.00    +0.000 A 
ATOM      5  C   UNL     1       3.719   2.860  19.974  0.00  0.00    +0.000 A 
ATOM      6  C   UNL     1       2.394   2.657  19.589  0.00  0.00    +0.000 A 
ATOM      7  F   UNL     1       1.606   1.889  20.354  0.00  0.00    +0.000 F 
ATOM      8  C   UNL     1       1.879   3.238  18.434  0.00  0.00    +0.000 A 
ATOM      9  F   UNL     1       0.600   3.022  18.092  0.00  0.00    +0.000 F 
ATOM     10  C   UNL     1       2.661   4.055  17.613  0.00  0.00    +0.000 A 
ATOM     11  C   UNL     1       3.987   4.261  18.016  0.00  0.00    +0.000 A 
ENDROOT
BRANCH   1  12
ATOM     12  C   UNL     1       4.972   5.922  16.383  0.00  0.00    +0.000 C 
BRANCH  12  16
ATOM     13  C   UNL     1       6.592   4.503  13.561  0.00  0.00    +0.000 A 
ATOM     14  N   UNL     1       7.648   5.098  14.130  0.00  0.00    +0.000 NA
ATOM     15  O   UNL     1       7.101   5.720  15.252  0.00  0.00    +0.000 OA
ATOM     16  C   UNL     1       5.767   5.430  15.241  0.00  0.00    +0.000 A 
ATOM     17  N   UNL     1       5.404   4.678  14.226  0.00  0.00    +0.000 NA
BRANCH  13  18
ATOM     18  C   UNL     1       6.699   3.710  12.308  0.00  0.00    +0.000 C 
BRANCH  18  20
ATOM     19  C   UNL     1       4.370   3.311  11.363  0.00  0.00    +0.000 C 
ATOM     20  C   UNL     1       5.551   2.702  12.125  0.00  0.00    +0.000 C 
ATOM     21  C   UNL     1       6.053   1.459  11.387  0.00  0.00    +0.000 C 
ENDBRANCH  18  20
ENDBRANCH  13  18
ENDBRANCH  12  16
ENDBRANCH   1  12
TORSDOF 4
ENDMDL
MODEL 3
REMARK VINA RESULT:      -8.3      1.109      1.109
REMARK  Name = 
REMARK  6 active torsions:
REMARK  status: ('A' for Active; 'I' for Inactive)
REMARK    1  A    between atoms: C_1  and  C_2
REMARK    2  A    between atoms: C_2  and  C_3
REMARK    3  A    between atoms: C_2  and  C_4
REMARK    4  A    between atoms: C_4  and  C_5
REMARK    5  A    between atoms: C_8  and  C_9
REMARK    6  A    between atoms: C_9  and  N_10
REMARK                            x       y       z     vdW  Elec       q    Type
REMARK                         _______ _______ _______ _____ _____    ______ ____
ROOT
ATOM      1  N   UNL     1       5.148   4.933  17.579  0.00  0.00    +0.000 N 
ATOM      2  C   UNL     1       4.607   6.020  16.949  0.00  0.00    +0.000 A 
ATOM      3  N   UNL     1       3.435   6.338  17.451  0.00  0.00    +0.000 NA
ATOM      4  C   UNL     1       3.205   5.426  18.448  0.00  0.00    +0.000 A 
ATOM      5  C   UNL     1       2.094   5.298  19.294  0.00  0.00    +0.000 A 
ATOM      6  C   UNL     1       2.101   4.268  20.235  0.00  0.00    +0.000 A 
ATOM      7  F   UNL     1       1.043   4.121  21.044  0.00  0.00    +0.000 F 
ATOM      8  C   UNL     1       3.179   3.394  20.342  0.00  0.00    +0.000 A 
ATOM      9  F   UNL     1       3.153   2.414  21.258  0.00  0.00    +0.000 F 
ATOM     10  C   UNL     1       4.297   3.503  19.512  0.00  0.00    +0.000 A 
ATOM     11  C   UNL     1       4.273   4.534  18.564  0.00  0.00    +0.000 A 
ENDROOT
BRANCH   1  12
ATOM     12  C   UNL     1       6.364   4.258  17.168  0.00  0.00    +0.000 C 
BRANCH  12  16
ATOM     13  C   UNL     1       6.773   4.276  13.641  0.00  0.00    +0.000 A 
ATOM     14  N   UNL     1       7.611   5.272  13.953  0.00  0.00    +0.000 NA
ATOM     15  O   UNL     1       7.498   5.366  15.340  0.00  0.00    +0.000 OA
ATOM     16  C   UNL     1       6.601   4.409  15.719  0.00  0.00    +0.000 A 
ATOM     17  N   UNL     1       6.132   3.705  14.713  0.00  0.00    +0.000 NA
BRANCH  13  18
ATOM     18  C   UNL     1       6.559   3.818  12.243  0.00  0.00    +0.000 C 
BRANCH  18  20
ATOM     19  C   UNL     1       4.208   3.356  11.383  0.00  0.00    +0.000 C 
ATOM     20  C   UNL     1       5.430   2.781  12.107  0.00  0.00    +0.000 C 
ATOM     21  C   UNL     1       5.936   1.545  11.361  0.00  0.00    +0.000 C 
ENDBRANCH  18  20
ENDBRANCH  13  18
ENDBRANCH  12  16
ENDBRANCH   1  12
TORSDOF 4
ENDMDL
MODEL 4
REMARK VINA RESULT:      -7.7      1.534      2.254
REMARK  Name = 
REMARK  6 active torsions:
REMARK  status: ('A' for Active; 'I' for Inactive)
REMARK    1  A    between atoms: C_1  and  C_2
REMARK    2  A    between atoms: C_2  and  C_3
REMARK    3  A    between atoms: C_2  and  C_4
REMARK    4  A    between atoms: C_4  and  C_5
REMARK    5  A    between atoms: C_8  and  C_9
REMARK    6  A    between atoms: C_9  and  N_10
REMARK                            x       y       z     vdW  Elec       q    Type
REMARK                         _______ _______ _______ _____ _____    ______ ____
ROOT
ATOM      1  N   UNL     1       4.358   4.711  17.284  0.00  0.00    +0.000 N 
ATOM      2  C   UNL     1       4.580   3.403  16.950  0.00  0.00    +0.000 A 
ATOM      3  N   UNL     1       3.903   2.584  17.722  0.00  0.00    +0.000 NA
ATOM      4  C   UNL     1       3.210   3.388  18.589  0.00  0.00    +0.000 A 
ATOM      5  C   UNL     1       2.345   3.030  19.633  0.00  0.00    +0.000 A 
ATOM      6  C   UNL     1       1.763   4.052  20.383  0.00  0.00    +0.000 A 
ATOM      7  F   UNL     1       0.944   3.730  21.394  0.00  0.00    +0.000 F 
ATOM      8  C   UNL     1       2.021   5.391  20.104  0.00  0.00    +0.000 A 
ATOM      9  F   UNL     1       1.444   6.349  20.845  0.00  0.00    +0.000 F 
ATOM     10  C   UNL     1       2.878   5.772  19.069  0.00  0.00    +0.000 A 
ATOM     11  C   UNL     1       3.465   4.737  18.330  0.00  0.00    +0.000 A 
ENDROOT
BRANCH   1  12
ATOM     12  C   UNL     1       5.062   5.843  16.710  0.00  0.00    +0.000 C 
BRANCH  12  16
ATOM     13  C   UNL     1       6.625   4.680  13.743  0.00  0.00    +0.000 A 
ATOM     14  N   UNL     1       7.705   5.160  14.372  0.00  0.00    +0.000 NA
ATOM     15  O   UNL     1       7.183   5.676  15.558  0.00  0.00    +0.000 OA
ATOM     16  C   UNL     1       5.838   5.448  15.518  0.00  0.00    +0.000 A 
ATOM     17  N   UNL     1       5.445   4.830  14.427  0.00  0.00    +0.000 NA
BRANCH  13  18
ATOM     18  C   UNL     1       6.701   4.027  12.409  0.00  0.00    +0.000 C 
BRANCH  18  20
ATOM     19  C   UNL     1       4.413   3.445  11.459  0.00  0.00    +0.000 C 
ATOM     20  C   UNL     1       5.644   2.926  12.208  0.00  0.00    +0.000 C 
ATOM     21  C   UNL     1       6.251   1.746  11.446  0.00  0.00    +0.000 C 
ENDBRANCH  18  20
ENDBRANCH  13  18
ENDBRANCH  12  16
ENDBRANCH   1  12
TORSDOF 4
ENDMDL
MODEL 5
REMARK VINA RESULT:      -7.5      1.391      1.806
REMARK  Name = 
REMARK  6 active torsions:
REMARK  status: ('A' for Active; 'I' for Inactive)
REMARK    1  A    between atoms: C_1  and  C_2
REMARK    2  A    between atoms: C_2  and  C_3
REMARK    3  A    between atoms: C_2  and  C_4
REMARK    4  A    between atoms: C_4  and  C_5
REMARK    5  A    between atoms: C_8  and  C_9
REMARK    6  A    between atoms: C_9  and  N_10
REMARK                            x       y       z     vdW  Elec       q    Type
REMARK                         _______ _______ _______ _____ _____    ______ ____
ROOT
ATOM      1  N   UNL     1       4.463   6.389  18.027  0.00  0.00    +0.000 N 
ATOM      2  C   UNL     1       3.327   7.122  17.814  0.00  0.00    +0.000 A 
ATOM      3  N   UNL     1       2.261   6.507  18.273  0.00  0.00    +0.000 NA
ATOM      4  C   UNL     1       2.719   5.331  18.809  0.00  0.00    +0.000 A 
ATOM      5  C   UNL     1       1.999   4.293  19.417  0.00  0.00    +0.000 A 
ATOM      6  C   UNL     1       2.709   3.185  19.880  0.00  0.00    +0.000 A 
ATOM      7  F   UNL     1       2.038   2.177  20.453  0.00  0.00    +0.000 F 
ATOM      8  C   UNL     1       4.093   3.109  19.753  0.00  0.00    +0.000 A 
ATOM      9  F   UNL     1       4.745   2.029  20.210  0.00  0.00    +0.000 F 
ATOM     10  C   UNL     1       4.832   4.131  19.152  0.00  0.00    +0.000 A 
ATOM     11  C   UNL     1       4.106   5.233  18.682  0.00  0.00    +0.000 A 
ENDROOT
BRANCH   1  12
ATOM     12  C   UNL     1       5.777   6.733  17.516  0.00  0.00    +0.000 C 
BRANCH  12  16
ATOM     13  C   UNL     1       6.341   4.511  14.805  0.00  0.00    +0.000 A 
ATOM     14  N   UNL     1       7.539   5.107  14.838  0.00  0.00    +0.000 NA
ATOM     15  O   UNL     1       7.408   6.036  15.870  0.00  0.00    +0.000 OA
ATOM     16  C   UNL     1       6.139   5.898  16.354  0.00  0.00    +0.000 A 
ATOM     17  N   UNL     1       5.444   4.967  15.739  0.00  0.00    +0.000 NA
BRANCH  13  18
ATOM     18  C   UNL     1       6.010   3.432  13.836  0.00  0.00    +0.000 C 
BRANCH  18  20
ATOM     19  C   UNL     1       7.107   3.732  11.560  0.00  0.00    +0.000 C 
ATOM     20  C   UNL     1       5.839   3.940  12.394  0.00  0.00    +0.000 C 
ATOM     21  C   UNL     1       4.659   3.234  11.723  0.00  0.00    +0.000 C 
ENDBRANCH  18  20
ENDBRANCH  13  18
ENDBRANCH  12  16
ENDBRANCH   1  12
TORSDOF 4
ENDMDL
MODEL 6
REMARK VINA RESULT:      -7.3      1.294      1.546
REMARK  Name = 
REMARK  6 active torsions:
REMARK  status: ('A' for Active; 'I' for Inactive)
REMARK    1  A    between atoms: C_1  and  C_2
REMARK    2  A    between atoms: C_2  and  C_3
REMARK    3  A    between atoms: C_2  and  C_4
REMARK    4  A    between atoms: C_4  and  C_5
REMARK    5  A    between atoms: C_8  and  C_9
REMARK    6  A    between atoms: C_9  and  N_10
REMARK                            x       y       z     vdW  Elec       q    Type
REMARK                         _______ _______ _______ _____ _____    ______ ____
ROOT
ATOM      1  N   UNL     1       4.419   5.951  18.171  0.00  0.00    +0.000 N 
ATOM      2  C   UNL     1       3.468   6.920  18.001  0.00  0.00    +0.000 A 
ATOM      3  N   UNL     1       2.259   6.410  17.959  0.00  0.00    +0.000 NA
ATOM      4  C   UNL     1       2.426   5.058  18.112  0.00  0.00    +0.000 A 
ATOM      5  C   UNL     1       1.462   4.040  18.124  0.00  0.00    +0.000 A 
ATOM      6  C   UNL     1       1.898   2.725  18.291  0.00  0.00    +0.000 A 
ATOM      7  F   UNL     1       0.993   1.737  18.293  0.00  0.00    +0.000 F 
ATOM      8  C   UNL     1       3.248   2.425  18.448  0.00  0.00    +0.000 A 
ATOM      9  F   UNL     1       3.633   1.150  18.607  0.00  0.00    +0.000 F 
ATOM     10  C   UNL     1       4.226   3.422  18.440  0.00  0.00    +0.000 A 
ATOM     11  C   UNL     1       3.777   4.738  18.261  0.00  0.00    +0.000 A 
ENDROOT
BRANCH   1  12
ATOM     12  C   UNL     1       5.851   6.179  18.120  0.00  0.00    +0.000 C 
BRANCH  12  16
ATOM     13  C   UNL     1       6.939   5.050  14.935  0.00  0.00    +0.000 A 
ATOM     14  N   UNL     1       7.804   4.374  15.701  0.00  0.00    +0.000 NA
ATOM     15  O   UNL     1       7.472   4.780  16.994  0.00  0.00    +0.000 OA
ATOM     16  C   UNL     1       6.436   5.658  16.868  0.00  0.00    +0.000 A 
ATOM     17  N   UNL     1       6.064   5.853  15.623  0.00  0.00    +0.000 NA
BRANCH  13  18
ATOM     18  C   UNL     1       6.923   4.933  13.452  0.00  0.00    +0.000 C 
BRANCH  18  20
ATOM     19  C   UNL     1       4.849   3.648  12.730  0.00  0.00    +0.000 C 
ATOM     20  C   UNL     1       6.363   3.590  12.952  0.00  0.00    +0.000 C 
ATOM     21  C   UNL     1       7.059   3.180  11.653  0.00  0.00    +0.000 C 
ENDBRANCH  18  20
ENDBRANCH  13  18
ENDBRANCH  12  16
ENDBRANCH   1  12
TORSDOF 4
ENDMDL
MODEL 7
REMARK VINA RESULT:      -7.3      3.416      5.553
REMARK  Name = 
REMARK  6 active torsions:
REMARK  status: ('A' for Active; 'I' for Inactive)
REMARK    1  A    between atoms: C_1  and  C_2
REMARK    2  A    between atoms: C_2  and  C_3
REMARK    3  A    between atoms: C_2  and  C_4
REMARK    4  A    between atoms: C_4  and  C_5
REMARK    5  A    between atoms: C_8  and  C_9
REMARK    6  A    between atoms: C_9  and  N_10
REMARK                            x       y       z     vdW  Elec       q    Type
REMARK                         _______ _______ _______ _____ _____    ______ ____
ROOT
ATOM      1  N   UNL     1       4.832   5.794  17.371  0.00  0.00    +0.000 N 
ATOM      2  C   UNL     1       4.048   6.900  17.553  0.00  0.00    +0.000 A 
ATOM      3  N   UNL     1       2.827   6.575  17.911  0.00  0.00    +0.000 NA
ATOM      4  C   UNL     1       2.815   5.205  17.969  0.00  0.00    +0.000 A 
ATOM      5  C   UNL     1       1.758   4.339  18.284  0.00  0.00    +0.000 A 
ATOM      6  C   UNL     1       2.007   2.967  18.265  0.00  0.00    +0.000 A 
ATOM      7  F   UNL     1       1.006   2.122  18.552  0.00  0.00    +0.000 F 
ATOM      8  C   UNL     1       3.266   2.464  17.951  0.00  0.00    +0.000 A 
ATOM      9  F   UNL     1       3.470   1.139  17.942  0.00  0.00    +0.000 F 
ATOM     10  C   UNL     1       4.334   3.307  17.635  0.00  0.00    +0.000 A 
ATOM     11  C   UNL     1       4.069   4.683  17.646  0.00  0.00    +0.000 A 
ENDROOT
BRANCH   1  12
ATOM     12  C   UNL     1       6.184   5.815  16.844  0.00  0.00    +0.000 C 
BRANCH  12  16
ATOM     13  C   UNL     1       7.998   8.658  17.955  0.00  0.00    +0.000 A 
ATOM     14  N   UNL     1       8.519   7.743  18.781  0.00  0.00    +0.000 NA
ATOM     15  O   UNL     1       7.838   6.575  18.438  0.00  0.00    +0.000 OA
ATOM     16  C   UNL     1       6.976   6.912  17.435  0.00  0.00    +0.000 A 
ATOM     17  N   UNL     1       7.041   8.180  17.094  0.00  0.00    +0.000 NA
BRANCH  13  18
ATOM     18  C   UNL     1       8.427  10.082  17.964  0.00  0.00    +0.000 C 
BRANCH  18  20
ATOM     19  C   UNL     1      10.645  11.321  18.112  0.00  0.00    +0.000 C 
ATOM     20  C   UNL     1       9.698  10.330  18.795  0.00  0.00    +0.000 C 
ATOM     21  C   UNL     1       9.326  10.848  20.186  0.00  0.00    +0.000 C 
ENDBRANCH  18  20
ENDBRANCH  13  18
ENDBRANCH  12  16
ENDBRANCH   1  12
TORSDOF 4
ENDMDL
MODEL 8
REMARK VINA RESULT:      -7.2      1.425      1.578
REMARK  Name = 
REMARK  6 active torsions:
REMARK  status: ('A' for Active; 'I' for Inactive)
REMARK    1  A    between atoms: C_1  and  C_2
REMARK    2  A    between atoms: C_2  and  C_3
REMARK    3  A    between atoms: C_2  and  C_4
REMARK    4  A    between atoms: C_4  and  C_5
REMARK    5  A    between atoms: C_8  and  C_9
REMARK    6  A    between atoms: C_9  and  N_10
REMARK                            x       y       z     vdW  Elec       q    Type
REMARK                         _______ _______ _______ _____ _____    ______ ____
ROOT
ATOM      1  N   UNL     1       4.841   6.167  17.896  0.00  0.00    +0.000 N 
ATOM      2  C   UNL     1       3.957   7.141  17.517  0.00  0.00    +0.000 A 
ATOM      3  N   UNL     1       2.755   6.917  17.996  0.00  0.00    +0.000 NA
ATOM      4  C   UNL     1       2.859   5.757  18.719  0.00  0.00    +0.000 A 
ATOM      5  C   UNL     1       1.869   5.059  19.426  0.00  0.00    +0.000 A 
ATOM      6  C   UNL     1       2.235   3.884  20.081  0.00  0.00    +0.000 A 
ATOM      7  F   UNL     1       1.301   3.196  20.752  0.00  0.00    +0.000 F 
ATOM      8  C   UNL     1       3.545   3.415  20.046  0.00  0.00    +0.000 A 
ATOM      9  F   UNL     1       3.863   2.281  20.688  0.00  0.00    +0.000 F 
ATOM     10  C   UNL     1       4.548   4.093  19.350  0.00  0.00    +0.000 A 
ATOM     11  C   UNL     1       4.166   5.266  18.687  0.00  0.00    +0.000 A 
ENDROOT
BRANCH   1  12
ATOM     12  C   UNL     1       6.206   6.057  17.419  0.00  0.00    +0.000 C 
BRANCH  12  16
ATOM     13  C   UNL     1       6.347   4.371  14.298  0.00  0.00    +0.000 A 
ATOM     14  N   UNL     1       6.171   3.312  15.098  0.00  0.00    +0.000 NA
ATOM     15  O   UNL     1       6.132   3.877  16.373  0.00  0.00    +0.000 OA
ATOM     16  C   UNL     1       6.287   5.222  16.204  0.00  0.00    +0.000 A 
ATOM     17  N   UNL     1       6.415   5.579  14.946  0.00  0.00    +0.000 NA
BRANCH  13  18
ATOM     18  C   UNL     1       6.454   4.247  12.820  0.00  0.00    +0.000 C 
BRANCH  18  20
ATOM     19  C   UNL     1       4.494   3.350  11.469  0.00  0.00    +0.000 C 
ATOM     20  C   UNL     1       5.756   2.996  12.260  0.00  0.00    +0.000 C 
ATOM     21  C   UNL     1       6.719   2.208  11.370  0.00  0.00    +0.000 C 
ENDBRANCH  18  20
ENDBRANCH  13  18
ENDBRANCH  12  16
ENDBRANCH   1  12
TORSDOF 4
ENDMDL
MODEL 9
REMARK VINA RESULT:      -7.1      1.487      1.985
REMARK  Name = 
REMARK  6 active torsions:
REMARK  status: ('A' for Active; 'I' for Inactive)
REMARK    1  A    between atoms: C_1  and  C_2
REMARK    2  A    between atoms: C_2  and  C_3
REMARK    3  A    between atoms: C_2  and  C_4
REMARK    4  A    between atoms: C_4  and  C_5
REMARK    5  A    between atoms: C_8  and  C_9
REMARK    6  A    between atoms: C_9  and  N_10
REMARK                            x       y       z     vdW  Elec       q    Type
REMARK                         _______ _______ _______ _____ _____    ______ ____
ROOT
ATOM      1  N   UNL     1       5.720   5.603  17.878  0.00  0.00    +0.000 N 
ATOM      2  C   UNL     1       6.443   5.434  19.026  0.00  0.00    +0.000 A 
ATOM      3  N   UNL     1       5.693   4.998  20.012  0.00  0.00    +0.000 NA
ATOM      4  C   UNL     1       4.433   4.874  19.486  0.00  0.00    +0.000 A 
ATOM      5  C   UNL     1       3.247   4.464  20.110  0.00  0.00    +0.000 A 
ATOM      6  C   UNL     1       2.081   4.430  19.346  0.00  0.00    +0.000 A 
ATOM      7  F   UNL     1       0.934   4.052  19.927  0.00  0.00    +0.000 F 
ATOM      8  C   UNL     1       2.088   4.784  17.999  0.00  0.00    +0.000 A 
ATOM      9  F   UNL     1       0.948   4.740  17.293  0.00  0.00    +0.000 F 
ATOM     10  C   UNL     1       3.257   5.196  17.356  0.00  0.00    +0.000 A 
ATOM     11  C   UNL     1       4.420   5.236  18.137  0.00  0.00    +0.000 A 
ENDROOT
BRANCH   1  12
ATOM     12  C   UNL     1       6.231   6.200  16.658  0.00  0.00    +0.000 C 
BRANCH  12  16
ATOM     13  C   UNL     1       6.380   4.108  13.793  0.00  0.00    +0.000 A 
ATOM     14  N   UNL     1       6.201   3.167  14.728  0.00  0.00    +0.000 NA
ATOM     15  O   UNL     1       6.159   3.898  15.915  0.00  0.00    +0.000 OA
ATOM     16  C   UNL     1       6.315   5.208  15.567  0.00  0.00    +0.000 A 
ATOM     17  N   UNL     1       6.447   5.393  14.272  0.00  0.00    +0.000 NA
BRANCH  13  18
ATOM     18  C   UNL     1       6.492   3.787  12.345  0.00  0.00    +0.000 C 
BRANCH  18  20
ATOM     19  C   UNL     1       4.321   3.078  11.223  0.00  0.00    +0.000 C 
ATOM     20  C   UNL     1       5.604   2.607  11.913  0.00  0.00    +0.000 C 
ATOM     21  C   UNL     1       6.381   1.678  10.976  0.00  0.00    +0.000 C 
ENDBRANCH  18  20
ENDBRANCH  13  18
ENDBRANCH  12  16
ENDBRANCH   1  12
TORSDOF 4
ENDMDL
