MODEL 1
REMARK VINA RESULT:      -7.3      0.000      0.000
REMARK  Name = 
REMARK  8 active torsions:
REMARK  status: ('A' for Active; 'I' for Inactive)
REMARK    1  A    between atoms: C_1  and  C_2
REMARK    2  A    between atoms: C_2  and  N_3
REMARK    3  A    between atoms: N_5  and  C_6
REMARK    4  A    between atoms: N_10  and  C_11
REMARK    5  A    between atoms: C_11  and  C_12
REMARK    6  A    between atoms: C_12  and  C_13
REMARK    7  A    between atoms: C_13  and  C_14
REMARK    8  A    between atoms: C_14  and  C_16
REMARK                            x       y       z     vdW  Elec       q    Type
REMARK                         _______ _______ _______ _____ _____    ______ ____
ROOT
ATOM      1  N   UNL     1       3.016   4.053  18.433  0.00  0.00    +0.000 N 
ATOM      2  C   UNL     1       3.533   3.326  17.327  0.00  0.00    +0.000 C 
ATOM      3  N   UNL     1       4.468   4.252  16.707  0.00  0.00    +0.000 NA
ATOM      4  C   UNL     1       5.402   3.540  15.855  0.00  0.00    +0.000 C 
ATOM      5  C   UNL     1       4.994   5.134  17.790  0.00  0.00    +0.000 C 
ATOM      6  C   UNL     1       4.995   6.606  17.332  0.00  0.00    +0.000 C 
ATOM      7  C   UNL     1       6.204   6.949  16.471  0.00  0.00    +0.000 C 
ATOM      8  N   UNL     1       7.490   6.622  17.107  0.00  0.00    +0.000 NA
ATOM      9  C   UNL     1       7.532   5.216  17.530  0.00  0.00    +0.000 C 
ATOM     10  C   UNL     1       6.356   4.780  18.407  0.00  0.00    +0.000 C 
ATOM     11  C   UNL     1       3.890   5.030  18.868  0.00  0.00    +0.000 C 
ATOM     12  O   UNL     1       3.784   5.708  19.878  0.00  0.00    +0.000 OA
ENDROOT
BRANCH   1  14
ATOM     13  C   UNL     1       1.746   2.919  20.230  0.00  0.00    +0.000 C 
ATOM     14  C   UNL     1       1.707   3.798  18.995  0.00  0.00    +0.000 C 
ENDBRANCH   1  14
BRANCH   8  15
ATOM     15  C   UNL     1       7.830   7.573  18.177  0.00  0.00    +0.000 C 
BRANCH  15  16
ATOM     16  C   UNL     1       8.130   8.986  17.663  0.00  0.00    +0.000 C 
BRANCH  16  17
ATOM     17  C   UNL     1       8.825   9.846  18.719  0.00  0.00    +0.000 C 
BRANCH  17  18
ATOM     18  C   UNL     1       9.538  11.033  18.107  0.00  0.00    +0.000 C 
ATOM     19  O   UNL     1      10.633  10.937  17.559  0.00  0.00    +0.000 OA
BRANCH  18  20
ATOM     20  C   UNL     1       8.866  12.365  18.168  0.00  0.00    +0.000 A 
ATOM     21  C   UNL     1       7.787  12.699  17.335  0.00  0.00    +0.000 A 
ATOM     22  C   UNL     1       7.191  13.958  17.436  0.00  0.00    +0.000 A 
ATOM     23  C   UNL     1       7.673  14.876  18.363  0.00  0.00    +0.000 A 
ATOM     24  F   UNL     1       7.096  16.080  18.456  0.00  0.00    +0.000 F 
ATOM     25  C   UNL     1       8.743  14.562  19.192  0.00  0.00    +0.000 A 
ATOM     26  C   UNL     1       9.341  13.306  19.094  0.00  0.00    +0.000 A 
ENDBRANCH  18  20
ENDBRANCH  17  18
ENDBRANCH  16  17
ENDBRANCH  15  16
ENDBRANCH   8  15
TORSDOF 6
ENDMDL
MODEL 2
REMARK VINA RESULT:      -7.3      1.596      1.917
REMARK  Name = 
REMARK  8 active torsions:
REMARK  status: ('A' for Active; 'I' for Inactive)
REMARK    1  A    between atoms: C_1  and  C_2
REMARK    2  A    between atoms: C_2  and  N_3
REMARK    3  A    between atoms: N_5  and  C_6
REMARK    4  A    between atoms: N_10  and  C_11
REMARK    5  A    between atoms: C_11  and  C_12
REMARK    6  A    between atoms: C_12  and  C_13
REMARK    7  A    between atoms: C_13  and  C_14
REMARK    8  A    between atoms: C_14  and  C_16
REMARK                            x       y       z     vdW  Elec       q    Type
REMARK                         _______ _______ _______ _____ _____    ______ ____
ROOT
ATOM      1  N   UNL     1       3.178   3.781  18.721  0.00  0.00    +0.000 N 
ATOM      2  C   UNL     1       3.902   3.049  17.742  0.00  0.00    +0.000 C 
ATOM      3  N   UNL     1       4.559   4.078  16.952  0.00  0.00    +0.000 NA
ATOM      4  C   UNL     1       5.674   3.519  16.210  0.00  0.00    +0.000 C 
ATOM      5  C   UNL     1       4.793   5.242  17.856  0.00  0.00    +0.000 C 
ATOM      6  C   UNL     1       4.396   6.556  17.154  0.00  0.00    +0.000 C 
ATOM      7  C   UNL     1       5.483   7.070  16.219  0.00  0.00    +0.000 C 
ATOM      8  N   UNL     1       6.793   7.226  16.869  0.00  0.00    +0.000 NA
ATOM      9  C   UNL     1       7.214   5.981  17.524  0.00  0.00    +0.000 C 
ATOM     10  C   UNL     1       6.184   5.391  18.491  0.00  0.00    +0.000 C 
ATOM     11  C   UNL     1       3.735   5.021  18.962  0.00  0.00    +0.000 C 
ATOM     12  O   UNL     1       3.421   5.804  19.844  0.00  0.00    +0.000 OA
ENDROOT
BRANCH   1  14
ATOM     13  C   UNL     1       2.218   2.720  20.742  0.00  0.00    +0.000 C 
ATOM     14  C   UNL     1       1.978   3.271  19.350  0.00  0.00    +0.000 C 
ENDBRANCH   1  14
BRANCH   8  15
ATOM     15  C   UNL     1       6.829   8.402  17.753  0.00  0.00    +0.000 C 
BRANCH  15  16
ATOM     16  C   UNL     1       8.134   9.200  17.652  0.00  0.00    +0.000 C 
BRANCH  16  17
ATOM     17  C   UNL     1       8.998   9.051  18.904  0.00  0.00    +0.000 C 
BRANCH  17  18
ATOM     18  C   UNL     1       9.278  10.384  19.565  0.00  0.00    +0.000 C 
ATOM     19  O   UNL     1       9.097  10.579  20.764  0.00  0.00    +0.000 OA
BRANCH  18  20
ATOM     20  C   UNL     1       9.806  11.493  18.716  0.00  0.00    +0.000 A 
ATOM     21  C   UNL     1       9.008  12.577  18.317  0.00  0.00    +0.000 A 
ATOM     22  C   UNL     1       9.553  13.591  17.527  0.00  0.00    +0.000 A 
ATOM     23  C   UNL     1      10.887  13.520  17.139  0.00  0.00    +0.000 A 
ATOM     24  F   UNL     1      11.403  14.497  16.383  0.00  0.00    +0.000 F 
ATOM     25  C   UNL     1      11.689  12.453  17.522  0.00  0.00    +0.000 A 
ATOM     26  C   UNL     1      11.148  11.437  18.310  0.00  0.00    +0.000 A 
ENDBRANCH  18  20
ENDBRANCH  17  18
ENDBRANCH  16  17
ENDBRANCH  15  16
ENDBRANCH   8  15
TORSDOF 6
ENDMDL
MODEL 3
REMARK VINA RESULT:      -7.1      3.768      7.076
REMARK  Name = 
REMARK  8 active torsions:
REMARK  status: ('A' for Active; 'I' for Inactive)
REMARK    1  A    between atoms: C_1  and  C_2
REMARK    2  A    between atoms: C_2  and  N_3
REMARK    3  A    between atoms: N_5  and  C_6
REMARK    4  A    between atoms: N_10  and  C_11
REMARK    5  A    between atoms: C_11  and  C_12
REMARK    6  A    between atoms: C_12  and  C_13
REMARK    7  A    between atoms: C_13  and  C_14
REMARK    8  A    between atoms: C_14  and  C_16
REMARK                            x       y       z     vdW  Elec       q    Type
REMARK                         _______ _______ _______ _____ _____    ______ ____
ROOT
ATOM      1  N   UNL     1       6.727   5.873  17.832  0.00  0.00    +0.000 N 
ATOM      2  C   UNL     1       6.675   5.413  16.488  0.00  0.00    +0.000 C 
ATOM      3  N   UNL     1       5.935   4.164  16.575  0.00  0.00    +0.000 NA
ATOM      4  C   UNL     1       5.405   3.793  15.277  0.00  0.00    +0.000 C 
ATOM      5  C   UNL     1       5.006   4.285  17.737  0.00  0.00    +0.000 C 
ATOM      6  C   UNL     1       5.045   3.004  18.593  0.00  0.00    +0.000 C 
ATOM      7  C   UNL     1       4.176   1.891  18.020  0.00  0.00    +0.000 C 
ATOM      8  N   UNL     1       2.781   2.296  17.788  0.00  0.00    +0.000 NA
ATOM      9  C   UNL     1       2.708   3.500  16.950  0.00  0.00    +0.000 C 
ATOM     10  C   UNL     1       3.548   4.676  17.453  0.00  0.00    +0.000 C 
ATOM     11  C   UNL     1       5.684   5.382  18.591  0.00  0.00    +0.000 C 
ATOM     12  O   UNL     1       5.387   5.715  19.728  0.00  0.00    +0.000 OA
ENDROOT
BRANCH   1  14
ATOM     13  C   UNL     1       7.831   8.081  17.637  0.00  0.00    +0.000 C 
ATOM     14  C   UNL     1       7.784   6.730  18.325  0.00  0.00    +0.000 C 
ENDBRANCH   1  14
BRANCH   8  15
ATOM     15  C   UNL     1       2.025   2.403  19.046  0.00  0.00    +0.000 C 
BRANCH  15  16
ATOM     16  C   UNL     1       0.907   3.452  18.998  0.00  0.00    +0.000 C 
BRANCH  16  17
ATOM     17  C   UNL     1       0.708   4.141  20.348  0.00  0.00    +0.000 C 
BRANCH  17  18
ATOM     18  C   UNL     1       1.848   5.081  20.679  0.00  0.00    +0.000 C 
ATOM     19  O   UNL     1       2.868   4.709  21.254  0.00  0.00    +0.000 OA
BRANCH  18  20
ATOM     20  C   UNL     1       1.719   6.513  20.276  0.00  0.00    +0.000 A 
ATOM     21  C   UNL     1       2.233   6.999  19.064  0.00  0.00    +0.000 A 
ATOM     22  C   UNL     1       2.081   8.347  18.732  0.00  0.00    +0.000 A 
ATOM     23  C   UNL     1       1.421   9.202  19.608  0.00  0.00    +0.000 A 
ATOM     24  F   UNL     1       1.277  10.492  19.283  0.00  0.00    +0.000 F 
ATOM     25  C   UNL     1       0.910   8.738  20.813  0.00  0.00    +0.000 A 
ATOM     26  C   UNL     1       1.060   7.392  21.149  0.00  0.00    +0.000 A 
ENDBRANCH  18  20
ENDBRANCH  17  18
ENDBRANCH  16  17
ENDBRANCH  15  16
ENDBRANCH   8  15
TORSDOF 6
ENDMDL
MODEL 4
REMARK VINA RESULT:      -7.0      1.713      2.020
REMARK  Name = 
REMARK  8 active torsions:
REMARK  status: ('A' for Active; 'I' for Inactive)
REMARK    1  A    between atoms: C_1  and  C_2
REMARK    2  A    between atoms: C_2  and  N_3
REMARK    3  A    between atoms: N_5  and  C_6
REMARK    4  A    between atoms: N_10  and  C_11
REMARK    5  A    between atoms: C_11  and  C_12
REMARK    6  A    between atoms: C_12  and  C_13
REMARK    7  A    between atoms: C_13  and  C_14
REMARK    8  A    between atoms: C_14  and  C_16
REMARK                            x       y       z     vdW  Elec       q    Type
REMARK                         _______ _______ _______ _____ _____    ______ ____
ROOT
ATOM      1  N   UNL     1       2.970   3.915  18.752  0.00  0.00    +0.000 N 
ATOM      2  C   UNL     1       3.608   3.150  17.738  0.00  0.00    +0.000 C 
ATOM      3  N   UNL     1       4.344   4.139  16.965  0.00  0.00    +0.000 NA
ATOM      4  C   UNL     1       5.390   3.503  16.187  0.00  0.00    +0.000 C 
ATOM      5  C   UNL     1       4.698   5.249  17.898  0.00  0.00    +0.000 C 
ATOM      6  C   UNL     1       4.413   6.614  17.243  0.00  0.00    +0.000 C 
ATOM      7  C   UNL     1       5.527   7.055  16.302  0.00  0.00    +0.000 C 
ATOM      8  N   UNL     1       6.857   7.070  16.932  0.00  0.00    +0.000 NA
ATOM      9  C   UNL     1       7.171   5.772  17.542  0.00  0.00    +0.000 C 
ATOM     10  C   UNL     1       6.108   5.249  18.510  0.00  0.00    +0.000 C 
ATOM     11  C   UNL     1       3.643   5.091  19.018  0.00  0.00    +0.000 C 
ATOM     12  O   UNL     1       3.417   5.872  19.929  0.00  0.00    +0.000 OA
ENDROOT
BRANCH   1  14
ATOM     13  C   UNL     1       1.039   2.368  18.658  0.00  0.00    +0.000 C 
ATOM     14  C   UNL     1       1.738   3.499  19.388  0.00  0.00    +0.000 C 
ENDBRANCH   1  14
BRANCH   8  15
ATOM     15  C   UNL     1       7.016   8.209  17.849  0.00  0.00    +0.000 C 
BRANCH  15  16
ATOM     16  C   UNL     1       8.297   9.015  17.603  0.00  0.00    +0.000 C 
BRANCH  16  17
ATOM     17  C   UNL     1       8.885   9.571  18.901  0.00  0.00    +0.000 C 
BRANCH  17  18
ATOM     18  C   UNL     1       9.682  10.836  18.668  0.00  0.00    +0.000 C 
ATOM     19  O   UNL     1      10.287  11.055  17.621  0.00  0.00    +0.000 OA
BRANCH  18  20
ATOM     20  C   UNL     1       9.716  11.857  19.758  0.00  0.00    +0.000 A 
ATOM     21  C   UNL     1       9.220  11.597  21.044  0.00  0.00    +0.000 A 
ATOM     22  C   UNL     1       9.281  12.586  22.029  0.00  0.00    +0.000 A 
ATOM     23  C   UNL     1       9.833  13.826  21.726  0.00  0.00    +0.000 A 
ATOM     24  F   UNL     1       9.890  14.768  22.675  0.00  0.00    +0.000 F 
ATOM     25  C   UNL     1      10.324  14.100  20.457  0.00  0.00    +0.000 A 
ATOM     26  C   UNL     1      10.265  13.116  19.470  0.00  0.00    +0.000 A 
ENDBRANCH  18  20
ENDBRANCH  17  18
ENDBRANCH  16  17
ENDBRANCH  15  16
ENDBRANCH   8  15
TORSDOF 6
ENDMDL
MODEL 5
REMARK VINA RESULT:      -7.0      1.782      2.130
REMARK  Name = 
REMARK  8 active torsions:
REMARK  status: ('A' for Active; 'I' for Inactive)
REMARK    1  A    between atoms: C_1  and  C_2
REMARK    2  A    between atoms: C_2  and  N_3
REMARK    3  A    between atoms: N_5  and  C_6
REMARK    4  A    between atoms: N_10  and  C_11
REMARK    5  A    between atoms: C_11  and  C_12
REMARK    6  A    between atoms: C_12  and  C_13
REMARK    7  A    between atoms: C_13  and  C_14
REMARK    8  A    between atoms: C_14  and  C_16
REMARK                            x       y       z     vdW  Elec       q    Type
REMARK                         _______ _______ _______ _____ _____    ______ ____
ROOT
ATOM      1  N   UNL     1       2.510   4.257  19.376  0.00  0.00    +0.000 N 
ATOM      2  C   UNL     1       3.230   3.247  18.683  0.00  0.00    +0.000 C 
ATOM      3  N   UNL     1       3.992   3.983  17.686  0.00  0.00    +0.000 NA
ATOM      4  C   UNL     1       5.101   3.184  17.199  0.00  0.00    +0.000 C 
ATOM      5  C   UNL     1       4.260   5.338  18.251  0.00  0.00    +0.000 C 
ATOM      6  C   UNL     1       3.987   6.426  17.194  0.00  0.00    +0.000 C 
ATOM      7  C   UNL     1       5.150   6.605  16.226  0.00  0.00    +0.000 C 
ATOM      8  N   UNL     1       6.435   6.866  16.893  0.00  0.00    +0.000 NA
ATOM      9  C   UNL     1       6.738   5.830  17.889  0.00  0.00    +0.000 C 
ATOM     10  C   UNL     1       5.626   5.584  18.910  0.00  0.00    +0.000 C 
ATOM     11  C   UNL     1       3.137   5.485  19.305  0.00  0.00    +0.000 C 
ATOM     12  O   UNL     1       2.835   6.497  19.918  0.00  0.00    +0.000 OA
ENDROOT
BRANCH   1  14
ATOM     13  C   UNL     1       1.338   2.925  21.102  0.00  0.00    +0.000 C 
ATOM     14  C   UNL     1       1.249   4.004  20.040  0.00  0.00    +0.000 C 
ENDBRANCH   1  14
BRANCH   8  15
ATOM     15  C   UNL     1       6.508   8.237  17.424  0.00  0.00    +0.000 C 
BRANCH  15  16
ATOM     16  C   UNL     1       7.941   8.715  17.683  0.00  0.00    +0.000 C 
BRANCH  16  17
ATOM     17  C   UNL     1       8.007  10.219  17.944  0.00  0.00    +0.000 C 
BRANCH  17  18
ATOM     18  C   UNL     1       9.222  10.602  18.762  0.00  0.00    +0.000 C 
ATOM     19  O   UNL     1       9.568   9.981  19.764  0.00  0.00    +0.000 OA
BRANCH  18  20
ATOM     20  C   UNL     1      10.030  11.776  18.316  0.00  0.00    +0.000 A 
ATOM     21  C   UNL     1      11.302  11.635  17.740  0.00  0.00    +0.000 A 
ATOM     22  C   UNL     1      12.013  12.766  17.334  0.00  0.00    +0.000 A 
ATOM     23  C   UNL     1      11.457  14.028  17.506  0.00  0.00    +0.000 A 
ATOM     24  F   UNL     1      12.144  15.108  17.114  0.00  0.00    +0.000 F 
ATOM     25  C   UNL     1      10.201  14.186  18.079  0.00  0.00    +0.000 A 
ATOM     26  C   UNL     1       9.487  13.058  18.485  0.00  0.00    +0.000 A 
ENDBRANCH  18  20
ENDBRANCH  17  18
ENDBRANCH  16  17
ENDBRANCH  15  16
ENDBRANCH   8  15
TORSDOF 6
ENDMDL
MODEL 6
REMARK VINA RESULT:      -6.9      2.585      3.905
REMARK  Name = 
REMARK  8 active torsions:
REMARK  status: ('A' for Active; 'I' for Inactive)
REMARK    1  A    between atoms: C_1  and  C_2
REMARK    2  A    between atoms: C_2  and  N_3
REMARK    3  A    between atoms: N_5  and  C_6
REMARK    4  A    between atoms: N_10  and  C_11
REMARK    5  A    between atoms: C_11  and  C_12
REMARK    6  A    between atoms: C_12  and  C_13
REMARK    7  A    between atoms: C_13  and  C_14
REMARK    8  A    between atoms: C_14  and  C_16
REMARK                            x       y       z     vdW  Elec       q    Type
REMARK                         _______ _______ _______ _____ _____    ______ ____
ROOT
ATOM      1  N   UNL     1       5.924   3.884  13.777  0.00  0.00    +0.000 N 
ATOM      2  C   UNL     1       4.834   3.640  14.655  0.00  0.00    +0.000 C 
ATOM      3  N   UNL     1       5.355   3.995  15.966  0.00  0.00    +0.000 NA
ATOM      4  C   UNL     1       4.271   4.237  16.899  0.00  0.00    +0.000 C 
ATOM      5  C   UNL     1       6.387   5.053  15.755  0.00  0.00    +0.000 C 
ATOM      6  C   UNL     1       7.646   4.752  16.592  0.00  0.00    +0.000 C 
ATOM      7  C   UNL     1       7.500   5.190  18.044  0.00  0.00    +0.000 C 
ATOM      8  N   UNL     1       7.124   6.604  18.196  0.00  0.00    +0.000 NA
ATOM      9  C   UNL     1       5.910   6.918  17.431  0.00  0.00    +0.000 C 
ATOM     10  C   UNL     1       5.967   6.517  15.956  0.00  0.00    +0.000 C 
ATOM     11  C   UNL     1       6.799   4.825  14.281  0.00  0.00    +0.000 C 
ATOM     12  O   UNL     1       7.738   5.340  13.694  0.00  0.00    +0.000 OA
ENDROOT
BRANCH   1  14
ATOM     13  C   UNL     1       4.853   3.231  11.642  0.00  0.00    +0.000 C 
ATOM     14  C   UNL     1       6.089   3.184  12.520  0.00  0.00    +0.000 C 
ENDBRANCH   1  14
BRANCH   8  15
ATOM     15  C   UNL     1       8.252   7.505  17.911  0.00  0.00    +0.000 C 
BRANCH  15  16
ATOM     16  C   UNL     1       8.325   8.709  18.858  0.00  0.00    +0.000 C 
BRANCH  16  17
ATOM     17  C   UNL     1       8.685   9.999  18.120  0.00  0.00    +0.000 C 
BRANCH  17  18
ATOM     18  C   UNL     1       9.384  10.993  19.022  0.00  0.00    +0.000 C 
ATOM     19  O   UNL     1       9.518  10.812  20.229  0.00  0.00    +0.000 OA
BRANCH  18  20
ATOM     20  C   UNL     1       9.939  12.234  18.404  0.00  0.00    +0.000 A 
ATOM     21  C   UNL     1       9.380  13.501  18.633  0.00  0.00    +0.000 A 
ATOM     22  C   UNL     1       9.942  14.631  18.035  0.00  0.00    +0.000 A 
ATOM     23  C   UNL     1      11.054  14.493  17.212  0.00  0.00    +0.000 A 
ATOM     24  F   UNL     1      11.589  15.580  16.643  0.00  0.00    +0.000 F 
ATOM     25  C   UNL     1      11.617  13.246  16.971  0.00  0.00    +0.000 A 
ATOM     26  C   UNL     1      11.059  12.115  17.567  0.00  0.00    +0.000 A 
ENDBRANCH  18  20
ENDBRANCH  17  18
ENDBRANCH  16  17
ENDBRANCH  15  16
ENDBRANCH   8  15
TORSDOF 6
ENDMDL
MODEL 7
REMARK VINA RESULT:      -6.9      6.933      9.813
REMARK  Name = 
REMARK  8 active torsions:
REMARK  status: ('A' for Active; 'I' for Inactive)
REMARK    1  A    between atoms: C_1  and  C_2
REMARK    2  A    between atoms: C_2  and  N_3
REMARK    3  A    between atoms: N_5  and  C_6
REMARK    4  A    between atoms: N_10  and  C_11
REMARK    5  A    between atoms: C_11  and  C_12
REMARK    6  A    between atoms: C_12  and  C_13
REMARK    7  A    between atoms: C_13  and  C_14
REMARK    8  A    between atoms: C_14  and  C_16
REMARK                            x       y       z     vdW  Elec       q    Type
REMARK                         _______ _______ _______ _____ _____    ______ ____
ROOT
ATOM      1  N   UNL     1      -1.703  12.100  21.882  0.00  0.00    +0.000 N 
ATOM      2  C   UNL     1      -2.115  12.740  20.682  0.00  0.00    +0.000 C 
ATOM      3  N   UNL     1      -1.014  12.500  19.762  0.00  0.00    +0.000 NA
ATOM      4  C   UNL     1      -1.445  12.684  18.389  0.00  0.00    +0.000 C 
ATOM      5  C   UNL     1      -0.382  11.208  20.163  0.00  0.00    +0.000 C 
ATOM      6  C   UNL     1       1.153  11.342  20.176  0.00  0.00    +0.000 C 
ATOM      7  C   UNL     1       1.764  11.204  18.787  0.00  0.00    +0.000 C 
ATOM      8  N   UNL     1       1.374   9.966  18.094  0.00  0.00    +0.000 NA
ATOM      9  C   UNL     1      -0.086   9.823  18.039  0.00  0.00    +0.000 C 
ATOM     10  C   UNL     1      -0.788   9.942  19.394  0.00  0.00    +0.000 C 
ATOM     11  C   UNL     1      -0.805  11.078  21.645  0.00  0.00    +0.000 C 
ATOM     12  O   UNL     1      -0.393  10.264  22.456  0.00  0.00    +0.000 OA
ENDROOT
BRANCH   1  14
ATOM     13  C   UNL     1      -3.280  13.541  23.133  0.00  0.00    +0.000 C 
ATOM     14  C   UNL     1      -2.163  12.517  23.189  0.00  0.00    +0.000 C 
ENDBRANCH   1  14
BRANCH   8  15
ATOM     15  C   UNL     1       2.065   8.789  18.645  0.00  0.00    +0.000 C 
BRANCH  15  16
ATOM     16  C   UNL     1       2.287   7.675  17.616  0.00  0.00    +0.000 C 
BRANCH  16  17
ATOM     17  C   UNL     1       3.685   7.066  17.720  0.00  0.00    +0.000 C 
BRANCH  17  18
ATOM     18  C   UNL     1       3.653   5.554  17.664  0.00  0.00    +0.000 C 
ATOM     19  O   UNL     1       4.252   4.911  16.806  0.00  0.00    +0.000 OA
BRANCH  18  20
ATOM     20  C   UNL     1       2.869   4.827  18.706  0.00  0.00    +0.000 A 
ATOM     21  C   UNL     1       3.032   5.078  20.077  0.00  0.00    +0.000 A 
ATOM     22  C   UNL     1       2.269   4.374  21.011  0.00  0.00    +0.000 A 
ATOM     23  C   UNL     1       1.352   3.424  20.575  0.00  0.00    +0.000 A 
ATOM     24  F   UNL     1       0.623   2.753  21.475  0.00  0.00    +0.000 F 
ATOM     25  C   UNL     1       1.182   3.160  19.222  0.00  0.00    +0.000 A 
ATOM     26  C   UNL     1       1.942   3.862  18.286  0.00  0.00    +0.000 A 
ENDBRANCH  18  20
ENDBRANCH  17  18
ENDBRANCH  16  17
ENDBRANCH  15  16
ENDBRANCH   8  15
TORSDOF 6
ENDMDL
MODEL 8
REMARK VINA RESULT:      -6.8      0.501      1.067
REMARK  Name = 
REMARK  8 active torsions:
REMARK  status: ('A' for Active; 'I' for Inactive)
REMARK    1  A    between atoms: C_1  and  C_2
REMARK    2  A    between atoms: C_2  and  N_3
REMARK    3  A    between atoms: N_5  and  C_6
REMARK    4  A    between atoms: N_10  and  C_11
REMARK    5  A    between atoms: C_11  and  C_12
REMARK    6  A    between atoms: C_12  and  C_13
REMARK    7  A    between atoms: C_13  and  C_14
REMARK    8  A    between atoms: C_14  and  C_16
REMARK                            x       y       z     vdW  Elec       q    Type
REMARK                         _______ _______ _______ _____ _____    ______ ____
ROOT
ATOM      1  N   UNL     1       3.068   3.924  18.698  0.00  0.00    +0.000 N 
ATOM      2  C   UNL     1       3.700   3.139  17.697  0.00  0.00    +0.000 C 
ATOM      3  N   UNL     1       4.453   4.107  16.916  0.00  0.00    +0.000 NA
ATOM      4  C   UNL     1       5.493   3.448  16.149  0.00  0.00    +0.000 C 
ATOM      5  C   UNL     1       4.818   5.223  17.837  0.00  0.00    +0.000 C 
ATOM      6  C   UNL     1       4.555   6.585  17.164  0.00  0.00    +0.000 C 
ATOM      7  C   UNL     1       5.679   6.999  16.223  0.00  0.00    +0.000 C 
ATOM      8  N   UNL     1       7.006   7.003  16.858  0.00  0.00    +0.000 NA
ATOM      9  C   UNL     1       7.300   5.708  17.486  0.00  0.00    +0.000 C 
ATOM     10  C   UNL     1       6.225   5.212  18.455  0.00  0.00    +0.000 C 
ATOM     11  C   UNL     1       3.756   5.094  18.953  0.00  0.00    +0.000 C 
ATOM     12  O   UNL     1       3.537   5.889  19.853  0.00  0.00    +0.000 OA
ENDROOT
BRANCH   1  14
ATOM     13  C   UNL     1       1.558   2.043  19.253  0.00  0.00    +0.000 C 
ATOM     14  C   UNL     1       1.828   3.533  19.334  0.00  0.00    +0.000 C 
ENDBRANCH   1  14
BRANCH   8  15
ATOM     15  C   UNL     1       7.177   8.151  17.762  0.00  0.00    +0.000 C 
BRANCH  15  16
ATOM     16  C   UNL     1       8.350   9.061  17.377  0.00  0.00    +0.000 C 
BRANCH  16  17
ATOM     17  C   UNL     1       8.911   9.817  18.582  0.00  0.00    +0.000 C 
BRANCH  17  18
ATOM     18  C   UNL     1       9.574  11.116  18.179  0.00  0.00    +0.000 C 
ATOM     19  O   UNL     1      10.701  11.162  17.693  0.00  0.00    +0.000 OA
BRANCH  18  20
ATOM     20  C   UNL     1       8.812  12.385  18.375  0.00  0.00    +0.000 A 
ATOM     21  C   UNL     1       9.046  13.241  19.462  0.00  0.00    +0.000 A 
ATOM     22  C   UNL     1       8.308  14.419  19.595  0.00  0.00    +0.000 A 
ATOM     23  C   UNL     1       7.342  14.737  18.647  0.00  0.00    +0.000 A 
ATOM     24  F   UNL     1       6.640  15.869  18.779  0.00  0.00    +0.000 F 
ATOM     25  C   UNL     1       7.095  13.899  17.567  0.00  0.00    +0.000 A 
ATOM     26  C   UNL     1       7.829  12.721  17.431  0.00  0.00    +0.000 A 
ENDBRANCH  18  20
ENDBRANCH  17  18
ENDBRANCH  16  17
ENDBRANCH  15  16
ENDBRANCH   8  15
TORSDOF 6
ENDMDL
MODEL 9
REMARK VINA RESULT:      -6.7      2.619      3.972
REMARK  Name = 
REMARK  8 active torsions:
REMARK  status: ('A' for Active; 'I' for Inactive)
REMARK    1  A    between atoms: C_1  and  C_2
REMARK    2  A    between atoms: C_2  and  N_3
REMARK    3  A    between atoms: N_5  and  C_6
REMARK    4  A    between atoms: N_10  and  C_11
REMARK    5  A    between atoms: C_11  and  C_12
REMARK    6  A    between atoms: C_12  and  C_13
REMARK    7  A    between atoms: C_13  and  C_14
REMARK    8  A    between atoms: C_14  and  C_16
REMARK                            x       y       z     vdW  Elec       q    Type
REMARK                         _______ _______ _______ _____ _____    ______ ____
ROOT
ATOM      1  N   UNL     1       5.956   4.049  13.840  0.00  0.00    +0.000 N 
ATOM      2  C   UNL     1       4.808   3.896  14.663  0.00  0.00    +0.000 C 
ATOM      3  N   UNL     1       5.287   4.222  15.997  0.00  0.00    +0.000 NA
ATOM      4  C   UNL     1       4.179   4.553  16.872  0.00  0.00    +0.000 C 
ATOM      5  C   UNL     1       6.406   5.197  15.834  0.00  0.00    +0.000 C 
ATOM      6  C   UNL     1       7.594   4.808  16.736  0.00  0.00    +0.000 C 
ATOM      7  C   UNL     1       7.409   5.268  18.176  0.00  0.00    +0.000 C 
ATOM      8  N   UNL     1       7.134   6.708  18.303  0.00  0.00    +0.000 NA
ATOM      9  C   UNL     1       5.988   7.106  17.475  0.00  0.00    +0.000 C 
ATOM     10  C   UNL     1       6.089   6.690  16.006  0.00  0.00    +0.000 C 
ATOM     11  C   UNL     1       6.873   4.926  14.384  0.00  0.00    +0.000 C 
ATOM     12  O   UNL     1       7.877   5.363  13.843  0.00  0.00    +0.000 OA
ENDROOT
BRANCH   1  14
ATOM     13  C   UNL     1       4.865   3.256  11.764  0.00  0.00    +0.000 C 
ATOM     14  C   UNL     1       6.130   3.328  12.597  0.00  0.00    +0.000 C 
ENDBRANCH   1  14
BRANCH   8  15
ATOM     15  C   UNL     1       8.341   7.518  18.072  0.00  0.00    +0.000 C 
BRANCH  15  16
ATOM     16  C   UNL     1       8.096   9.026  18.198  0.00  0.00    +0.000 C 
BRANCH  16  17
ATOM     17  C   UNL     1       9.002   9.670  19.248  0.00  0.00    +0.000 C 
BRANCH  17  18
ATOM     18  C   UNL     1       9.444  11.059  18.842  0.00  0.00    +0.000 C 
ATOM     19  O   UNL     1       9.699  11.360  17.679  0.00  0.00    +0.000 OA
BRANCH  18  20
ATOM     20  C   UNL     1       9.559  12.100  19.907  0.00  0.00    +0.000 A 
ATOM     21  C   UNL     1       9.192  11.854  21.239  0.00  0.00    +0.000 A 
ATOM     22  C   UNL     1       9.324  12.861  22.197  0.00  0.00    +0.000 A 
ATOM     23  C   UNL     1       9.819  14.106  21.824  0.00  0.00    +0.000 A 
ATOM     24  F   UNL     1       9.945  15.067  22.747  0.00  0.00    +0.000 F 
ATOM     25  C   UNL     1      10.183  14.368  20.509  0.00  0.00    +0.000 A 
ATOM     26  C   UNL     1      10.052  13.364  19.549  0.00  0.00    +0.000 A 
ENDBRANCH  18  20
ENDBRANCH  17  18
ENDBRANCH  16  17
ENDBRANCH  15  16
ENDBRANCH   8  15
TORSDOF 6
ENDMDL
