MODEL 1
REMARK VINA RESULT:      -8.2      0.000      0.000
REMARK  Name = 
REMARK  6 active torsions:
REMARK  status: ('A' for Active; 'I' for Inactive)
REMARK    1  A    between atoms: C_1  and  C_2
REMARK    2  A    between atoms: C_7  and  C_8
REMARK    3  A    between atoms: C_8  and  C_9
REMARK    4  A    between atoms: C_14  and  N_15
REMARK    5  A    between atoms: C_18  and  C_19
REMARK    6  A    between atoms: C_19  and  C_20
REMARK                            x       y       z     vdW  Elec       q    Type
REMARK                         _______ _______ _______ _____ _____    ______ ____
ROOT
ATOM      1  C   UNL     1       2.397   7.278  19.164  0.00  0.00    +0.000 C 
ATOM      2  O   UNL     1       2.892   7.362  18.042  0.00  0.00    +0.000 OA
ATOM      3  N   UNL     1       1.700   8.333  19.749  0.00  0.00    +0.000 N 
ATOM      4  C   UNL     1       1.360   8.399  21.171  0.00  0.00    +0.000 C 
ATOM      5  C   UNL     1      -0.123   8.650  21.335  0.00  0.00    +0.000 C 
ATOM      6  C   UNL     1      -0.581   9.938  20.636  0.00  0.00    +0.000 C 
ATOM      7  C   UNL     1      -0.099   9.919  19.161  0.00  0.00    +0.000 C 
ATOM      8  C   UNL     1       1.361   9.502  18.945  0.00  0.00    +0.000 C 
ENDROOT
BRANCH   6   9
ATOM      9  N   UNL     1      -0.324  11.171  21.434  0.00  0.00    +0.000 NA
ATOM     10  C   UNL     1       0.190  12.336  20.733  0.00  0.00    +0.000 C 
ATOM     11  C   UNL     1      -0.040  13.744  21.296  0.00  0.00    +0.000 C 
ATOM     12  C   UNL     1      -1.291  13.908  22.156  0.00  0.00    +0.000 C 
ATOM     13  C   UNL     1      -1.304  12.736  23.144  0.00  0.00    +0.000 C 
ATOM     14  C   UNL     1      -1.359  11.381  22.445  0.00  0.00    +0.000 C 
BRANCH  12  15
ATOM     15  C   UNL     1      -2.622  14.016  21.370  0.00  0.00    +0.000 C 
BRANCH  15  16
ATOM     16  C   UNL     1      -3.934  13.943  22.134  0.00  0.00    +0.000 A 
ATOM     17  C   UNL     1      -4.227  14.956  23.067  0.00  0.00    +0.000 A 
ATOM     18  C   UNL     1      -5.433  14.960  23.780  0.00  0.00    +0.000 A 
ATOM     19  C   UNL     1      -6.374  13.960  23.560  0.00  0.00    +0.000 A 
ATOM     20 CL   UNL     1      -7.841  13.957  24.460  0.00  0.00    +0.000 Cl
ATOM     21  C   UNL     1      -6.116  12.979  22.609  0.00  0.00    +0.000 A 
ATOM     22  F   UNL     1      -7.024  12.026  22.348  0.00  0.00    +0.000 F 
ATOM     23  C   UNL     1      -4.913  12.971  21.894  0.00  0.00    +0.000 A 
ENDBRANCH  15  16
ENDBRANCH  12  15
ENDBRANCH   6   9
BRANCH   1  24
ATOM     24  C   UNL     1       2.449   6.015  20.006  0.00  0.00    +0.000 C 
BRANCH  24  31
ATOM     25  C   UNL     1       5.102   4.865  19.207  0.00  0.00    +0.000 C 
ATOM     26  C   UNL     1       3.808   4.162  18.906  0.00  0.00    +0.000 A 
ATOM     27  C   UNL     1       3.841   2.893  18.310  0.00  0.00    +0.000 A 
ATOM     28  C   UNL     1       2.659   2.207  18.025  0.00  0.00    +0.000 A 
ATOM     29  C   UNL     1       1.427   2.777  18.322  0.00  0.00    +0.000 A 
ATOM     30  C   UNL     1       1.376   4.031  18.928  0.00  0.00    +0.000 A 
ATOM     31  C   UNL     1       2.560   4.720  19.247  0.00  0.00    +0.000 A 
ENDBRANCH  24  31
ENDBRANCH   1  24
TORSDOF 5
ENDMDL
MODEL 2
REMARK VINA RESULT:      -8.1      0.864      1.219
REMARK  Name = 
REMARK  6 active torsions:
REMARK  status: ('A' for Active; 'I' for Inactive)
REMARK    1  A    between atoms: C_1  and  C_2
REMARK    2  A    between atoms: C_7  and  C_8
REMARK    3  A    between atoms: C_8  and  C_9
REMARK    4  A    between atoms: C_14  and  N_15
REMARK    5  A    between atoms: C_18  and  C_19
REMARK    6  A    between atoms: C_19  and  C_20
REMARK                            x       y       z     vdW  Elec       q    Type
REMARK                         _______ _______ _______ _____ _____    ______ ____
ROOT
ATOM      1  C   UNL     1       2.387   7.276  19.068  0.00  0.00    +0.000 C 
ATOM      2  O   UNL     1       2.850   7.347  17.931  0.00  0.00    +0.000 OA
ATOM      3  N   UNL     1       1.708   8.338  19.662  0.00  0.00    +0.000 N 
ATOM      4  C   UNL     1       1.409   8.420  21.092  0.00  0.00    +0.000 C 
ATOM      5  C   UNL     1      -0.068   8.674  21.296  0.00  0.00    +0.000 C 
ATOM      6  C   UNL     1      -0.545   9.956  20.596  0.00  0.00    +0.000 C 
ATOM      7  C   UNL     1      -0.106   9.920  19.109  0.00  0.00    +0.000 C 
ATOM      8  C   UNL     1       1.346   9.499  18.855  0.00  0.00    +0.000 C 
ENDROOT
BRANCH   6   9
ATOM      9  N   UNL     1      -0.264  11.196  21.374  0.00  0.00    +0.000 NA
ATOM     10  C   UNL     1       0.247  12.348  20.648  0.00  0.00    +0.000 C 
ATOM     11  C   UNL     1       0.039  13.765  21.197  0.00  0.00    +0.000 C 
ATOM     12  C   UNL     1      -1.195  13.951  22.076  0.00  0.00    +0.000 C 
ATOM     13  C   UNL     1      -1.201  12.792  23.079  0.00  0.00    +0.000 C 
ATOM     14  C   UNL     1      -1.279  11.429  22.400  0.00  0.00    +0.000 C 
BRANCH  12  15
ATOM     15  C   UNL     1      -2.539  14.060  21.312  0.00  0.00    +0.000 C 
BRANCH  15  16
ATOM     16  C   UNL     1      -3.837  14.066  22.104  0.00  0.00    +0.000 A 
ATOM     17  C   UNL     1      -4.695  12.954  21.997  0.00  0.00    +0.000 A 
ATOM     18  C   UNL     1      -5.890  12.886  22.724  0.00  0.00    +0.000 A 
ATOM     19  C   UNL     1      -6.240  13.923  23.582  0.00  0.00    +0.000 A 
ATOM     20 CL   UNL     1      -7.725  13.845  24.451  0.00  0.00    +0.000 Cl
ATOM     21  C   UNL     1      -5.381  15.005  23.731  0.00  0.00    +0.000 A 
ATOM     22  F   UNL     1      -5.676  16.000  24.582  0.00  0.00    +0.000 F 
ATOM     23  C   UNL     1      -4.186  15.077  23.007  0.00  0.00    +0.000 A 
ENDBRANCH  15  16
ENDBRANCH  12  15
ENDBRANCH   6   9
BRANCH   1  24
ATOM     24  C   UNL     1       2.462   6.023  19.921  0.00  0.00    +0.000 C 
BRANCH  24  31
ATOM     25  C   UNL     1       5.160   4.960  19.155  0.00  0.00    +0.000 C 
ATOM     26  C   UNL     1       3.895   4.208  18.851  0.00  0.00    +0.000 A 
ATOM     27  C   UNL     1       3.978   2.936  18.267  0.00  0.00    +0.000 A 
ATOM     28  C   UNL     1       2.823   2.206  17.978  0.00  0.00    +0.000 A 
ATOM     29  C   UNL     1       1.569   2.735  18.260  0.00  0.00    +0.000 A 
ATOM     30  C   UNL     1       1.468   3.992  18.854  0.00  0.00    +0.000 A 
ATOM     31  C   UNL     1       2.626   4.725  19.176  0.00  0.00    +0.000 A 
ENDBRANCH  24  31
ENDBRANCH   1  24
TORSDOF 5
ENDMDL
MODEL 3
REMARK VINA RESULT:      -8.1      4.979     10.645
REMARK  Name = 
REMARK  6 active torsions:
REMARK  status: ('A' for Active; 'I' for Inactive)
REMARK    1  A    between atoms: C_1  and  C_2
REMARK    2  A    between atoms: C_7  and  C_8
REMARK    3  A    between atoms: C_8  and  C_9
REMARK    4  A    between atoms: C_14  and  N_15
REMARK    5  A    between atoms: C_18  and  C_19
REMARK    6  A    between atoms: C_19  and  C_20
REMARK                            x       y       z     vdW  Elec       q    Type
REMARK                         _______ _______ _______ _____ _____    ______ ____
ROOT
ATOM      1  C   UNL     1       1.525  10.306  18.550  0.00  0.00    +0.000 C 
ATOM      2  O   UNL     1       1.943  10.732  17.475  0.00  0.00    +0.000 OA
ATOM      3  N   UNL     1       1.554   8.951  18.873  0.00  0.00    +0.000 N 
ATOM      4  C   UNL     1       0.809   8.360  19.985  0.00  0.00    +0.000 C 
ATOM      5  C   UNL     1       1.744   7.561  20.866  0.00  0.00    +0.000 C 
ATOM      6  C   UNL     1       2.477   6.455  20.092  0.00  0.00    +0.000 C 
ATOM      7  C   UNL     1       3.155   7.070  18.839  0.00  0.00    +0.000 C 
ATOM      8  C   UNL     1       2.283   8.024  18.014  0.00  0.00    +0.000 C 
ENDROOT
BRANCH   6   9
ATOM      9  N   UNL     1       1.662   5.221  19.905  0.00  0.00    +0.000 NA
ATOM     10  C   UNL     1       1.459   4.744  18.547  0.00  0.00    +0.000 C 
ATOM     11  C   UNL     1       1.150   3.265  18.282  0.00  0.00    +0.000 C 
ATOM     12  C   UNL     1       1.697   2.288  19.319  0.00  0.00    +0.000 C 
ATOM     13  C   UNL     1       1.332   2.855  20.695  0.00  0.00    +0.000 C 
ATOM     14  C   UNL     1       1.941   4.230  20.944  0.00  0.00    +0.000 C 
BRANCH  12  15
ATOM     15  C   UNL     1       3.212   1.982  19.203  0.00  0.00    +0.000 C 
BRANCH  15  16
ATOM     16  C   UNL     1       4.112   2.982  18.496  0.00  0.00    +0.000 A 
ATOM     17  C   UNL     1       4.984   3.770  19.273  0.00  0.00    +0.000 A 
ATOM     18  C   UNL     1       5.859   4.687  18.677  0.00  0.00    +0.000 A 
ATOM     19  C   UNL     1       5.888   4.822  17.293  0.00  0.00    +0.000 A 
ATOM     20 CL   UNL     1       6.946   5.972  16.571  0.00  0.00    +0.000 Cl
ATOM     21  C   UNL     1       5.064   4.019  16.513  0.00  0.00    +0.000 A 
ATOM     22  F   UNL     1       5.101   4.102  15.174  0.00  0.00    +0.000 F 
ATOM     23  C   UNL     1       4.189   3.101  17.103  0.00  0.00    +0.000 A 
ENDBRANCH  15  16
ENDBRANCH  12  15
ENDBRANCH   6   9
BRANCH   1  24
ATOM     24  C   UNL     1       0.983  11.203  19.648  0.00  0.00    +0.000 C 
BRANCH  24  31
ATOM     25  C   UNL     1      -0.448  12.577  21.898  0.00  0.00    +0.000 C 
ATOM     26  C   UNL     1      -1.156  12.173  20.635  0.00  0.00    +0.000 A 
ATOM     27  C   UNL     1      -2.504  12.521  20.464  0.00  0.00    +0.000 A 
ATOM     28  C   UNL     1      -3.190  12.170  19.300  0.00  0.00    +0.000 A 
ATOM     29  C   UNL     1      -2.548  11.461  18.293  0.00  0.00    +0.000 A 
ATOM     30  C   UNL     1      -1.204  11.120  18.439  0.00  0.00    +0.000 A 
ATOM     31  C   UNL     1      -0.494  11.493  19.594  0.00  0.00    +0.000 A 
ENDBRANCH  24  31
ENDBRANCH   1  24
TORSDOF 5
ENDMDL
MODEL 4
REMARK VINA RESULT:      -8.0      4.430     10.224
REMARK  Name = 
REMARK  6 active torsions:
REMARK  status: ('A' for Active; 'I' for Inactive)
REMARK    1  A    between atoms: C_1  and  C_2
REMARK    2  A    between atoms: C_7  and  C_8
REMARK    3  A    between atoms: C_8  and  C_9
REMARK    4  A    between atoms: C_14  and  N_15
REMARK    5  A    between atoms: C_18  and  C_19
REMARK    6  A    between atoms: C_19  and  C_20
REMARK                            x       y       z     vdW  Elec       q    Type
REMARK                         _______ _______ _______ _____ _____    ______ ____
ROOT
ATOM      1  C   UNL     1       0.364  10.174  20.227  0.00  0.00    +0.000 C 
ATOM      2  O   UNL     1      -0.120  10.077  21.353  0.00  0.00    +0.000 OA
ATOM      3  N   UNL     1       1.349   9.304  19.765  0.00  0.00    +0.000 N 
ATOM      4  C   UNL     1       2.165   9.551  18.575  0.00  0.00    +0.000 C 
ATOM      5  C   UNL     1       2.091   8.362  17.643  0.00  0.00    +0.000 C 
ATOM      6  C   UNL     1       2.545   7.059  18.318  0.00  0.00    +0.000 C 
ATOM      7  C   UNL     1       1.768   6.873  19.648  0.00  0.00    +0.000 C 
ATOM      8  C   UNL     1       1.678   8.114  20.543  0.00  0.00    +0.000 C 
ENDROOT
BRANCH   6   9
ATOM      9  N   UNL     1       4.026   6.892  18.350  0.00  0.00    +0.000 NA
ATOM     10  C   UNL     1       4.580   5.953  19.312  0.00  0.00    +0.000 C 
ATOM     11  C   UNL     1       5.949   5.305  19.064  0.00  0.00    +0.000 C 
ATOM     12  C   UNL     1       6.346   5.160  17.598  0.00  0.00    +0.000 C 
ATOM     13  C   UNL     1       6.068   6.511  16.929  0.00  0.00    +0.000 C 
ATOM     14  C   UNL     1       4.598   6.911  17.004  0.00  0.00    +0.000 C 
BRANCH  12  15
ATOM     15  C   UNL     1       5.667   3.991  16.842  0.00  0.00    +0.000 C 
BRANCH  15  16
ATOM     16  C   UNL     1       4.316   3.488  17.326  0.00  0.00    +0.000 A 
ATOM     17  C   UNL     1       4.286   2.433  18.260  0.00  0.00    +0.000 A 
ATOM     18  C   UNL     1       3.075   1.946  18.766  0.00  0.00    +0.000 A 
ATOM     19  C   UNL     1       1.873   2.515  18.359  0.00  0.00    +0.000 A 
ATOM     20 CL   UNL     1       0.387   1.892  18.965  0.00  0.00    +0.000 Cl
ATOM     21  C   UNL     1       1.891   3.586  17.472  0.00  0.00    +0.000 A 
ATOM     22  F   UNL     1       0.748   4.179  17.095  0.00  0.00    +0.000 F 
ATOM     23  C   UNL     1       3.098   4.076  16.964  0.00  0.00    +0.000 A 
ENDBRANCH  15  16
ENDBRANCH  12  15
ENDBRANCH   6   9
BRANCH   1  24
ATOM     24  C   UNL     1      -0.084  11.212  19.214  0.00  0.00    +0.000 C 
BRANCH  24  31
ATOM     25  C   UNL     1      -2.596  12.643  20.014  0.00  0.00    +0.000 C 
ATOM     26  C   UNL     1      -2.573  11.648  18.888  0.00  0.00    +0.000 A 
ATOM     27  C   UNL     1      -3.737  11.440  18.134  0.00  0.00    +0.000 A 
ATOM     28  C   UNL     1      -3.749  10.530  17.076  0.00  0.00    +0.000 A 
ATOM     29  C   UNL     1      -2.606   9.807  16.758  0.00  0.00    +0.000 A 
ATOM     30  C   UNL     1      -1.436  10.011  17.487  0.00  0.00    +0.000 A 
ATOM     31  C   UNL     1      -1.403  10.947  18.537  0.00  0.00    +0.000 A 
ENDBRANCH  24  31
ENDBRANCH   1  24
TORSDOF 5
ENDMDL
MODEL 5
REMARK VINA RESULT:      -8.0      4.695      6.197
REMARK  Name = 
REMARK  6 active torsions:
REMARK  status: ('A' for Active; 'I' for Inactive)
REMARK    1  A    between atoms: C_1  and  C_2
REMARK    2  A    between atoms: C_7  and  C_8
REMARK    3  A    between atoms: C_8  and  C_9
REMARK    4  A    between atoms: C_14  and  N_15
REMARK    5  A    between atoms: C_18  and  C_19
REMARK    6  A    between atoms: C_19  and  C_20
REMARK                            x       y       z     vdW  Elec       q    Type
REMARK                         _______ _______ _______ _____ _____    ______ ____
ROOT
ATOM      1  C   UNL     1       2.733   3.678  18.301  0.00  0.00    +0.000 C 
ATOM      2  O   UNL     1       2.410   2.641  18.877  0.00  0.00    +0.000 OA
ATOM      3  N   UNL     1       2.257   4.927  18.697  0.00  0.00    +0.000 N 
ATOM      4  C   UNL     1       2.360   6.137  17.880  0.00  0.00    +0.000 C 
ATOM      5  C   UNL     1       3.005   7.246  18.681  0.00  0.00    +0.000 C 
ATOM      6  C   UNL     1       2.236   7.560  19.974  0.00  0.00    +0.000 C 
ATOM      7  C   UNL     1       2.015   6.247  20.769  0.00  0.00    +0.000 C 
ATOM      8  C   UNL     1       1.520   5.049  19.950  0.00  0.00    +0.000 C 
ENDROOT
BRANCH   6   9
ATOM      9  N   UNL     1       1.060   8.451  19.763  0.00  0.00    +0.000 NA
ATOM     10  C   UNL     1       0.330   8.897  20.938  0.00  0.00    +0.000 C 
ATOM     11  C   UNL     1      -0.488  10.195  20.897  0.00  0.00    +0.000 C 
ATOM     12  C   UNL     1       0.004  11.246  19.906  0.00  0.00    +0.000 C 
ATOM     13  C   UNL     1       0.252  10.520  18.579  0.00  0.00    +0.000 C 
ATOM     14  C   UNL     1       1.305   9.423  18.699  0.00  0.00    +0.000 C 
BRANCH  12  15
ATOM     15  C   UNL     1       1.244  12.054  20.363  0.00  0.00    +0.000 C 
BRANCH  15  16
ATOM     16  C   UNL     1       1.664  13.274  19.559  0.00  0.00    +0.000 A 
ATOM     17  C   UNL     1       0.813  14.396  19.543  0.00  0.00    +0.000 A 
ATOM     18  C   UNL     1       1.159  15.560  18.845  0.00  0.00    +0.000 A 
ATOM     19  C   UNL     1       2.368  15.628  18.163  0.00  0.00    +0.000 A 
ATOM     20 CL   UNL     1       2.773  17.052  17.284  0.00  0.00    +0.000 Cl
ATOM     21  C   UNL     1       3.238  14.544  18.207  0.00  0.00    +0.000 A 
ATOM     22  F   UNL     1       4.429  14.598  17.591  0.00  0.00    +0.000 F 
ATOM     23  C   UNL     1       2.898  13.379  18.904  0.00  0.00    +0.000 A 
ENDBRANCH  15  16
ENDBRANCH  12  15
ENDBRANCH   6   9
BRANCH   1  24
ATOM     24  C   UNL     1       3.710   3.718  17.140  0.00  0.00    +0.000 C 
BRANCH  24  31
ATOM     25  C   UNL     1       5.456   4.765  14.937  0.00  0.00    +0.000 C 
ATOM     26  C   UNL     1       5.841   4.892  16.385  0.00  0.00    +0.000 A 
ATOM     27  C   UNL     1       7.007   5.593  16.724  0.00  0.00    +0.000 A 
ATOM     28  C   UNL     1       7.390   5.739  18.059  0.00  0.00    +0.000 A 
ATOM     29  C   UNL     1       6.622   5.183  19.074  0.00  0.00    +0.000 A 
ATOM     30  C   UNL     1       5.451   4.495  18.757  0.00  0.00    +0.000 A 
ATOM     31  C   UNL     1       5.040   4.367  17.417  0.00  0.00    +0.000 A 
ENDBRANCH  24  31
ENDBRANCH   1  24
TORSDOF 5
ENDMDL
MODEL 6
REMARK VINA RESULT:      -7.9      0.875      1.602
REMARK  Name = 
REMARK  6 active torsions:
REMARK  status: ('A' for Active; 'I' for Inactive)
REMARK    1  A    between atoms: C_1  and  C_2
REMARK    2  A    between atoms: C_7  and  C_8
REMARK    3  A    between atoms: C_8  and  C_9
REMARK    4  A    between atoms: C_14  and  N_15
REMARK    5  A    between atoms: C_18  and  C_19
REMARK    6  A    between atoms: C_19  and  C_20
REMARK                            x       y       z     vdW  Elec       q    Type
REMARK                         _______ _______ _______ _____ _____    ______ ____
ROOT
ATOM      1  C   UNL     1       2.368   7.914  18.469  0.00  0.00    +0.000 C 
ATOM      2  O   UNL     1       2.686   8.152  17.305  0.00  0.00    +0.000 OA
ATOM      3  N   UNL     1       1.666   8.831  19.249  0.00  0.00    +0.000 N 
ATOM      4  C   UNL     1       1.530   8.732  20.702  0.00  0.00    +0.000 C 
ATOM      5  C   UNL     1       0.070   8.804  21.090  0.00  0.00    +0.000 C 
ATOM      6  C   UNL     1      -0.605  10.093  20.596  0.00  0.00    +0.000 C 
ATOM      7  C   UNL     1      -0.341  10.259  19.076  0.00  0.00    +0.000 C 
ATOM      8  C   UNL     1       1.105  10.023  18.623  0.00  0.00    +0.000 C 
ENDROOT
BRANCH   6   9
ATOM      9  N   UNL     1      -0.353  11.269  21.477  0.00  0.00    +0.000 NA
ATOM     10  C   UNL     1       0.186  12.471  20.861  0.00  0.00    +0.000 C 
ATOM     11  C   UNL     1      -0.042  13.843  21.509  0.00  0.00    +0.000 C 
ATOM     12  C   UNL     1      -1.310  13.965  22.351  0.00  0.00    +0.000 C 
ATOM     13  C   UNL     1      -1.354  12.733  23.262  0.00  0.00    +0.000 C 
ATOM     14  C   UNL     1      -1.407  11.426  22.478  0.00  0.00    +0.000 C 
BRANCH  12  15
ATOM     15  C   UNL     1      -2.623  14.137  21.547  0.00  0.00    +0.000 C 
BRANCH  15  16
ATOM     16  C   UNL     1      -3.951  14.045  22.280  0.00  0.00    +0.000 A 
ATOM     17  C   UNL     1      -4.303  15.080  23.169  0.00  0.00    +0.000 A 
ATOM     18  C   UNL     1      -5.527  15.066  23.851  0.00  0.00    +0.000 A 
ATOM     19  C   UNL     1      -6.426  14.026  23.645  0.00  0.00    +0.000 A 
ATOM     20 CL   UNL     1      -7.915  14.003  24.508  0.00  0.00    +0.000 Cl
ATOM     21  C   UNL     1      -6.110  13.021  22.737  0.00  0.00    +0.000 A 
ATOM     22  F   UNL     1      -6.977  12.027  22.490  0.00  0.00    +0.000 F 
ATOM     23  C   UNL     1      -4.890  13.030  22.053  0.00  0.00    +0.000 A 
ENDBRANCH  15  16
ENDBRANCH  12  15
ENDBRANCH   6   9
BRANCH   1  24
ATOM     24  C   UNL     1       2.662   6.595  19.160  0.00  0.00    +0.000 C 
BRANCH  24  31
ATOM     25  C   UNL     1       1.495   4.205  17.772  0.00  0.00    +0.000 C 
ATOM     26  C   UNL     1       2.963   4.522  17.708  0.00  0.00    +0.000 A 
ATOM     27  C   UNL     1       3.800   3.730  16.911  0.00  0.00    +0.000 A 
ATOM     28  C   UNL     1       5.167   4.001  16.822  0.00  0.00    +0.000 A 
ATOM     29  C   UNL     1       5.721   5.061  17.530  0.00  0.00    +0.000 A 
ATOM     30  C   UNL     1       4.900   5.868  18.316  0.00  0.00    +0.000 A 
ATOM     31  C   UNL     1       3.517   5.622  18.392  0.00  0.00    +0.000 A 
ENDBRANCH  24  31
ENDBRANCH   1  24
TORSDOF 5
ENDMDL
MODEL 7
REMARK VINA RESULT:      -7.9      5.485     10.908
REMARK  Name = 
REMARK  6 active torsions:
REMARK  status: ('A' for Active; 'I' for Inactive)
REMARK    1  A    between atoms: C_1  and  C_2
REMARK    2  A    between atoms: C_7  and  C_8
REMARK    3  A    between atoms: C_8  and  C_9
REMARK    4  A    between atoms: C_14  and  N_15
REMARK    5  A    between atoms: C_18  and  C_19
REMARK    6  A    between atoms: C_19  and  C_20
REMARK                            x       y       z     vdW  Elec       q    Type
REMARK                         _______ _______ _______ _____ _____    ______ ____
ROOT
ATOM      1  C   UNL     1       1.621  10.347  18.551  0.00  0.00    +0.000 C 
ATOM      2  O   UNL     1       2.054  10.784  17.487  0.00  0.00    +0.000 OA
ATOM      3  N   UNL     1       1.626   8.987  18.854  0.00  0.00    +0.000 N 
ATOM      4  C   UNL     1       0.862   8.390  19.950  0.00  0.00    +0.000 C 
ATOM      5  C   UNL     1       1.777   7.563  20.827  0.00  0.00    +0.000 C 
ATOM      6  C   UNL     1       2.501   6.459  20.042  0.00  0.00    +0.000 C 
ATOM      7  C   UNL     1       3.198   7.083  18.804  0.00  0.00    +0.000 C 
ATOM      8  C   UNL     1       2.349   8.062  17.986  0.00  0.00    +0.000 C 
ENDROOT
BRANCH   6   9
ATOM      9  N   UNL     1       1.669   5.240  19.829  0.00  0.00    +0.000 NA
ATOM     10  C   UNL     1       1.539   4.740  18.470  0.00  0.00    +0.000 C 
ATOM     11  C   UNL     1       1.211   3.263  18.215  0.00  0.00    +0.000 C 
ATOM     12  C   UNL     1       1.669   2.295  19.304  0.00  0.00    +0.000 C 
ATOM     13  C   UNL     1       1.232   2.900  20.643  0.00  0.00    +0.000 C 
ATOM     14  C   UNL     1       1.859   4.266  20.902  0.00  0.00    +0.000 C 
BRANCH  12  15
ATOM     15  C   UNL     1       3.180   1.952  19.289  0.00  0.00    +0.000 C 
BRANCH  15  16
ATOM     16  C   UNL     1       4.146   2.915  18.619  0.00  0.00    +0.000 A 
ATOM     17  C   UNL     1       4.140   3.004  17.213  0.00  0.00    +0.000 A 
ATOM     18  C   UNL     1       4.986   3.894  16.539  0.00  0.00    +0.000 A 
ATOM     19  C   UNL     1       5.841   4.721  17.258  0.00  0.00    +0.000 A 
ATOM     20 CL   UNL     1       6.898   5.791  16.420  0.00  0.00    +0.000 Cl
ATOM     21  C   UNL     1       5.825   4.674  18.648  0.00  0.00    +0.000 A 
ATOM     22  F   UNL     1       6.612   5.490  19.367  0.00  0.00    +0.000 F 
ATOM     23  C   UNL     1       4.982   3.788  19.326  0.00  0.00    +0.000 A 
ENDBRANCH  15  16
ENDBRANCH  12  15
ENDBRANCH   6   9
BRANCH   1  24
ATOM     24  C   UNL     1       1.082  11.235  19.659  0.00  0.00    +0.000 C 
BRANCH  24  31
ATOM     25  C   UNL     1      -1.301  12.597  18.449  0.00  0.00    +0.000 C 
ATOM     26  C   UNL     1      -0.065  13.357  18.840  0.00  0.00    +0.000 A 
ATOM     27  C   UNL     1      -0.052  14.753  18.715  0.00  0.00    +0.000 A 
ATOM     28  C   UNL     1       1.076  15.493  19.077  0.00  0.00    +0.000 A 
ATOM     29  C   UNL     1       2.209  14.852  19.562  0.00  0.00    +0.000 A 
ATOM     30  C   UNL     1       2.209  13.466  19.707  0.00  0.00    +0.000 A 
ATOM     31  C   UNL     1       1.069  12.713  19.373  0.00  0.00    +0.000 A 
ENDBRANCH  24  31
ENDBRANCH   1  24
TORSDOF 5
ENDMDL
MODEL 8
REMARK VINA RESULT:      -7.9      4.412      5.973
REMARK  Name = 
REMARK  6 active torsions:
REMARK  status: ('A' for Active; 'I' for Inactive)
REMARK    1  A    between atoms: C_1  and  C_2
REMARK    2  A    between atoms: C_7  and  C_8
REMARK    3  A    between atoms: C_8  and  C_9
REMARK    4  A    between atoms: C_14  and  N_15
REMARK    5  A    between atoms: C_18  and  C_19
REMARK    6  A    between atoms: C_19  and  C_20
REMARK                            x       y       z     vdW  Elec       q    Type
REMARK                         _______ _______ _______ _____ _____    ______ ____
ROOT
ATOM      1  C   UNL     1       2.686   3.816  18.227  0.00  0.00    +0.000 C 
ATOM      2  O   UNL     1       2.360   2.754  18.755  0.00  0.00    +0.000 OA
ATOM      3  N   UNL     1       2.205   5.046  18.673  0.00  0.00    +0.000 N 
ATOM      4  C   UNL     1       2.312   6.290  17.911  0.00  0.00    +0.000 C 
ATOM      5  C   UNL     1       2.950   7.364  18.763  0.00  0.00    +0.000 C 
ATOM      6  C   UNL     1       2.172   7.621  20.062  0.00  0.00    +0.000 C 
ATOM      7  C   UNL     1       1.947   6.275  20.799  0.00  0.00    +0.000 C 
ATOM      8  C   UNL     1       1.460   5.113  19.926  0.00  0.00    +0.000 C 
ENDROOT
BRANCH   6   9
ATOM      9  N   UNL     1       0.996   8.519  19.882  0.00  0.00    +0.000 NA
ATOM     10  C   UNL     1       0.301   8.972  21.076  0.00  0.00    +0.000 C 
ATOM     11  C   UNL     1      -0.510  10.274  21.055  0.00  0.00    +0.000 C 
ATOM     12  C   UNL     1      -0.038  11.321  20.050  0.00  0.00    +0.000 C 
ATOM     13  C   UNL     1       0.170  10.591  18.718  0.00  0.00    +0.000 C 
ATOM     14  C   UNL     1       1.219   9.489  18.811  0.00  0.00    +0.000 C 
BRANCH  12  15
ATOM     15  C   UNL     1       1.219  12.122  20.472  0.00  0.00    +0.000 C 
BRANCH  15  16
ATOM     16  C   UNL     1       1.597  13.367  19.684  0.00  0.00    +0.000 A 
ATOM     17  C   UNL     1       2.795  13.357  18.944  0.00  0.00    +0.000 A 
ATOM     18  C   UNL     1       3.182  14.462  18.175  0.00  0.00    +0.000 A 
ATOM     19  C   UNL     1       2.371  15.589  18.121  0.00  0.00    +0.000 A 
ATOM     20 CL   UNL     1       2.868  16.953  17.196  0.00  0.00    +0.000 Cl
ATOM     21  C   UNL     1       1.164  15.595  18.811  0.00  0.00    +0.000 A 
ATOM     22  F   UNL     1       0.344  16.655  18.744  0.00  0.00    +0.000 F 
ATOM     23  C   UNL     1       0.772  14.494  19.580  0.00  0.00    +0.000 A 
ENDBRANCH  15  16
ENDBRANCH  12  15
ENDBRANCH   6   9
BRANCH   1  24
ATOM     24  C   UNL     1       3.671   3.906  17.076  0.00  0.00    +0.000 C 
BRANCH  24  31
ATOM     25  C   UNL     1       5.885   3.918  15.052  0.00  0.00    +0.000 C 
ATOM     26  C   UNL     1       6.116   4.310  16.484  0.00  0.00    +0.000 A 
ATOM     27  C   UNL     1       7.380   4.775  16.871  0.00  0.00    +0.000 A 
ATOM     28  C   UNL     1       7.628   5.157  18.191  0.00  0.00    +0.000 A 
ATOM     29  C   UNL     1       6.623   5.074  19.146  0.00  0.00    +0.000 A 
ATOM     30  C   UNL     1       5.355   4.628  18.776  0.00  0.00    +0.000 A 
ATOM     31  C   UNL     1       5.085   4.268  17.443  0.00  0.00    +0.000 A 
ENDBRANCH  24  31
ENDBRANCH   1  24
TORSDOF 5
ENDMDL
MODEL 9
REMARK VINA RESULT:      -7.9      4.568     10.272
REMARK  Name = 
REMARK  6 active torsions:
REMARK  status: ('A' for Active; 'I' for Inactive)
REMARK    1  A    between atoms: C_1  and  C_2
REMARK    2  A    between atoms: C_7  and  C_8
REMARK    3  A    between atoms: C_8  and  C_9
REMARK    4  A    between atoms: C_14  and  N_15
REMARK    5  A    between atoms: C_18  and  C_19
REMARK    6  A    between atoms: C_19  and  C_20
REMARK                            x       y       z     vdW  Elec       q    Type
REMARK                         _______ _______ _______ _____ _____    ______ ____
ROOT
ATOM      1  C   UNL     1       0.423  10.012  20.212  0.00  0.00    +0.000 C 
ATOM      2  O   UNL     1      -0.064   9.803  21.321  0.00  0.00    +0.000 OA
ATOM      3  N   UNL     1       1.430   9.209  19.679  0.00  0.00    +0.000 N 
ATOM      4  C   UNL     1       2.245   9.581  18.522  0.00  0.00    +0.000 C 
ATOM      5  C   UNL     1       2.204   8.478  17.487  0.00  0.00    +0.000 C 
ATOM      6  C   UNL     1       2.686   7.131  18.046  0.00  0.00    +0.000 C 
ATOM      7  C   UNL     1       1.908   6.809  19.349  0.00  0.00    +0.000 C 
ATOM      8  C   UNL     1       1.784   7.963  20.351  0.00  0.00    +0.000 C 
ENDROOT
BRANCH   6   9
ATOM      9  N   UNL     1       4.170   6.996  18.072  0.00  0.00    +0.000 NA
ATOM     10  C   UNL     1       4.764   6.276  19.187  0.00  0.00    +0.000 C 
ATOM     11  C   UNL     1       6.139   5.613  19.037  0.00  0.00    +0.000 C 
ATOM     12  C   UNL     1       6.508   5.185  17.619  0.00  0.00    +0.000 C 
ATOM     13  C   UNL     1       6.188   6.373  16.704  0.00  0.00    +0.000 C 
ATOM     14  C   UNL     1       4.712   6.757  16.736  0.00  0.00    +0.000 C 
BRANCH  12  15
ATOM     15  C   UNL     1       5.835   3.879  17.127  0.00  0.00    +0.000 C 
BRANCH  15  16
ATOM     16  C   UNL     1       4.479   3.491  17.695  0.00  0.00    +0.000 A 
ATOM     17  C   UNL     1       3.341   3.640  16.880  0.00  0.00    +0.000 A 
ATOM     18  C   UNL     1       2.068   3.272  17.335  0.00  0.00    +0.000 A 
ATOM     19  C   UNL     1       1.914   2.735  18.608  0.00  0.00    +0.000 A 
ATOM     20 CL   UNL     1       0.343   2.311  19.171  0.00  0.00    +0.000 Cl
ATOM     21  C   UNL     1       3.036   2.541  19.407  0.00  0.00    +0.000 A 
ATOM     22  F   UNL     1       2.920   1.987  20.624  0.00  0.00    +0.000 F 
ATOM     23  C   UNL     1       4.309   2.906  18.956  0.00  0.00    +0.000 A 
ENDBRANCH  15  16
ENDBRANCH  12  15
ENDBRANCH   6   9
BRANCH   1  24
ATOM     24  C   UNL     1      -0.045  11.125  19.292  0.00  0.00    +0.000 C 
BRANCH  24  31
ATOM     25  C   UNL     1      -2.526  12.637  20.038  0.00  0.00    +0.000 C 
ATOM     26  C   UNL     1      -2.514  11.633  18.919  0.00  0.00    +0.000 A 
ATOM     27  C   UNL     1      -3.669  11.456  18.145  0.00  0.00    +0.000 A 
ATOM     28  C   UNL     1      -3.690  10.540  17.092  0.00  0.00    +0.000 A 
ATOM     29  C   UNL     1      -2.564   9.781  16.799  0.00  0.00    +0.000 A 
ATOM     30  C   UNL     1      -1.401   9.954  17.548  0.00  0.00    +0.000 A 
ATOM     31  C   UNL     1      -1.359  10.895  18.594  0.00  0.00    +0.000 A 
ENDBRANCH  24  31
ENDBRANCH   1  24
TORSDOF 5
ENDMDL
