MODEL 1
REMARK VINA RESULT:      -6.9      0.000      0.000
REMARK  Name = 
REMARK  3 active torsions:
REMARK  status: ('A' for Active; 'I' for Inactive)
REMARK    1  A    between atoms: C_2  and  C_3
REMARK    2  A    between atoms: N_11  and  C_12
REMARK    3  A    between atoms: C_12  and  C_13
REMARK                            x       y       z     vdW  Elec       q    Type
REMARK                         _______ _______ _______ _____ _____    ______ ____
ROOT
ATOM      1  O   UNL     1       7.883   5.442  13.560  0.00  0.00    +0.000 OA
ATOM      2  C   UNL     1       6.869   4.818  13.879  0.00  0.00    +0.000 C 
ATOM      3  N   UNL     1       6.371   4.896  15.185  0.00  0.00    +0.000 N 
ATOM      4  C   UNL     1       5.267   4.095  15.735  0.00  0.00    +0.000 C 
ATOM      5  C   UNL     1       5.658   3.411  17.064  0.00  0.00    +0.000 C 
ATOM      6  N   UNL     1       6.255   4.312  18.075  0.00  0.00    +0.000 NA
ATOM      7  C   UNL     1       7.395   5.016  17.441  0.00  0.00    +0.000 C 
ATOM      8  C   UNL     1       7.038   5.776  16.149  0.00  0.00    +0.000 C 
ENDROOT
BRANCH   2   9
ATOM      9  C   UNL     1       6.214   3.942  12.924  0.00  0.00    +0.000 A 
ATOM     10  C   UNL     1       4.894   3.918  12.509  0.00  0.00    +0.000 A 
ATOM     11  C   UNL     1       4.790   2.904  11.528  0.00  0.00    +0.000 A 
ATOM     12  C   UNL     1       6.034   2.327  11.445  0.00  0.00    +0.000 A 
ATOM     13  O   UNL     1       6.893   2.924  12.309  0.00  0.00    +0.000 OA
ENDBRANCH   2   9
BRANCH   6  14
ATOM     14  C   UNL     1       5.225   5.221  18.604  0.00  0.00    +0.000 C 
BRANCH  14  15
ATOM     15  C   UNL     1       4.203   4.566  19.502  0.00  0.00    +0.000 A 
ATOM     16  C   UNL     1       3.118   5.307  19.988  0.00  0.00    +0.000 A 
ATOM     17  C   UNL     1       2.141   4.698  20.780  0.00  0.00    +0.000 A 
ATOM     18  C   UNL     1       2.249   3.345  21.093  0.00  0.00    +0.000 A 
ATOM     19 CL   UNL     1       1.037   2.589  22.054  0.00  0.00    +0.000 Cl
ATOM     20  C   UNL     1       3.331   2.598  20.630  0.00  0.00    +0.000 A 
ATOM     21  C   UNL     1       4.307   3.208  19.838  0.00  0.00    +0.000 A 
ENDBRANCH  14  15
ENDBRANCH   6  14
TORSDOF 3
ENDMDL
MODEL 2
REMARK VINA RESULT:      -6.7      4.871      8.251
REMARK  Name = 
REMARK  3 active torsions:
REMARK  status: ('A' for Active; 'I' for Inactive)
REMARK    1  A    between atoms: C_2  and  C_3
REMARK    2  A    between atoms: N_11  and  C_12
REMARK    3  A    between atoms: C_12  and  C_13
REMARK                            x       y       z     vdW  Elec       q    Type
REMARK                         _______ _______ _______ _____ _____    ______ ____
ROOT
ATOM      1  O   UNL     1       1.445   9.218  19.043  0.00  0.00    +0.000 OA
ATOM      2  C   UNL     1       1.490   8.438  19.996  0.00  0.00    +0.000 C 
ATOM      3  N   UNL     1       2.107   7.189  19.861  0.00  0.00    +0.000 N 
ATOM      4  C   UNL     1       2.103   6.111  20.861  0.00  0.00    +0.000 C 
ATOM      5  C   UNL     1       1.651   4.764  20.255  0.00  0.00    +0.000 C 
ATOM      6  N   UNL     1       2.358   4.373  19.014  0.00  0.00    +0.000 NA
ATOM      7  C   UNL     1       2.244   5.495  18.053  0.00  0.00    +0.000 C 
ATOM      8  C   UNL     1       2.751   6.848  18.588  0.00  0.00    +0.000 C 
ENDROOT
BRANCH   2   9
ATOM      9  C   UNL     1       0.847   8.774  21.254  0.00  0.00    +0.000 A 
ATOM     10  C   UNL     1      -0.487   8.696  21.612  0.00  0.00    +0.000 A 
ATOM     11  C   UNL     1      -0.573   9.093  22.967  0.00  0.00    +0.000 A 
ATOM     12  C   UNL     1       0.700   9.450  23.340  0.00  0.00    +0.000 A 
ATOM     13  O   UNL     1       1.560   9.293  22.302  0.00  0.00    +0.000 OA
ENDBRANCH   2   9
BRANCH   6  14
ATOM     14  C   UNL     1       3.749   4.006  19.326  0.00  0.00    +0.000 C 
BRANCH  14  15
ATOM     15  C   UNL     1       4.722   4.183  18.185  0.00  0.00    +0.000 A 
ATOM     16  C   UNL     1       4.422   3.660  16.920  0.00  0.00    +0.000 A 
ATOM     17  C   UNL     1       5.294   3.860  15.845  0.00  0.00    +0.000 A 
ATOM     18  C   UNL     1       6.471   4.580  16.035  0.00  0.00    +0.000 A 
ATOM     19 CL   UNL     1       7.536   4.842  14.708  0.00  0.00    +0.000 Cl
ATOM     20  C   UNL     1       6.790   5.093  17.291  0.00  0.00    +0.000 A 
ATOM     21  C   UNL     1       5.919   4.893  18.364  0.00  0.00    +0.000 A 
ENDBRANCH  14  15
ENDBRANCH   6  14
TORSDOF 3
ENDMDL
MODEL 3
REMARK VINA RESULT:      -6.6      4.942      8.302
REMARK  Name = 
REMARK  3 active torsions:
REMARK  status: ('A' for Active; 'I' for Inactive)
REMARK    1  A    between atoms: C_2  and  C_3
REMARK    2  A    between atoms: N_11  and  C_12
REMARK    3  A    between atoms: C_12  and  C_13
REMARK                            x       y       z     vdW  Elec       q    Type
REMARK                         _______ _______ _______ _____ _____    ______ ____
ROOT
ATOM      1  O   UNL     1       1.264   9.408  18.952  0.00  0.00    +0.000 OA
ATOM      2  C   UNL     1       1.424   8.621  19.888  0.00  0.00    +0.000 C 
ATOM      3  N   UNL     1       2.145   7.436  19.701  0.00  0.00    +0.000 N 
ATOM      4  C   UNL     1       2.284   6.348  20.681  0.00  0.00    +0.000 C 
ATOM      5  C   UNL     1       1.929   4.974  20.071  0.00  0.00    +0.000 C 
ATOM      6  N   UNL     1       2.609   4.667  18.793  0.00  0.00    +0.000 NA
ATOM      7  C   UNL     1       2.350   5.788  17.858  0.00  0.00    +0.000 C 
ATOM      8  C   UNL     1       2.757   7.174  18.395  0.00  0.00    +0.000 C 
ENDROOT
BRANCH   2   9
ATOM      9  C   UNL     1       0.812   8.879  21.179  0.00  0.00    +0.000 A 
ATOM     10  C   UNL     1      -0.502   8.717  21.582  0.00  0.00    +0.000 A 
ATOM     11  C   UNL     1      -0.557   9.063  22.952  0.00  0.00    +0.000 A 
ATOM     12  C   UNL     1       0.708   9.475  23.292  0.00  0.00    +0.000 A 
ATOM     13  O   UNL     1       1.535   9.401  22.219  0.00  0.00    +0.000 OA
ENDBRANCH   2   9
BRANCH   6  14
ATOM     14  C   UNL     1       4.041   4.424  19.035  0.00  0.00    +0.000 C 
BRANCH  14  15
ATOM     15  C   UNL     1       4.924   4.574  17.819  0.00  0.00    +0.000 A 
ATOM     16  C   UNL     1       6.022   5.443  17.852  0.00  0.00    +0.000 A 
ATOM     17  C   UNL     1       6.873   5.553  16.748  0.00  0.00    +0.000 A 
ATOM     18  C   UNL     1       6.624   4.796  15.606  0.00  0.00    +0.000 A 
ATOM     19 CL   UNL     1       7.681   4.917  14.253  0.00  0.00    +0.000 Cl
ATOM     20  C   UNL     1       5.526   3.939  15.551  0.00  0.00    +0.000 A 
ATOM     21  C   UNL     1       4.676   3.831  16.655  0.00  0.00    +0.000 A 
ENDBRANCH  14  15
ENDBRANCH   6  14
TORSDOF 3
ENDMDL
MODEL 4
REMARK VINA RESULT:      -6.6      4.416      5.915
REMARK  Name = 
REMARK  3 active torsions:
REMARK  status: ('A' for Active; 'I' for Inactive)
REMARK    1  A    between atoms: C_2  and  C_3
REMARK    2  A    between atoms: N_11  and  C_12
REMARK    3  A    between atoms: C_12  and  C_13
REMARK                            x       y       z     vdW  Elec       q    Type
REMARK                         _______ _______ _______ _____ _____    ______ ____
ROOT
ATOM      1  O   UNL     1       4.426   2.872  18.807  0.00  0.00    +0.000 OA
ATOM      2  C   UNL     1       4.542   4.005  18.334  0.00  0.00    +0.000 C 
ATOM      3  N   UNL     1       3.884   5.090  18.926  0.00  0.00    +0.000 N 
ATOM      4  C   UNL     1       3.815   6.455  18.385  0.00  0.00    +0.000 C 
ATOM      5  C   UNL     1       2.363   6.979  18.324  0.00  0.00    +0.000 C 
ATOM      6  N   UNL     1       1.598   6.836  19.583  0.00  0.00    +0.000 NA
ATOM      7  C   UNL     1       1.673   5.416  20.003  0.00  0.00    +0.000 C 
ATOM      8  C   UNL     1       3.106   4.869  20.149  0.00  0.00    +0.000 C 
ENDROOT
BRANCH   2   9
ATOM      9  C   UNL     1       5.307   4.221  17.120  0.00  0.00    +0.000 A 
ATOM     10  C   UNL     1       4.910   4.132  15.798  0.00  0.00    +0.000 A 
ATOM     11  C   UNL     1       6.027   4.490  15.008  0.00  0.00    +0.000 A 
ATOM     12  C   UNL     1       7.058   4.717  15.887  0.00  0.00    +0.000 A 
ATOM     13  O   UNL     1       6.643   4.524  17.164  0.00  0.00    +0.000 OA
ENDBRANCH   2   9
BRANCH   6  14
ATOM     14  C   UNL     1       2.116   7.775  20.592  0.00  0.00    +0.000 C 
BRANCH  14  15
ATOM     15  C   UNL     1       1.143   8.850  21.016  0.00  0.00    +0.000 A 
ATOM     16  C   UNL     1       0.570   9.695  20.057  0.00  0.00    +0.000 A 
ATOM     17  C   UNL     1      -0.367  10.662  20.433  0.00  0.00    +0.000 A 
ATOM     18  C   UNL     1      -0.730  10.788  21.772  0.00  0.00    +0.000 A 
ATOM     19 CL   UNL     1      -1.898  11.965  22.233  0.00  0.00    +0.000 Cl
ATOM     20  C   UNL     1      -0.157   9.965  22.740  0.00  0.00    +0.000 A 
ATOM     21  C   UNL     1       0.779   8.999  22.362  0.00  0.00    +0.000 A 
ENDBRANCH  14  15
ENDBRANCH   6  14
TORSDOF 3
ENDMDL
MODEL 5
REMARK VINA RESULT:      -6.6      4.328      5.812
REMARK  Name = 
REMARK  3 active torsions:
REMARK  status: ('A' for Active; 'I' for Inactive)
REMARK    1  A    between atoms: C_2  and  C_3
REMARK    2  A    between atoms: N_11  and  C_12
REMARK    3  A    between atoms: C_12  and  C_13
REMARK                            x       y       z     vdW  Elec       q    Type
REMARK                         _______ _______ _______ _____ _____    ______ ____
ROOT
ATOM      1  O   UNL     1       4.961   2.967  18.902  0.00  0.00    +0.000 OA
ATOM      2  C   UNL     1       4.910   4.055  18.324  0.00  0.00    +0.000 C 
ATOM      3  N   UNL     1       4.159   5.108  18.861  0.00  0.00    +0.000 N 
ATOM      4  C   UNL     1       3.893   6.398  18.208  0.00  0.00    +0.000 C 
ATOM      5  C   UNL     1       2.387   6.741  18.199  0.00  0.00    +0.000 C 
ATOM      6  N   UNL     1       1.717   6.630  19.514  0.00  0.00    +0.000 NA
ATOM      7  C   UNL     1       1.988   5.275  20.052  0.00  0.00    +0.000 C 
ATOM      8  C   UNL     1       3.484   4.915  20.148  0.00  0.00    +0.000 C 
ENDROOT
BRANCH   2   9
ATOM      9  C   UNL     1       5.574   4.242  17.047  0.00  0.00    +0.000 A 
ATOM     10  C   UNL     1       5.095   4.044  15.765  0.00  0.00    +0.000 A 
ATOM     11  C   UNL     1       6.128   4.422  14.876  0.00  0.00    +0.000 A 
ATOM     12  C   UNL     1       7.198   4.770  15.663  0.00  0.00    +0.000 A 
ATOM     13  O   UNL     1       6.886   4.632  16.976  0.00  0.00    +0.000 OA
ENDBRANCH   2   9
BRANCH   6  14
ATOM     14  C   UNL     1       2.172   7.714  20.400  0.00  0.00    +0.000 C 
BRANCH  14  15
ATOM     15  C   UNL     1       1.133   8.771  20.692  0.00  0.00    +0.000 A 
ATOM     16  C   UNL     1       0.581   8.876  21.975  0.00  0.00    +0.000 A 
ATOM     17  C   UNL     1      -0.346   9.881  22.268  0.00  0.00    +0.000 A 
ATOM     18  C   UNL     1      -0.725  10.782  21.276  0.00  0.00    +0.000 A 
ATOM     19 CL   UNL     1      -1.851  12.032  21.641  0.00  0.00    +0.000 Cl
ATOM     20  C   UNL     1      -0.195  10.681  19.990  0.00  0.00    +0.000 A 
ATOM     21  C   UNL     1       0.730   9.676  19.699  0.00  0.00    +0.000 A 
ENDBRANCH  14  15
ENDBRANCH   6  14
TORSDOF 3
ENDMDL
MODEL 6
REMARK VINA RESULT:      -6.5      1.132      1.266
REMARK  Name = 
REMARK  3 active torsions:
REMARK  status: ('A' for Active; 'I' for Inactive)
REMARK    1  A    between atoms: C_2  and  C_3
REMARK    2  A    between atoms: N_11  and  C_12
REMARK    3  A    between atoms: C_12  and  C_13
REMARK                            x       y       z     vdW  Elec       q    Type
REMARK                         _______ _______ _______ _____ _____    ______ ____
ROOT
ATOM      1  O   UNL     1       7.964   5.475  13.632  0.00  0.00    +0.000 OA
ATOM      2  C   UNL     1       6.939   4.865  13.943  0.00  0.00    +0.000 C 
ATOM      3  N   UNL     1       6.432   4.948  15.246  0.00  0.00    +0.000 N 
ATOM      4  C   UNL     1       5.314   4.163  15.788  0.00  0.00    +0.000 C 
ATOM      5  C   UNL     1       5.685   3.471  17.118  0.00  0.00    +0.000 C 
ATOM      6  N   UNL     1       6.289   4.362  18.134  0.00  0.00    +0.000 NA
ATOM      7  C   UNL     1       7.443   5.051  17.509  0.00  0.00    +0.000 C 
ATOM      8  C   UNL     1       7.105   5.817  16.216  0.00  0.00    +0.000 C 
ENDROOT
BRANCH   2   9
ATOM      9  C   UNL     1       6.278   4.000  12.983  0.00  0.00    +0.000 A 
ATOM     10  C   UNL     1       6.815   3.048  12.135  0.00  0.00    +0.000 A 
ATOM     11  C   UNL     1       5.733   2.453  11.446  0.00  0.00    +0.000 A 
ATOM     12  C   UNL     1       4.605   3.115  11.865  0.00  0.00    +0.000 A 
ATOM     13  O   UNL     1       4.926   4.075  12.768  0.00  0.00    +0.000 OA
ENDBRANCH   2   9
BRANCH   6  14
ATOM     14  C   UNL     1       5.268   5.285  18.657  0.00  0.00    +0.000 C 
BRANCH  14  15
ATOM     15  C   UNL     1       3.934   4.647  18.965  0.00  0.00    +0.000 A 
ATOM     16  C   UNL     1       2.773   5.107  18.331  0.00  0.00    +0.000 A 
ATOM     17  C   UNL     1       1.541   4.491  18.573  0.00  0.00    +0.000 A 
ATOM     18  C   UNL     1       1.468   3.415  19.455  0.00  0.00    +0.000 A 
ATOM     19 CL   UNL     1      -0.045   2.645  19.739  0.00  0.00    +0.000 Cl
ATOM     20  C   UNL     1       2.612   2.956  20.105  0.00  0.00    +0.000 A 
ATOM     21  C   UNL     1       3.842   3.572  19.863  0.00  0.00    +0.000 A 
ENDBRANCH  14  15
ENDBRANCH   6  14
TORSDOF 3
ENDMDL
MODEL 7
REMARK VINA RESULT:      -6.5      1.220      1.596
REMARK  Name = 
REMARK  3 active torsions:
REMARK  status: ('A' for Active; 'I' for Inactive)
REMARK    1  A    between atoms: C_2  and  C_3
REMARK    2  A    between atoms: N_11  and  C_12
REMARK    3  A    between atoms: C_12  and  C_13
REMARK                            x       y       z     vdW  Elec       q    Type
REMARK                         _______ _______ _______ _____ _____    ______ ____
ROOT
ATOM      1  O   UNL     1       7.960   5.408  12.792  0.00  0.00    +0.000 OA
ATOM      2  C   UNL     1       7.018   4.707  13.166  0.00  0.00    +0.000 C 
ATOM      3  N   UNL     1       6.417   4.931  14.411  0.00  0.00    +0.000 N 
ATOM      4  C   UNL     1       5.392   4.085  15.039  0.00  0.00    +0.000 C 
ATOM      5  C   UNL     1       5.771   3.699  16.486  0.00  0.00    +0.000 C 
ATOM      6  N   UNL     1       6.165   4.835  17.349  0.00  0.00    +0.000 NA
ATOM      7  C   UNL     1       7.245   5.579  16.658  0.00  0.00    +0.000 C 
ATOM      8  C   UNL     1       6.887   6.049  15.235  0.00  0.00    +0.000 C 
ENDROOT
BRANCH   2   9
ATOM      9  C   UNL     1       6.558   3.597  12.351  0.00  0.00    +0.000 A 
ATOM     10  C   UNL     1       7.287   2.615  11.703  0.00  0.00    +0.000 A 
ATOM     11  C   UNL     1       6.354   1.745  11.093  0.00  0.00    +0.000 A 
ATOM     12  C   UNL     1       5.113   2.277  11.350  0.00  0.00    +0.000 A 
ATOM     13  O   UNL     1       5.227   3.414  12.080  0.00  0.00    +0.000 OA
ENDBRANCH   2   9
BRANCH   6  14
ATOM     14  C   UNL     1       4.987   5.662  17.656  0.00  0.00    +0.000 C 
BRANCH  14  15
ATOM     15  C   UNL     1       3.869   4.934  18.365  0.00  0.00    +0.000 A 
ATOM     16  C   UNL     1       4.093   4.362  19.624  0.00  0.00    +0.000 A 
ATOM     17  C   UNL     1       3.052   3.728  20.310  0.00  0.00    +0.000 A 
ATOM     18  C   UNL     1       1.785   3.661  19.734  0.00  0.00    +0.000 A 
ATOM     19 CL   UNL     1       0.499   2.897  20.586  0.00  0.00    +0.000 Cl
ATOM     20  C   UNL     1       1.551   4.212  18.475  0.00  0.00    +0.000 A 
ATOM     21  C   UNL     1       2.592   4.845  17.791  0.00  0.00    +0.000 A 
ENDBRANCH  14  15
ENDBRANCH   6  14
TORSDOF 3
ENDMDL
MODEL 8
REMARK VINA RESULT:      -6.4      3.867      4.974
REMARK  Name = 
REMARK  3 active torsions:
REMARK  status: ('A' for Active; 'I' for Inactive)
REMARK    1  A    between atoms: C_2  and  C_3
REMARK    2  A    between atoms: N_11  and  C_12
REMARK    3  A    between atoms: C_12  and  C_13
REMARK                            x       y       z     vdW  Elec       q    Type
REMARK                         _______ _______ _______ _____ _____    ______ ____
ROOT
ATOM      1  O   UNL     1       7.033   3.948  18.084  0.00  0.00    +0.000 OA
ATOM      2  C   UNL     1       6.382   4.673  17.329  0.00  0.00    +0.000 C 
ATOM      3  N   UNL     1       5.426   5.557  17.844  0.00  0.00    +0.000 N 
ATOM      4  C   UNL     1       4.484   6.365  17.056  0.00  0.00    +0.000 C 
ATOM      5  C   UNL     1       3.028   6.190  17.541  0.00  0.00    +0.000 C 
ATOM      6  N   UNL     1       2.833   6.366  18.998  0.00  0.00    +0.000 NA
ATOM      7  C   UNL     1       3.778   5.462  19.696  0.00  0.00    +0.000 C 
ATOM      8  C   UNL     1       5.254   5.650  19.298  0.00  0.00    +0.000 C 
ENDROOT
BRANCH   2   9
ATOM      9  C   UNL     1       6.549   4.576  15.890  0.00  0.00    +0.000 A 
ATOM     10  C   UNL     1       5.906   3.757  14.979  0.00  0.00    +0.000 A 
ATOM     11  C   UNL     1       6.401   4.097  13.699  0.00  0.00    +0.000 A 
ATOM     12  C   UNL     1       7.361   5.058  13.905  0.00  0.00    +0.000 A 
ATOM     13  O   UNL     1       7.483   5.330  15.228  0.00  0.00    +0.000 OA
ENDBRANCH   2   9
BRANCH   6  14
ATOM     14  C   UNL     1       3.004   7.783  19.357  0.00  0.00    +0.000 C 
BRANCH  14  15
ATOM     15  C   UNL     1       1.753   8.621  19.241  0.00  0.00    +0.000 A 
ATOM     16  C   UNL     1       1.362   9.129  17.996  0.00  0.00    +0.000 A 
ATOM     17  C   UNL     1       0.180   9.866  17.869  0.00  0.00    +0.000 A 
ATOM     18  C   UNL     1      -0.611  10.100  18.992  0.00  0.00    +0.000 A 
ATOM     19 CL   UNL     1      -2.076  10.991  18.834  0.00  0.00    +0.000 Cl
ATOM     20  C   UNL     1      -0.227   9.614  20.241  0.00  0.00    +0.000 A 
ATOM     21  C   UNL     1       0.954   8.879  20.365  0.00  0.00    +0.000 A 
ENDBRANCH  14  15
ENDBRANCH   6  14
TORSDOF 3
ENDMDL
MODEL 9
REMARK VINA RESULT:      -6.4      4.428      5.801
REMARK  Name = 
REMARK  3 active torsions:
REMARK  status: ('A' for Active; 'I' for Inactive)
REMARK    1  A    between atoms: C_2  and  C_3
REMARK    2  A    between atoms: N_11  and  C_12
REMARK    3  A    between atoms: C_12  and  C_13
REMARK                            x       y       z     vdW  Elec       q    Type
REMARK                         _______ _______ _______ _____ _____    ______ ____
ROOT
ATOM      1  O   UNL     1       5.419   3.364  18.873  0.00  0.00    +0.000 OA
ATOM      2  C   UNL     1       5.203   4.345  18.159  0.00  0.00    +0.000 C 
ATOM      3  N   UNL     1       4.366   5.375  18.604  0.00  0.00    +0.000 N 
ATOM      4  C   UNL     1       3.908   6.521  17.805  0.00  0.00    +0.000 C 
ATOM      5  C   UNL     1       2.374   6.691  17.866  0.00  0.00    +0.000 C 
ATOM      6  N   UNL     1       1.803   6.697  19.232  0.00  0.00    +0.000 NA
ATOM      7  C   UNL     1       2.268   5.473  19.926  0.00  0.00    +0.000 C 
ATOM      8  C   UNL     1       3.799   5.297  19.954  0.00  0.00    +0.000 C 
ENDROOT
BRANCH   2   9
ATOM      9  C   UNL     1       5.760   4.418  16.821  0.00  0.00    +0.000 A 
ATOM     10  C   UNL     1       5.199   4.056  15.609  0.00  0.00    +0.000 A 
ATOM     11  C   UNL     1       6.142   4.378  14.606  0.00  0.00    +0.000 A 
ATOM     12  C   UNL     1       7.247   4.860  15.263  0.00  0.00    +0.000 A 
ATOM     13  O   UNL     1       7.041   4.857  16.604  0.00  0.00    +0.000 OA
ENDBRANCH   2   9
BRANCH   6  14
ATOM     14  C   UNL     1       2.179   7.942  19.923  0.00  0.00    +0.000 C 
BRANCH  14  15
ATOM     15  C   UNL     1       1.140   9.036  19.867  0.00  0.00    +0.000 A 
ATOM     16  C   UNL     1       0.878   9.694  18.658  0.00  0.00    +0.000 A 
ATOM     17  C   UNL     1      -0.116  10.675  18.585  0.00  0.00    +0.000 A 
ATOM     18  C   UNL     1      -0.847  11.003  19.724  0.00  0.00    +0.000 A 
ATOM     19 CL   UNL     1      -2.083  12.198  19.631  0.00  0.00    +0.000 Cl
ATOM     20  C   UNL     1      -0.588  10.369  20.938  0.00  0.00    +0.000 A 
ATOM     21  C   UNL     1       0.405   9.389  21.009  0.00  0.00    +0.000 A 
ENDBRANCH  14  15
ENDBRANCH   6  14
TORSDOF 3
ENDMDL
