MODEL 1
REMARK VINA RESULT:      -5.9      0.000      0.000
REMARK  Name = 
REMARK  16 active torsions:
REMARK  status: ('A' for Active; 'I' for Inactive)
REMARK    1  A    between atoms: C_1  and  C_2
REMARK    2  A    between atoms: C_2  and  C_3
REMARK    3  A    between atoms: C_3  and  C_4
REMARK    4  A    between atoms: C_4  and  C_5
REMARK    5  A    between atoms: C_5  and  C_6
REMARK    6  A    between atoms: C_6  and  C_7
REMARK    7  A    between atoms: C_7  and  C_8
REMARK    8  A    between atoms: C_7  and  C_9
REMARK    9  A    between atoms: C_10  and  O_11
REMARK   10  A    between atoms: C_15  and  O_16
REMARK   11  A    between atoms: C_17  and  C_18
REMARK   12  A    between atoms: C_20  and  O_21
REMARK   13  A    between atoms: C_23  and  C_24
REMARK   14  A    between atoms: C_23  and  C_25
REMARK   15  A    between atoms: C_25  and  C_27
REMARK   16  A    between atoms: C_28  and  O_29
REMARK                            x       y       z     vdW  Elec       q    Type
REMARK                         _______ _______ _______ _____ _____    ______ ____
ROOT
ATOM      1  C   UNL     1       4.633   5.140  17.023  0.00  0.00    +0.000 C 
ATOM      2  C   UNL     1       4.512   6.478  16.837  0.00  0.00    +0.000 C 
ATOM      3  C   UNL     1       3.438   7.289  17.522  0.00  0.00    +0.000 C 
ATOM      4  O   UNL     1       3.290   8.473  17.227  0.00  0.00    +0.000 OA
ATOM      5  C   UNL     1       2.484   6.579  18.457  0.00  0.00    +0.000 C 
ATOM      6  C   UNL     1       1.834   7.578  19.435  0.00  0.00    +0.000 C 
ATOM      7  C   UNL     1       0.832   6.836  20.334  0.00  0.00    +0.000 C 
ATOM      8  C   UNL     1       0.072   7.787  21.256  0.00  0.00    +0.000 C 
ATOM      9  C   UNL     1       1.567   5.772  21.149  0.00  0.00    +0.000 C 
ATOM     10  C   UNL     1       2.290   4.773  20.244  0.00  0.00    +0.000 C 
ATOM     11  C   UNL     1       3.196   5.412  19.154  0.00  0.00    +0.000 C 
ATOM     12  C   UNL     1       3.751   4.383  18.081  0.00  0.00    +0.000 C 
ATOM     13  C   UNL     1       2.621   3.685  17.289  0.00  0.00    +0.000 C 
ENDROOT
BRANCH   1  14
ATOM     14  C   UNL     1       5.534   4.248  16.122  0.00  0.00    +0.000 C 
ATOM     15  C   UNL     1       7.036   4.464  16.368  0.00  0.00    +0.000 C 
BRANCH  14  16
ATOM     16  C   UNL     1       5.144   4.378  14.624  0.00  0.00    +0.000 C 
BRANCH  16  17
ATOM     17  C   UNL     1       6.125   3.718  13.647  0.00  0.00    +0.000 C 
BRANCH  17  18
ATOM     18  C   UNL     1       5.694   3.967  12.196  0.00  0.00    +0.000 C 
BRANCH  18  19
ATOM     19  C   UNL     1       5.089   2.708  11.572  0.00  0.00    +0.000 C 
BRANCH  19  21
ATOM     20  C   UNL     1       3.492   3.979  10.102  0.00  0.00    +0.000 C 
ATOM     21  C   UNL     1       3.625   2.919  11.184  0.00  0.00    +0.000 C 
ENDBRANCH  19  21
ENDBRANCH  18  19
ENDBRANCH  17  18
ENDBRANCH  16  17
ENDBRANCH  14  16
ENDBRANCH   1  14
BRANCH   2  22
ATOM     22  O   UNL     1       5.274   7.209  15.945  0.00  0.00    +0.000 OA
ATOM     23  H   UNL     1       5.181   6.861  15.051  0.00  0.00    +0.000 HD
ENDBRANCH   2  22
BRANCH   6  24
ATOM     24  O   UNL     1       2.790   8.257  20.249  0.00  0.00    +0.000 OA
ATOM     25  H   UNL     1       2.778   7.927  21.159  0.00  0.00    +0.000 HD
ENDBRANCH   6  24
BRANCH  10  26
ATOM     26  O   UNL     1       3.056   3.921  21.084  0.00  0.00    +0.000 OA
ATOM     27  H   UNL     1       3.424   4.437  21.827  0.00  0.00    +0.000 HD
ENDBRANCH  10  26
BRANCH  12  28
ATOM     28  C   UNL     1       4.653   3.385  18.880  0.00  0.00    +0.000 C 
ATOM     29  O   UNL     1       5.621   3.789  19.540  0.00  0.00    +0.000 OA
BRANCH  28  30
ATOM     30  C   UNL     1       4.295   1.933  18.947  0.00  0.00    +0.000 C 
ATOM     31  C   UNL     1       4.577   1.181  20.018  0.00  0.00    +0.000 C 
BRANCH  31  32
ATOM     32  O   UNL     1       5.245   1.597  21.139  0.00  0.00    +0.000 OA
ATOM     33  H   UNL     1       5.637   0.803  21.566  0.00  0.00    +0.000 HD
ENDBRANCH  31  32
ENDBRANCH  28  30
ENDBRANCH  12  28
TORSDOF 12
ENDMDL
MODEL 2
REMARK VINA RESULT:      -5.7      8.003     12.600
REMARK  Name = 
REMARK  16 active torsions:
REMARK  status: ('A' for Active; 'I' for Inactive)
REMARK    1  A    between atoms: C_1  and  C_2
REMARK    2  A    between atoms: C_2  and  C_3
REMARK    3  A    between atoms: C_3  and  C_4
REMARK    4  A    between atoms: C_4  and  C_5
REMARK    5  A    between atoms: C_5  and  C_6
REMARK    6  A    between atoms: C_6  and  C_7
REMARK    7  A    between atoms: C_7  and  C_8
REMARK    8  A    between atoms: C_7  and  C_9
REMARK    9  A    between atoms: C_10  and  O_11
REMARK   10  A    between atoms: C_15  and  O_16
REMARK   11  A    between atoms: C_17  and  C_18
REMARK   12  A    between atoms: C_20  and  O_21
REMARK   13  A    between atoms: C_23  and  C_24
REMARK   14  A    between atoms: C_23  and  C_25
REMARK   15  A    between atoms: C_25  and  C_27
REMARK   16  A    between atoms: C_28  and  O_29
REMARK                            x       y       z     vdW  Elec       q    Type
REMARK                         _______ _______ _______ _____ _____    ______ ____
ROOT
ATOM      1  C   UNL     1      -2.979  12.945  21.621  0.00  0.00    +0.000 C 
ATOM      2  C   UNL     1      -4.222  12.762  21.113  0.00  0.00    +0.000 C 
ATOM      3  C   UNL     1      -4.449  12.304  19.692  0.00  0.00    +0.000 C 
ATOM      4  O   UNL     1      -5.592  12.272  19.239  0.00  0.00    +0.000 OA
ATOM      5  C   UNL     1      -3.243  12.028  18.822  0.00  0.00    +0.000 C 
ATOM      6  C   UNL     1      -3.618  11.104  17.647  0.00  0.00    +0.000 C 
ATOM      7  C   UNL     1      -2.386  10.886  16.753  0.00  0.00    +0.000 C 
ATOM      8  C   UNL     1      -2.716  10.065  15.508  0.00  0.00    +0.000 C 
ATOM      9  C   UNL     1      -1.280  10.211  17.563  0.00  0.00    +0.000 C 
ATOM     10  C   UNL     1      -0.893  11.045  18.786  0.00  0.00    +0.000 C 
ATOM     11  C   UNL     1      -2.084  11.496  19.676  0.00  0.00    +0.000 C 
ATOM     12  C   UNL     1      -1.698  12.548  20.800  0.00  0.00    +0.000 C 
ATOM     13  C   UNL     1      -1.130  13.861  20.213  0.00  0.00    +0.000 C 
ENDROOT
BRANCH   1  14
ATOM     14  C   UNL     1      -2.725  13.679  22.968  0.00  0.00    +0.000 C 
ATOM     15  C   UNL     1      -3.398  12.993  24.167  0.00  0.00    +0.000 C 
BRANCH  14  16
ATOM     16  C   UNL     1      -3.073  15.190  22.865  0.00  0.00    +0.000 C 
BRANCH  16  17
ATOM     17  C   UNL     1      -4.229  15.643  23.766  0.00  0.00    +0.000 C 
BRANCH  17  18
ATOM     18  C   UNL     1      -3.710  16.519  24.913  0.00  0.00    +0.000 C 
BRANCH  18  19
ATOM     19  C   UNL     1      -2.438  17.266  24.512  0.00  0.00    +0.000 C 
BRANCH  19  21
ATOM     20  C   UNL     1      -1.362  15.695  26.155  0.00  0.00    +0.000 C 
ATOM     21  C   UNL     1      -1.329  17.089  25.549  0.00  0.00    +0.000 C 
ENDBRANCH  19  21
ENDBRANCH  18  19
ENDBRANCH  17  18
ENDBRANCH  16  17
ENDBRANCH  14  16
ENDBRANCH   1  14
BRANCH   2  22
ATOM     22  O   UNL     1      -5.389  13.062  21.790  0.00  0.00    +0.000 OA
ATOM     23  H   UNL     1      -5.535  12.440  22.512  0.00  0.00    +0.000 HD
ENDBRANCH   2  22
BRANCH   6  24
ATOM     24  O   UNL     1      -4.122   9.839  18.076  0.00  0.00    +0.000 OA
ATOM     25  H   UNL     1      -4.953   9.619  17.630  0.00  0.00    +0.000 HD
ENDBRANCH   6  24
BRANCH  10  26
ATOM     26  O   UNL     1       0.028  10.275  19.547  0.00  0.00    +0.000 OA
ATOM     27  H   UNL     1       0.802  10.823  19.779  0.00  0.00    +0.000 HD
ENDBRANCH  10  26
BRANCH  12  28
ATOM     28  C   UNL     1      -0.694  11.808  21.744  0.00  0.00    +0.000 C 
ATOM     29  O   UNL     1       0.489  12.164  21.823  0.00  0.00    +0.000 OA
BRANCH  28  30
ATOM     30  C   UNL     1      -1.177  10.720  22.654  0.00  0.00    +0.000 C 
ATOM     31  C   UNL     1      -0.348   9.802  23.166  0.00  0.00    +0.000 C 
BRANCH  31  32
ATOM     32  O   UNL     1       0.992   9.698  22.909  0.00  0.00    +0.000 OA
ATOM     33  H   UNL     1       1.315  10.587  22.641  0.00  0.00    +0.000 HD
ENDBRANCH  31  32
ENDBRANCH  28  30
ENDBRANCH  12  28
TORSDOF 12
ENDMDL
MODEL 3
REMARK VINA RESULT:      -5.7      5.461     10.513
REMARK  Name = 
REMARK  16 active torsions:
REMARK  status: ('A' for Active; 'I' for Inactive)
REMARK    1  A    between atoms: C_1  and  C_2
REMARK    2  A    between atoms: C_2  and  C_3
REMARK    3  A    between atoms: C_3  and  C_4
REMARK    4  A    between atoms: C_4  and  C_5
REMARK    5  A    between atoms: C_5  and  C_6
REMARK    6  A    between atoms: C_6  and  C_7
REMARK    7  A    between atoms: C_7  and  C_8
REMARK    8  A    between atoms: C_7  and  C_9
REMARK    9  A    between atoms: C_10  and  O_11
REMARK   10  A    between atoms: C_15  and  O_16
REMARK   11  A    between atoms: C_17  and  C_18
REMARK   12  A    between atoms: C_20  and  O_21
REMARK   13  A    between atoms: C_23  and  C_24
REMARK   14  A    between atoms: C_23  and  C_25
REMARK   15  A    between atoms: C_25  and  C_27
REMARK   16  A    between atoms: C_28  and  O_29
REMARK                            x       y       z     vdW  Elec       q    Type
REMARK                         _______ _______ _______ _____ _____    ______ ____
ROOT
ATOM      1  C   UNL     1      -1.477  11.909  20.932  0.00  0.00    +0.000 C 
ATOM      2  C   UNL     1      -1.202  11.321  22.122  0.00  0.00    +0.000 C 
ATOM      3  C   UNL     1      -0.485   9.996  22.215  0.00  0.00    +0.000 C 
ATOM      4  O   UNL     1      -0.368   9.442  23.307  0.00  0.00    +0.000 OA
ATOM      5  C   UNL     1      -0.049   9.320  20.934  0.00  0.00    +0.000 C 
ATOM      6  C   UNL     1       1.080   8.307  21.208  0.00  0.00    +0.000 C 
ATOM      7  C   UNL     1       1.462   7.600  19.897  0.00  0.00    +0.000 C 
ATOM      8  C   UNL     1       2.504   6.504  20.118  0.00  0.00    +0.000 C 
ATOM      9  C   UNL     1       1.973   8.629  18.891  0.00  0.00    +0.000 C 
ATOM     10  C   UNL     1       0.925   9.707  18.611  0.00  0.00    +0.000 C 
ATOM     11  C   UNL     1       0.313  10.372  19.877  0.00  0.00    +0.000 C 
ATOM     12  C   UNL     1      -0.932  11.312  19.584  0.00  0.00    +0.000 C 
ATOM     13  C   UNL     1      -2.110  10.551  18.934  0.00  0.00    +0.000 C 
ENDROOT
BRANCH   1  14
ATOM     14  C   UNL     1      -2.451  13.114  20.799  0.00  0.00    +0.000 C 
ATOM     15  C   UNL     1      -1.994  14.351  21.589  0.00  0.00    +0.000 C 
BRANCH  14  16
ATOM     16  C   UNL     1      -3.913  12.699  21.123  0.00  0.00    +0.000 C 
BRANCH  16  17
ATOM     17  C   UNL     1      -4.931  13.032  20.026  0.00  0.00    +0.000 C 
BRANCH  17  18
ATOM     18  C   UNL     1      -5.983  11.921  19.907  0.00  0.00    +0.000 C 
BRANCH  18  19
ATOM     19  C   UNL     1      -5.796  11.113  18.622  0.00  0.00    +0.000 C 
BRANCH  19  21
ATOM     20  C   UNL     1      -4.448  11.460  16.527  0.00  0.00    +0.000 C 
ATOM     21  C   UNL     1      -5.546  12.021  17.418  0.00  0.00    +0.000 C 
ENDBRANCH  19  21
ENDBRANCH  18  19
ENDBRANCH  17  18
ENDBRANCH  16  17
ENDBRANCH  14  16
ENDBRANCH   1  14
BRANCH   2  22
ATOM     22  O   UNL     1      -1.625  11.808  23.344  0.00  0.00    +0.000 OA
ATOM     23  H   UNL     1      -2.373  11.298  23.674  0.00  0.00    +0.000 HD
ENDBRANCH   2  22
BRANCH   6  24
ATOM     24  O   UNL     1       2.241   8.911  21.777  0.00  0.00    +0.000 OA
ATOM     25  H   UNL     1       2.644   8.341  22.448  0.00  0.00    +0.000 HD
ENDBRANCH   6  24
BRANCH  10  26
ATOM     26  O   UNL     1       1.538  10.689  17.787  0.00  0.00    +0.000 OA
ATOM     27  H   UNL     1       1.028  11.521  17.833  0.00  0.00    +0.000 HD
ENDBRANCH  10  26
BRANCH  12  28
ATOM     28  C   UNL     1      -0.382  12.475  18.694  0.00  0.00    +0.000 C 
ATOM     29  O   UNL     1      -0.864  12.707  17.578  0.00  0.00    +0.000 OA
BRANCH  28  30
ATOM     30  C   UNL     1       0.669  13.400  19.227  0.00  0.00    +0.000 C 
ATOM     31  C   UNL     1       0.566  14.730  19.118  0.00  0.00    +0.000 C 
BRANCH  31  32
ATOM     32  O   UNL     1      -0.444  15.409  18.491  0.00  0.00    +0.000 OA
ATOM     33  H   UNL     1      -0.833  16.035  19.141  0.00  0.00    +0.000 HD
ENDBRANCH  31  32
ENDBRANCH  28  30
ENDBRANCH  12  28
TORSDOF 12
ENDMDL
MODEL 4
REMARK VINA RESULT:      -5.6      5.761     10.675
REMARK  Name = 
REMARK  16 active torsions:
REMARK  status: ('A' for Active; 'I' for Inactive)
REMARK    1  A    between atoms: C_1  and  C_2
REMARK    2  A    between atoms: C_2  and  C_3
REMARK    3  A    between atoms: C_3  and  C_4
REMARK    4  A    between atoms: C_4  and  C_5
REMARK    5  A    between atoms: C_5  and  C_6
REMARK    6  A    between atoms: C_6  and  C_7
REMARK    7  A    between atoms: C_7  and  C_8
REMARK    8  A    between atoms: C_7  and  C_9
REMARK    9  A    between atoms: C_10  and  O_11
REMARK   10  A    between atoms: C_15  and  O_16
REMARK   11  A    between atoms: C_17  and  C_18
REMARK   12  A    between atoms: C_20  and  O_21
REMARK   13  A    between atoms: C_23  and  C_24
REMARK   14  A    between atoms: C_23  and  C_25
REMARK   15  A    between atoms: C_25  and  C_27
REMARK   16  A    between atoms: C_28  and  O_29
REMARK                            x       y       z     vdW  Elec       q    Type
REMARK                         _______ _______ _______ _____ _____    ______ ____
ROOT
ATOM      1  C   UNL     1      -1.095  12.428  21.114  0.00  0.00    +0.000 C 
ATOM      2  C   UNL     1      -0.914  11.867  22.335  0.00  0.00    +0.000 C 
ATOM      3  C   UNL     1      -0.425  10.449  22.502  0.00  0.00    +0.000 C 
ATOM      4  O   UNL     1      -0.395   9.944  23.623  0.00  0.00    +0.000 OA
ATOM      5  C   UNL     1      -0.112   9.642  21.261  0.00  0.00    +0.000 C 
ATOM      6  C   UNL     1       0.836   8.474  21.594  0.00  0.00    +0.000 C 
ATOM      7  C   UNL     1       1.091   7.644  20.325  0.00  0.00    +0.000 C 
ATOM      8  C   UNL     1       1.939   6.405  20.608  0.00  0.00    +0.000 C 
ATOM      9  C   UNL     1       1.759   8.520  19.266  0.00  0.00    +0.000 C 
ATOM     10  C   UNL     1       0.900   9.738  18.925  0.00  0.00    +0.000 C 
ATOM     11  C   UNL     1       0.412  10.562  20.150  0.00  0.00    +0.000 C 
ATOM     12  C   UNL     1      -0.663  11.676  19.802  0.00  0.00    +0.000 C 
ATOM     13  C   UNL     1      -1.953  11.085  19.190  0.00  0.00    +0.000 C 
ENDROOT
BRANCH   1  14
ATOM     14  C   UNL     1      -1.860  13.767  20.912  0.00  0.00    +0.000 C 
ATOM     15  C   UNL     1      -1.102  14.984  21.467  0.00  0.00    +0.000 C 
BRANCH  14  16
ATOM     16  C   UNL     1      -3.318  13.672  21.440  0.00  0.00    +0.000 C 
BRANCH  16  17
ATOM     17  C   UNL     1      -4.276  12.886  20.536  0.00  0.00    +0.000 C 
BRANCH  17  18
ATOM     18  C   UNL     1      -5.691  12.874  21.127  0.00  0.00    +0.000 C 
BRANCH  18  19
ATOM     19  C   UNL     1      -6.537  11.754  20.522  0.00  0.00    +0.000 C 
BRANCH  19  21
ATOM     20  C   UNL     1      -6.949  11.903  18.045  0.00  0.00    +0.000 C 
ATOM     21  C   UNL     1      -6.037  11.358  19.133  0.00  0.00    +0.000 C 
ENDBRANCH  19  21
ENDBRANCH  18  19
ENDBRANCH  17  18
ENDBRANCH  16  17
ENDBRANCH  14  16
ENDBRANCH   1  14
BRANCH   2  22
ATOM     22  O   UNL     1      -1.245  12.482  23.527  0.00  0.00    +0.000 OA
ATOM     23  H   UNL     1      -0.545  13.082  23.808  0.00  0.00    +0.000 HD
ENDBRANCH   2  22
BRANCH   6  24
ATOM     24  O   UNL     1       2.084   8.910  22.134  0.00  0.00    +0.000 OA
ATOM     25  H   UNL     1       2.119   8.781  23.093  0.00  0.00    +0.000 HD
ENDBRANCH   6  24
BRANCH  10  26
ATOM     26  O   UNL     1       1.662  10.560  18.051  0.00  0.00    +0.000 OA
ATOM     27  H   UNL     1       2.401  10.044  17.676  0.00  0.00    +0.000 HD
ENDBRANCH  10  26
BRANCH  12  28
ATOM     28  C   UNL     1       0.066  12.684  18.853  0.00  0.00    +0.000 C 
ATOM     29  O   UNL     1      -0.381  12.936  17.726  0.00  0.00    +0.000 OA
BRANCH  28  30
ATOM     30  C   UNL     1       1.262  13.445  19.336  0.00  0.00    +0.000 C 
ATOM     31  C   UNL     1       2.347  13.623  18.572  0.00  0.00    +0.000 C 
BRANCH  31  32
ATOM     32  O   UNL     1       2.534  13.119  17.313  0.00  0.00    +0.000 OA
ATOM     33  H   UNL     1       1.790  12.506  17.122  0.00  0.00    +0.000 HD
ENDBRANCH  31  32
ENDBRANCH  28  30
ENDBRANCH  12  28
TORSDOF 12
ENDMDL
MODEL 5
REMARK VINA RESULT:      -5.6      5.043      9.106
REMARK  Name = 
REMARK  16 active torsions:
REMARK  status: ('A' for Active; 'I' for Inactive)
REMARK    1  A    between atoms: C_1  and  C_2
REMARK    2  A    between atoms: C_2  and  C_3
REMARK    3  A    between atoms: C_3  and  C_4
REMARK    4  A    between atoms: C_4  and  C_5
REMARK    5  A    between atoms: C_5  and  C_6
REMARK    6  A    between atoms: C_6  and  C_7
REMARK    7  A    between atoms: C_7  and  C_8
REMARK    8  A    between atoms: C_7  and  C_9
REMARK    9  A    between atoms: C_10  and  O_11
REMARK   10  A    between atoms: C_15  and  O_16
REMARK   11  A    between atoms: C_17  and  C_18
REMARK   12  A    between atoms: C_20  and  O_21
REMARK   13  A    between atoms: C_23  and  C_24
REMARK   14  A    between atoms: C_23  and  C_25
REMARK   15  A    between atoms: C_25  and  C_27
REMARK   16  A    between atoms: C_28  and  O_29
REMARK                            x       y       z     vdW  Elec       q    Type
REMARK                         _______ _______ _______ _____ _____    ______ ____
ROOT
ATOM      1  C   UNL     1      -0.131  10.675  19.973  0.00  0.00    +0.000 C 
ATOM      2  C   UNL     1      -0.262   9.966  21.121  0.00  0.00    +0.000 C 
ATOM      3  C   UNL     1      -0.656  10.616  22.425  0.00  0.00    +0.000 C 
ATOM      4  O   UNL     1      -0.642   9.956  23.463  0.00  0.00    +0.000 OA
ATOM      5  C   UNL     1      -0.928  12.104  22.436  0.00  0.00    +0.000 C 
ATOM      6  C   UNL     1      -1.794  12.492  23.651  0.00  0.00    +0.000 C 
ATOM      7  C   UNL     1      -2.007  14.015  23.663  0.00  0.00    +0.000 C 
ATOM      8  C   UNL     1      -2.770  14.479  24.902  0.00  0.00    +0.000 C 
ATOM      9  C   UNL     1      -2.742  14.438  22.392  0.00  0.00    +0.000 C 
ATOM     10  C   UNL     1      -1.968  14.033  21.136  0.00  0.00    +0.000 C 
ATOM     11  C   UNL     1      -1.523  12.544  21.092  0.00  0.00    +0.000 C 
ATOM     12  C   UNL     1      -0.527  12.195  19.906  0.00  0.00    +0.000 C 
ATOM     13  C   UNL     1       0.794  12.996  19.986  0.00  0.00    +0.000 C 
ENDROOT
BRANCH   1  14
ATOM     14  C   UNL     1       0.542  10.090  18.699  0.00  0.00    +0.000 C 
ATOM     15  C   UNL     1      -0.407   9.217  17.862  0.00  0.00    +0.000 C 
BRANCH  14  16
ATOM     16  C   UNL     1       1.877   9.372  19.042  0.00  0.00    +0.000 C 
BRANCH  16  17
ATOM     17  C   UNL     1       2.305   8.300  18.032  0.00  0.00    +0.000 C 
BRANCH  17  18
ATOM     18  C   UNL     1       2.682   6.998  18.751  0.00  0.00    +0.000 C 
BRANCH  18  19
ATOM     19  C   UNL     1       3.421   6.040  17.816  0.00  0.00    +0.000 C 
BRANCH  19  21
ATOM     20  C   UNL     1       5.410   5.760  16.301  0.00  0.00    +0.000 C 
ATOM     21  C   UNL     1       4.522   6.755  17.033  0.00  0.00    +0.000 C 
ENDBRANCH  19  21
ENDBRANCH  18  19
ENDBRANCH  17  18
ENDBRANCH  16  17
ENDBRANCH  14  16
ENDBRANCH   1  14
BRANCH   2  22
ATOM     22  O   UNL     1       0.040   8.623  21.241  0.00  0.00    +0.000 OA
ATOM     23  H   UNL     1      -0.621   8.083  20.794  0.00  0.00    +0.000 HD
ENDBRANCH   2  22
BRANCH   6  24
ATOM     24  O   UNL     1      -3.062  11.836  23.659  0.00  0.00    +0.000 OA
ATOM     25  H   UNL     1      -3.277  11.471  22.788  0.00  0.00    +0.000 HD
ENDBRANCH   6  24
BRANCH  10  26
ATOM     26  O   UNL     1      -2.792  14.335  20.017  0.00  0.00    +0.000 OA
ATOM     27  H   UNL     1      -2.241  14.684  19.290  0.00  0.00    +0.000 HD
ENDBRANCH  10  26
BRANCH  12  28
ATOM     28  C   UNL     1      -1.330  12.458  18.589  0.00  0.00    +0.000 C 
ATOM     29  O   UNL     1      -0.864  13.170  17.690  0.00  0.00    +0.000 OA
BRANCH  28  30
ATOM     30  C   UNL     1      -2.633  11.759  18.349  0.00  0.00    +0.000 C 
ATOM     31  C   UNL     1      -3.012  11.362  17.128  0.00  0.00    +0.000 C 
BRANCH  31  32
ATOM     32  O   UNL     1      -2.318  11.568  15.966  0.00  0.00    +0.000 OA
ATOM     33  H   UNL     1      -2.971  11.626  15.234  0.00  0.00    +0.000 HD
ENDBRANCH  31  32
ENDBRANCH  28  30
ENDBRANCH  12  28
TORSDOF 12
ENDMDL
MODEL 6
REMARK VINA RESULT:      -5.5      5.730     11.391
REMARK  Name = 
REMARK  16 active torsions:
REMARK  status: ('A' for Active; 'I' for Inactive)
REMARK    1  A    between atoms: C_1  and  C_2
REMARK    2  A    between atoms: C_2  and  C_3
REMARK    3  A    between atoms: C_3  and  C_4
REMARK    4  A    between atoms: C_4  and  C_5
REMARK    5  A    between atoms: C_5  and  C_6
REMARK    6  A    between atoms: C_6  and  C_7
REMARK    7  A    between atoms: C_7  and  C_8
REMARK    8  A    between atoms: C_7  and  C_9
REMARK    9  A    between atoms: C_10  and  O_11
REMARK   10  A    between atoms: C_15  and  O_16
REMARK   11  A    between atoms: C_17  and  C_18
REMARK   12  A    between atoms: C_20  and  O_21
REMARK   13  A    between atoms: C_23  and  C_24
REMARK   14  A    between atoms: C_23  and  C_25
REMARK   15  A    between atoms: C_25  and  C_27
REMARK   16  A    between atoms: C_28  and  O_29
REMARK                            x       y       z     vdW  Elec       q    Type
REMARK                         _______ _______ _______ _____ _____    ______ ____
ROOT
ATOM      1  C   UNL     1      -1.123  12.390  21.104  0.00  0.00    +0.000 C 
ATOM      2  C   UNL     1      -0.923  11.830  22.322  0.00  0.00    +0.000 C 
ATOM      3  C   UNL     1      -0.406  10.420  22.481  0.00  0.00    +0.000 C 
ATOM      4  O   UNL     1      -0.359   9.912  23.600  0.00  0.00    +0.000 OA
ATOM      5  C   UNL     1      -0.088   9.623  21.235  0.00  0.00    +0.000 C 
ATOM      6  C   UNL     1       0.884   8.472  21.557  0.00  0.00    +0.000 C 
ATOM      7  C   UNL     1       1.145   7.650  20.284  0.00  0.00    +0.000 C 
ATOM      8  C   UNL     1       2.018   6.427  20.557  0.00  0.00    +0.000 C 
ATOM      9  C   UNL     1       1.789   8.542  19.223  0.00  0.00    +0.000 C 
ATOM     10  C   UNL     1       0.906   9.745  18.892  0.00  0.00    +0.000 C 
ATOM     11  C   UNL     1       0.412  10.556  20.123  0.00  0.00    +0.000 C 
ATOM     12  C   UNL     1      -0.686  11.651  19.786  0.00  0.00    +0.000 C 
ATOM     13  C   UNL     1      -1.970  11.038  19.182  0.00  0.00    +0.000 C 
ENDROOT
BRANCH   1  14
ATOM     14  C   UNL     1      -1.914  13.716  20.912  0.00  0.00    +0.000 C 
ATOM     15  C   UNL     1      -1.234  14.926  21.573  0.00  0.00    +0.000 C 
BRANCH  14  16
ATOM     16  C   UNL     1      -3.401  13.555  21.333  0.00  0.00    +0.000 C 
BRANCH  16  17
ATOM     17  C   UNL     1      -3.944  14.690  22.210  0.00  0.00    +0.000 C 
BRANCH  17  18
ATOM     18  C   UNL     1      -4.381  14.155  23.580  0.00  0.00    +0.000 C 
BRANCH  18  19
ATOM     19  C   UNL     1      -5.901  14.203  23.736  0.00  0.00    +0.000 C 
BRANCH  19  21
ATOM     20  C   UNL     1      -7.410  12.416  22.812  0.00  0.00    +0.000 C 
ATOM     21  C   UNL     1      -6.490  12.810  23.956  0.00  0.00    +0.000 C 
ENDBRANCH  19  21
ENDBRANCH  18  19
ENDBRANCH  17  18
ENDBRANCH  16  17
ENDBRANCH  14  16
ENDBRANCH   1  14
BRANCH   2  22
ATOM     22  O   UNL     1      -1.257  12.435  23.518  0.00  0.00    +0.000 OA
ATOM     23  H   UNL     1      -1.343  13.388  23.406  0.00  0.00    +0.000 HD
ENDBRANCH   2  22
BRANCH   6  24
ATOM     24  O   UNL     1       2.128   8.929  22.090  0.00  0.00    +0.000 OA
ATOM     25  H   UNL     1       2.868   8.697  21.510  0.00  0.00    +0.000 HD
ENDBRANCH   6  24
BRANCH  10  26
ATOM     26  O   UNL     1       1.646  10.584  18.015  0.00  0.00    +0.000 OA
ATOM     27  H   UNL     1       2.433  10.930  18.479  0.00  0.00    +0.000 HD
ENDBRANCH  10  26
BRANCH  12  28
ATOM     28  C   UNL     1       0.017  12.675  18.835  0.00  0.00    +0.000 C 
ATOM     29  O   UNL     1      -0.432  12.908  17.705  0.00  0.00    +0.000 OA
BRANCH  28  30
ATOM     30  C   UNL     1       1.188  13.474  19.320  0.00  0.00    +0.000 C 
ATOM     31  C   UNL     1       2.277  13.668  18.566  0.00  0.00    +0.000 C 
BRANCH  31  32
ATOM     32  O   UNL     1       2.491  13.151  17.316  0.00  0.00    +0.000 OA
ATOM     33  H   UNL     1       1.674  13.296  16.788  0.00  0.00    +0.000 HD
ENDBRANCH  31  32
ENDBRANCH  28  30
ENDBRANCH  12  28
TORSDOF 12
ENDMDL
MODEL 7
REMARK VINA RESULT:      -5.5      8.235     12.617
REMARK  Name = 
REMARK  16 active torsions:
REMARK  status: ('A' for Active; 'I' for Inactive)
REMARK    1  A    between atoms: C_1  and  C_2
REMARK    2  A    between atoms: C_2  and  C_3
REMARK    3  A    between atoms: C_3  and  C_4
REMARK    4  A    between atoms: C_4  and  C_5
REMARK    5  A    between atoms: C_5  and  C_6
REMARK    6  A    between atoms: C_6  and  C_7
REMARK    7  A    between atoms: C_7  and  C_8
REMARK    8  A    between atoms: C_7  and  C_9
REMARK    9  A    between atoms: C_10  and  O_11
REMARK   10  A    between atoms: C_15  and  O_16
REMARK   11  A    between atoms: C_17  and  C_18
REMARK   12  A    between atoms: C_20  and  O_21
REMARK   13  A    between atoms: C_23  and  C_24
REMARK   14  A    between atoms: C_23  and  C_25
REMARK   15  A    between atoms: C_25  and  C_27
REMARK   16  A    between atoms: C_28  and  O_29
REMARK                            x       y       z     vdW  Elec       q    Type
REMARK                         _______ _______ _______ _____ _____    ______ ____
ROOT
ATOM      1  C   UNL     1      -3.280  13.102  21.791  0.00  0.00    +0.000 C 
ATOM      2  C   UNL     1      -4.496  12.818  21.265  0.00  0.00    +0.000 C 
ATOM      3  C   UNL     1      -4.666  12.368  19.834  0.00  0.00    +0.000 C 
ATOM      4  O   UNL     1      -5.796  12.242  19.365  0.00  0.00    +0.000 OA
ATOM      5  C   UNL     1      -3.430  12.216  18.974  0.00  0.00    +0.000 C 
ATOM      6  C   UNL     1      -3.708  11.283  17.779  0.00  0.00    +0.000 C 
ATOM      7  C   UNL     1      -2.451  11.192  16.898  0.00  0.00    +0.000 C 
ATOM      8  C   UNL     1      -2.692  10.367  15.635  0.00  0.00    +0.000 C 
ATOM      9  C   UNL     1      -1.298  10.604  17.710  0.00  0.00    +0.000 C 
ATOM     10  C   UNL     1      -1.001  11.447  18.951  0.00  0.00    +0.000 C 
ATOM     11  C   UNL     1      -2.238  11.774  19.834  0.00  0.00    +0.000 C 
ATOM     12  C   UNL     1      -1.960  12.836  20.980  0.00  0.00    +0.000 C 
ATOM     13  C   UNL     1      -1.505  14.204  20.423  0.00  0.00    +0.000 C 
ENDROOT
BRANCH   1  14
ATOM     14  C   UNL     1      -3.108  13.832  23.154  0.00  0.00    +0.000 C 
ATOM     15  C   UNL     1      -3.754  13.080  24.329  0.00  0.00    +0.000 C 
BRANCH  14  16
ATOM     16  C   UNL     1      -3.563  15.315  23.065  0.00  0.00    +0.000 C 
BRANCH  16  17
ATOM     17  C   UNL     1      -4.743  15.678  23.974  0.00  0.00    +0.000 C 
BRANCH  17  18
ATOM     18  C   UNL     1      -5.637  16.731  23.307  0.00  0.00    +0.000 C 
BRANCH  18  19
ATOM     19  C   UNL     1      -5.221  16.975  21.856  0.00  0.00    +0.000 C 
BRANCH  19  21
ATOM     20  C   UNL     1      -5.919  15.831  19.727  0.00  0.00    +0.000 C 
ATOM     21  C   UNL     1      -6.372  16.704  20.887  0.00  0.00    +0.000 C 
ENDBRANCH  19  21
ENDBRANCH  18  19
ENDBRANCH  17  18
ENDBRANCH  16  17
ENDBRANCH  14  16
ENDBRANCH   1  14
BRANCH   2  22
ATOM     22  O   UNL     1      -5.693  13.001  21.932  0.00  0.00    +0.000 OA
ATOM     23  H   UNL     1      -6.408  13.171  21.309  0.00  0.00    +0.000 HD
ENDBRANCH   2  22
BRANCH   6  24
ATOM     24  O   UNL     1      -4.102   9.971  18.180  0.00  0.00    +0.000 OA
ATOM     25  H   UNL     1      -4.918   9.696  17.737  0.00  0.00    +0.000 HD
ENDBRANCH   6  24
BRANCH  10  26
ATOM     26  O   UNL     1      -0.024  10.748  19.712  0.00  0.00    +0.000 OA
ATOM     27  H   UNL     1      -0.390  10.524  20.589  0.00  0.00    +0.000 HD
ENDBRANCH  10  26
BRANCH  12  28
ATOM     28  C   UNL     1      -0.905  12.171  21.925  0.00  0.00    +0.000 C 
ATOM     29  O   UNL     1       0.241  12.631  22.026  0.00  0.00    +0.000 OA
BRANCH  28  30
ATOM     30  C   UNL     1      -1.298  11.027  22.808  0.00  0.00    +0.000 C 
ATOM     31  C   UNL     1      -0.457  10.023  23.087  0.00  0.00    +0.000 C 
BRANCH  31  32
ATOM     32  O   UNL     1       0.812   9.878  22.593  0.00  0.00    +0.000 OA
ATOM     33  H   UNL     1       1.299  10.713  22.769  0.00  0.00    +0.000 HD
ENDBRANCH  31  32
ENDBRANCH  28  30
ENDBRANCH  12  28
TORSDOF 12
ENDMDL
MODEL 8
REMARK VINA RESULT:      -5.4      5.432     11.415
REMARK  Name = 
REMARK  16 active torsions:
REMARK  status: ('A' for Active; 'I' for Inactive)
REMARK    1  A    between atoms: C_1  and  C_2
REMARK    2  A    between atoms: C_2  and  C_3
REMARK    3  A    between atoms: C_3  and  C_4
REMARK    4  A    between atoms: C_4  and  C_5
REMARK    5  A    between atoms: C_5  and  C_6
REMARK    6  A    between atoms: C_6  and  C_7
REMARK    7  A    between atoms: C_7  and  C_8
REMARK    8  A    between atoms: C_7  and  C_9
REMARK    9  A    between atoms: C_10  and  O_11
REMARK   10  A    between atoms: C_15  and  O_16
REMARK   11  A    between atoms: C_17  and  C_18
REMARK   12  A    between atoms: C_20  and  O_21
REMARK   13  A    between atoms: C_23  and  C_24
REMARK   14  A    between atoms: C_23  and  C_25
REMARK   15  A    between atoms: C_25  and  C_27
REMARK   16  A    between atoms: C_28  and  O_29
REMARK                            x       y       z     vdW  Elec       q    Type
REMARK                         _______ _______ _______ _____ _____    ______ ____
ROOT
ATOM      1  C   UNL     1      -1.199  12.036  21.019  0.00  0.00    +0.000 C 
ATOM      2  C   UNL     1      -0.984  11.409  22.201  0.00  0.00    +0.000 C 
ATOM      3  C   UNL     1      -0.393  10.022  22.279  0.00  0.00    +0.000 C 
ATOM      4  O   UNL     1      -0.332   9.446  23.364  0.00  0.00    +0.000 OA
ATOM      5  C   UNL     1      -0.016   9.326  20.989  0.00  0.00    +0.000 C 
ATOM      6  C   UNL     1       1.013   8.210  21.253  0.00  0.00    +0.000 C 
ATOM      7  C   UNL     1       1.335   7.488  19.934  0.00  0.00    +0.000 C 
ATOM      8  C   UNL     1       2.270   6.297  20.143  0.00  0.00    +0.000 C 
ATOM      9  C   UNL     1       1.942   8.479  18.943  0.00  0.00    +0.000 C 
ATOM     10  C   UNL     1       0.999   9.652  18.675  0.00  0.00    +0.000 C 
ATOM     11  C   UNL     1       0.446  10.354  19.948  0.00  0.00    +0.000 C 
ATOM     12  C   UNL     1      -0.706  11.408  19.664  0.00  0.00    +0.000 C 
ATOM     13  C   UNL     1      -1.947  10.767  19.001  0.00  0.00    +0.000 C 
ENDROOT
BRANCH   1  14
ATOM     14  C   UNL     1      -2.058  13.327  20.899  0.00  0.00    +0.000 C 
ATOM     15  C   UNL     1      -1.508  14.498  21.729  0.00  0.00    +0.000 C 
BRANCH  14  16
ATOM     16  C   UNL     1      -3.558  13.038  21.185  0.00  0.00    +0.000 C 
BRANCH  16  17
ATOM     17  C   UNL     1      -4.387  14.272  21.560  0.00  0.00    +0.000 C 
BRANCH  17  18
ATOM     18  C   UNL     1      -5.500  13.897  22.548  0.00  0.00    +0.000 C 
BRANCH  18  19
ATOM     19  C   UNL     1      -5.560  14.881  23.717  0.00  0.00    +0.000 C 
BRANCH  19  21
ATOM     20  C   UNL     1      -3.500  15.690  24.912  0.00  0.00    +0.000 C 
ATOM     21  C   UNL     1      -4.388  15.862  23.689  0.00  0.00    +0.000 C 
ENDBRANCH  19  21
ENDBRANCH  18  19
ENDBRANCH  17  18
ENDBRANCH  16  17
ENDBRANCH  14  16
ENDBRANCH   1  14
BRANCH   2  22
ATOM     22  O   UNL     1      -1.366  11.917  23.429  0.00  0.00    +0.000 OA
ATOM     23  H   UNL     1      -1.490  12.872  23.380  0.00  0.00    +0.000 HD
ENDBRANCH   2  22
BRANCH   6  24
ATOM     24  O   UNL     1       2.223   8.697  21.834  0.00  0.00    +0.000 OA
ATOM     25  H   UNL     1       2.322   8.398  22.749  0.00  0.00    +0.000 HD
ENDBRANCH   6  24
BRANCH  10  26
ATOM     26  O   UNL     1       1.703  10.585  17.866  0.00  0.00    +0.000 OA
ATOM     27  H   UNL     1       2.394  10.120  17.356  0.00  0.00    +0.000 HD
ENDBRANCH  10  26
BRANCH  12  28
ATOM     28  C   UNL     1      -0.048  12.528  18.792  0.00  0.00    +0.000 C 
ATOM     29  O   UNL     1      -0.495  12.810  17.672  0.00  0.00    +0.000 OA
BRANCH  28  30
ATOM     30  C   UNL     1       1.072  13.354  19.345  0.00  0.00    +0.000 C 
ATOM     31  C   UNL     1       2.160  13.651  18.623  0.00  0.00    +0.000 C 
BRANCH  31  32
ATOM     32  O   UNL     1       2.419  13.223  17.349  0.00  0.00    +0.000 OA
ATOM     33  H   UNL     1       1.628  13.422  16.800  0.00  0.00    +0.000 HD
ENDBRANCH  31  32
ENDBRANCH  28  30
ENDBRANCH  12  28
TORSDOF 12
ENDMDL
MODEL 9
REMARK VINA RESULT:      -5.3      8.643     12.745
REMARK  Name = 
REMARK  16 active torsions:
REMARK  status: ('A' for Active; 'I' for Inactive)
REMARK    1  A    between atoms: C_1  and  C_2
REMARK    2  A    between atoms: C_2  and  C_3
REMARK    3  A    between atoms: C_3  and  C_4
REMARK    4  A    between atoms: C_4  and  C_5
REMARK    5  A    between atoms: C_5  and  C_6
REMARK    6  A    between atoms: C_6  and  C_7
REMARK    7  A    between atoms: C_7  and  C_8
REMARK    8  A    between atoms: C_7  and  C_9
REMARK    9  A    between atoms: C_10  and  O_11
REMARK   10  A    between atoms: C_15  and  O_16
REMARK   11  A    between atoms: C_17  and  C_18
REMARK   12  A    between atoms: C_20  and  O_21
REMARK   13  A    between atoms: C_23  and  C_24
REMARK   14  A    between atoms: C_23  and  C_25
REMARK   15  A    between atoms: C_25  and  C_27
REMARK   16  A    between atoms: C_28  and  O_29
REMARK                            x       y       z     vdW  Elec       q    Type
REMARK                         _______ _______ _______ _____ _____    ______ ____
ROOT
ATOM      1  C   UNL     1      -4.000  12.939  22.049  0.00  0.00    +0.000 C 
ATOM      2  C   UNL     1      -5.123  12.473  21.450  0.00  0.00    +0.000 C 
ATOM      3  C   UNL     1      -5.156  12.102  19.987  0.00  0.00    +0.000 C 
ATOM      4  O   UNL     1      -6.226  11.802  19.459  0.00  0.00    +0.000 OA
ATOM      5  C   UNL     1      -3.885  12.242  19.178  0.00  0.00    +0.000 C 
ATOM      6  C   UNL     1      -3.942  11.361  17.914  0.00  0.00    +0.000 C 
ATOM      7  C   UNL     1      -2.662  11.567  17.088  0.00  0.00    +0.000 C 
ATOM      8  C   UNL     1      -2.701  10.803  15.766  0.00  0.00    +0.000 C 
ATOM      9  C   UNL     1      -1.447  11.146  17.914  0.00  0.00    +0.000 C 
ATOM     10  C   UNL     1      -1.356  11.939  19.219  0.00  0.00    +0.000 C 
ATOM     11  C   UNL     1      -2.661  11.969  20.062  0.00  0.00    +0.000 C 
ATOM     12  C   UNL     1      -2.627  12.980  21.285  0.00  0.00    +0.000 C 
ATOM     13  C   UNL     1      -2.418  14.445  20.837  0.00  0.00    +0.000 C 
ENDROOT
BRANCH   1  14
ATOM     14  C   UNL     1      -4.014  13.590  23.462  0.00  0.00    +0.000 C 
ATOM     15  C   UNL     1      -4.181  12.567  24.597  0.00  0.00    +0.000 C 
BRANCH  14  16
ATOM     16  C   UNL     1      -5.043  14.751  23.541  0.00  0.00    +0.000 C 
BRANCH  16  17
ATOM     17  C   UNL     1      -4.691  15.978  22.692  0.00  0.00    +0.000 C 
BRANCH  17  18
ATOM     18  C   UNL     1      -5.854  16.347  21.762  0.00  0.00    +0.000 C 
BRANCH  18  19
ATOM     19  C   UNL     1      -5.556  15.953  20.315  0.00  0.00    +0.000 C 
BRANCH  19  21
ATOM     20  C   UNL     1      -3.996  17.718  19.433  0.00  0.00    +0.000 C 
ATOM     21  C   UNL     1      -5.419  17.180  19.414  0.00  0.00    +0.000 C 
ENDBRANCH  19  21
ENDBRANCH  18  19
ENDBRANCH  17  18
ENDBRANCH  16  17
ENDBRANCH  14  16
ENDBRANCH   1  14
BRANCH   2  22
ATOM     22  O   UNL     1      -6.354  12.383  22.071  0.00  0.00    +0.000 OA
ATOM     23  H   UNL     1      -6.530  13.173  22.595  0.00  0.00    +0.000 HD
ENDBRANCH   2  22
BRANCH   6  24
ATOM     24  O   UNL     1      -4.096   9.973  18.213  0.00  0.00    +0.000 OA
ATOM     25  H   UNL     1      -5.030   9.721  18.254  0.00  0.00    +0.000 HD
ENDBRANCH   6  24
BRANCH  10  26
ATOM     26  O   UNL     1      -0.291  11.381  19.978  0.00  0.00    +0.000 OA
ATOM     27  H   UNL     1       0.048  10.583  19.529  0.00  0.00    +0.000 HD
ENDBRANCH  10  26
BRANCH  12  28
ATOM     28  C   UNL     1      -1.498  12.457  22.234  0.00  0.00    +0.000 C 
ATOM     29  O   UNL     1      -0.484  13.134  22.453  0.00  0.00    +0.000 OA
BRANCH  28  30
ATOM     30  C   UNL     1      -1.676  11.171  22.980  0.00  0.00    +0.000 C 
ATOM     31  C   UNL     1      -0.691  10.270  23.089  0.00  0.00    +0.000 C 
BRANCH  31  32
ATOM     32  O   UNL     1       0.551  10.366  22.522  0.00  0.00    +0.000 OA
ATOM     33  H   UNL     1       1.145   9.744  22.997  0.00  0.00    +0.000 HD
ENDBRANCH  31  32
ENDBRANCH  28  30
ENDBRANCH  12  28
TORSDOF 12
ENDMDL
