MODEL 1
REMARK VINA RESULT:      -6.4      0.000      0.000
REMARK  Name = 
REMARK  6 active torsions:
REMARK  status: ('A' for Active; 'I' for Inactive)
REMARK    1  A    between atoms: C_1  and  C_2
REMARK    2  A    between atoms: C_2  and  O_3
REMARK    3  A    between atoms: O_3  and  N_4
REMARK    4  A    between atoms: N_6  and  C_7
REMARK    5  A    between atoms: C_11  and  O_12
REMARK    6  A    between atoms: O_12  and  C_13
REMARK                            x       y       z     vdW  Elec       q    Type
REMARK                         _______ _______ _______ _____ _____    ______ ____
ROOT
ATOM      1  C   UNL     1       4.679   5.029  18.267  0.00  0.00    +0.000 A 
ATOM      2  C   UNL     1       4.412   3.670  18.141  0.00  0.00    +0.000 A 
ATOM      3  C   UNL     1       3.343   3.049  18.825  0.00  0.00    +0.000 A 
ATOM      4 CL   UNL     1       3.244   1.339  18.572  0.00  0.00    +0.000 Cl
ATOM      5  C   UNL     1       2.479   3.808  19.629  0.00  0.00    +0.000 A 
ATOM      6  C   UNL     1       2.738   5.190  19.719  0.00  0.00    +0.000 A 
ATOM      7 CL   UNL     1       1.717   6.242  20.652  0.00  0.00    +0.000 Cl
ATOM      8  C   UNL     1       3.821   5.791  19.058  0.00  0.00    +0.000 A 
ENDROOT
BRANCH   1  11
ATOM      9  N   UNL     1       7.250   5.946  15.828  0.00  0.00    +0.000 NA
ATOM     10  C   UNL     1       6.297   5.282  16.403  0.00  0.00    +0.000 C 
ATOM     11  N   UNL     1       5.715   5.670  17.570  0.00  0.00    +0.000 N 
ATOM     12  H   UNL     1       6.090   6.514  17.983  0.00  0.00    +0.000 HD
BRANCH   9  13
ATOM     13  O   UNL     1       7.591   5.303  14.627  0.00  0.00    +0.000 OA
BRANCH  13  15
ATOM     14  C   UNL     1       6.581   3.989  12.897  0.00  0.00    +0.000 C 
ATOM     15  C   UNL     1       6.638   4.269  14.385  0.00  0.00    +0.000 C 
ENDBRANCH  13  15
ENDBRANCH   9  13
ENDBRANCH   1  11
BRANCH   5  16
ATOM     16  O   UNL     1       1.392   3.406  20.356  0.00  0.00    +0.000 OA
ATOM     17  C   UNL     1       1.525   2.702  21.576  0.00  0.00    +0.000 C 
ENDBRANCH   5  16
TORSDOF 4
ENDMDL
MODEL 2
REMARK VINA RESULT:      -6.2      1.042      2.492
REMARK  Name = 
REMARK  6 active torsions:
REMARK  status: ('A' for Active; 'I' for Inactive)
REMARK    1  A    between atoms: C_1  and  C_2
REMARK    2  A    between atoms: C_2  and  O_3
REMARK    3  A    between atoms: O_3  and  N_4
REMARK    4  A    between atoms: N_6  and  C_7
REMARK    5  A    between atoms: C_11  and  O_12
REMARK    6  A    between atoms: O_12  and  C_13
REMARK                            x       y       z     vdW  Elec       q    Type
REMARK                         _______ _______ _______ _____ _____    ______ ____
ROOT
ATOM      1  C   UNL     1       4.202   5.432  17.391  0.00  0.00    +0.000 A 
ATOM      2  C   UNL     1       3.631   6.243  18.365  0.00  0.00    +0.000 A 
ATOM      3  C   UNL     1       2.560   5.802  19.175  0.00  0.00    +0.000 A 
ATOM      4 CL   UNL     1       1.963   7.003  20.270  0.00  0.00    +0.000 Cl
ATOM      5  C   UNL     1       2.066   4.495  19.047  0.00  0.00    +0.000 A 
ATOM      6  C   UNL     1       2.678   3.671  18.082  0.00  0.00    +0.000 A 
ATOM      7 CL   UNL     1       2.181   2.021  17.856  0.00  0.00    +0.000 Cl
ATOM      8  C   UNL     1       3.722   4.129  17.263  0.00  0.00    +0.000 A 
ENDROOT
BRANCH   1  11
ATOM      9  N   UNL     1       6.842   5.649  14.864  0.00  0.00    +0.000 NA
ATOM     10  C   UNL     1       5.836   5.188  15.540  0.00  0.00    +0.000 C 
ATOM     11  N   UNL     1       5.288   5.840  16.601  0.00  0.00    +0.000 N 
ATOM     12  H   UNL     1       5.732   6.714  16.851  0.00  0.00    +0.000 HD
BRANCH   9  13
ATOM     13  O   UNL     1       7.130   4.761  13.815  0.00  0.00    +0.000 OA
BRANCH  13  15
ATOM     14  C   UNL     1       6.012   3.315  12.266  0.00  0.00    +0.000 C 
ATOM     15  C   UNL     1       6.035   3.855  13.681  0.00  0.00    +0.000 C 
ENDBRANCH  13  15
ENDBRANCH   9  13
ENDBRANCH   1  11
BRANCH   5  16
ATOM     16  O   UNL     1       1.057   3.877  19.734  0.00  0.00    +0.000 OA
ATOM     17  C   UNL     1       1.255   3.329  21.024  0.00  0.00    +0.000 C 
ENDBRANCH   5  16
TORSDOF 4
ENDMDL
MODEL 3
REMARK VINA RESULT:      -6.1      1.314      1.391
REMARK  Name = 
REMARK  6 active torsions:
REMARK  status: ('A' for Active; 'I' for Inactive)
REMARK    1  A    between atoms: C_1  and  C_2
REMARK    2  A    between atoms: C_2  and  O_3
REMARK    3  A    between atoms: O_3  and  N_4
REMARK    4  A    between atoms: N_6  and  C_7
REMARK    5  A    between atoms: C_11  and  O_12
REMARK    6  A    between atoms: O_12  and  C_13
REMARK                            x       y       z     vdW  Elec       q    Type
REMARK                         _______ _______ _______ _____ _____    ______ ____
ROOT
ATOM      1  C   UNL     1       5.476   5.229  17.965  0.00  0.00    +0.000 A 
ATOM      2  C   UNL     1       5.234   4.055  18.671  0.00  0.00    +0.000 A 
ATOM      3  C   UNL     1       4.113   3.907  19.519  0.00  0.00    +0.000 A 
ATOM      4 CL   UNL     1       4.052   2.389  20.348  0.00  0.00    +0.000 Cl
ATOM      5  C   UNL     1       3.174   4.942  19.639  0.00  0.00    +0.000 A 
ATOM      6  C   UNL     1       3.411   6.112  18.891  0.00  0.00    +0.000 A 
ATOM      7 CL   UNL     1       2.300   7.449  18.925  0.00  0.00    +0.000 Cl
ATOM      8  C   UNL     1       4.543   6.259  18.074  0.00  0.00    +0.000 A 
ENDROOT
BRANCH   1  11
ATOM      9  N   UNL     1       7.640   5.367  15.017  0.00  0.00    +0.000 NA
ATOM     10  C   UNL     1       6.582   5.196  15.744  0.00  0.00    +0.000 C 
ATOM     11  N   UNL     1       6.564   5.382  17.092  0.00  0.00    +0.000 N 
ATOM     12  H   UNL     1       7.448   5.648  17.506  0.00  0.00    +0.000 HD
BRANCH   9  13
ATOM     13  O   UNL     1       7.309   5.139  13.671  0.00  0.00    +0.000 OA
BRANCH  13  15
ATOM     14  C   UNL     1       6.382   3.453  12.244  0.00  0.00    +0.000 C 
ATOM     15  C   UNL     1       6.344   4.089  13.619  0.00  0.00    +0.000 C 
ENDBRANCH  13  15
ENDBRANCH   9  13
ENDBRANCH   1  11
BRANCH   5  16
ATOM     16  O   UNL     1       2.029   4.994  20.387  0.00  0.00    +0.000 OA
ATOM     17  C   UNL     1       0.978   4.063  20.215  0.00  0.00    +0.000 C 
ENDBRANCH   5  16
TORSDOF 4
ENDMDL
MODEL 4
REMARK VINA RESULT:      -6.1      1.159      1.203
REMARK  Name = 
REMARK  6 active torsions:
REMARK  status: ('A' for Active; 'I' for Inactive)
REMARK    1  A    between atoms: C_1  and  C_2
REMARK    2  A    between atoms: C_2  and  O_3
REMARK    3  A    between atoms: O_3  and  N_4
REMARK    4  A    between atoms: N_6  and  C_7
REMARK    5  A    between atoms: C_11  and  O_12
REMARK    6  A    between atoms: O_12  and  C_13
REMARK                            x       y       z     vdW  Elec       q    Type
REMARK                         _______ _______ _______ _____ _____    ______ ____
ROOT
ATOM      1  C   UNL     1       4.737   5.246  17.282  0.00  0.00    +0.000 A 
ATOM      2  C   UNL     1       4.157   3.983  17.236  0.00  0.00    +0.000 A 
ATOM      3  C   UNL     1       3.012   3.656  17.998  0.00  0.00    +0.000 A 
ATOM      4 CL   UNL     1       2.505   2.009  17.836  0.00  0.00    +0.000 Cl
ATOM      5  C   UNL     1       2.393   4.627  18.799  0.00  0.00    +0.000 A 
ATOM      6  C   UNL     1       2.969   5.912  18.808  0.00  0.00    +0.000 A 
ATOM      7 CL   UNL     1       2.273   7.210  19.731  0.00  0.00    +0.000 Cl
ATOM      8  C   UNL     1       4.124   6.218  18.070  0.00  0.00    +0.000 A 
ENDROOT
BRANCH   1  11
ATOM      9  N   UNL     1       7.265   5.499  14.646  0.00  0.00    +0.000 NA
ATOM     10  C   UNL     1       6.213   5.106  15.291  0.00  0.00    +0.000 C 
ATOM     11  N   UNL     1       5.853   5.599  16.507  0.00  0.00    +0.000 N 
ATOM     12  H   UNL     1       6.479   6.292  16.897  0.00  0.00    +0.000 HD
BRANCH   9  13
ATOM     13  O   UNL     1       7.321   4.829  13.413  0.00  0.00    +0.000 OA
BRANCH  13  15
ATOM     14  C   UNL     1       6.255   3.198  12.019  0.00  0.00    +0.000 C 
ATOM     15  C   UNL     1       6.265   3.868  13.378  0.00  0.00    +0.000 C 
ENDBRANCH  13  15
ENDBRANCH   9  13
ENDBRANCH   1  11
BRANCH   5  16
ATOM     16  O   UNL     1       1.284   4.520  19.594  0.00  0.00    +0.000 OA
ATOM     17  C   UNL     1       1.309   3.824  20.826  0.00  0.00    +0.000 C 
ENDBRANCH   5  16
TORSDOF 4
ENDMDL
MODEL 5
REMARK VINA RESULT:      -6.1      1.527      1.550
REMARK  Name = 
REMARK  6 active torsions:
REMARK  status: ('A' for Active; 'I' for Inactive)
REMARK    1  A    between atoms: C_1  and  C_2
REMARK    2  A    between atoms: C_2  and  O_3
REMARK    3  A    between atoms: O_3  and  N_4
REMARK    4  A    between atoms: N_6  and  C_7
REMARK    5  A    between atoms: C_11  and  O_12
REMARK    6  A    between atoms: O_12  and  C_13
REMARK                            x       y       z     vdW  Elec       q    Type
REMARK                         _______ _______ _______ _____ _____    ______ ____
ROOT
ATOM      1  C   UNL     1       5.085   4.446  17.831  0.00  0.00    +0.000 A 
ATOM      2  C   UNL     1       5.283   3.544  18.870  0.00  0.00    +0.000 A 
ATOM      3  C   UNL     1       4.205   2.936  19.553  0.00  0.00    +0.000 A 
ATOM      4 CL   UNL     1       4.688   1.902  20.854  0.00  0.00    +0.000 Cl
ATOM      5  C   UNL     1       2.883   3.196  19.163  0.00  0.00    +0.000 A 
ATOM      6  C   UNL     1       2.696   4.083  18.085  0.00  0.00    +0.000 A 
ATOM      7 CL   UNL     1       1.108   4.456  17.484  0.00  0.00    +0.000 Cl
ATOM      8  C   UNL     1       3.774   4.704  17.433  0.00  0.00    +0.000 A 
ENDROOT
BRANCH   1  11
ATOM      9  N   UNL     1       7.419   5.509  15.219  0.00  0.00    +0.000 NA
ATOM     10  C   UNL     1       6.415   4.922  15.791  0.00  0.00    +0.000 C 
ATOM     11  N   UNL     1       6.143   5.033  17.120  0.00  0.00    +0.000 N 
ATOM     12  H   UNL     1       6.794   5.596  17.651  0.00  0.00    +0.000 HD
BRANCH   9  13
ATOM     13  O   UNL     1       7.387   5.227  13.844  0.00  0.00    +0.000 OA
BRANCH  13  15
ATOM     14  C   UNL     1       6.652   3.623  12.224  0.00  0.00    +0.000 C 
ATOM     15  C   UNL     1       6.459   4.166  13.625  0.00  0.00    +0.000 C 
ENDBRANCH  13  15
ENDBRANCH   9  13
ENDBRANCH   1  11
BRANCH   5  16
ATOM     16  O   UNL     1       1.713   2.707  19.677  0.00  0.00    +0.000 OA
ATOM     17  C   UNL     1       1.236   3.093  20.952  0.00  0.00    +0.000 C 
ENDBRANCH   5  16
TORSDOF 4
ENDMDL
MODEL 6
REMARK VINA RESULT:      -6.0      0.662      2.387
REMARK  Name = 
REMARK  6 active torsions:
REMARK  status: ('A' for Active; 'I' for Inactive)
REMARK    1  A    between atoms: C_1  and  C_2
REMARK    2  A    between atoms: C_2  and  O_3
REMARK    3  A    between atoms: O_3  and  N_4
REMARK    4  A    between atoms: N_6  and  C_7
REMARK    5  A    between atoms: C_11  and  O_12
REMARK    6  A    between atoms: O_12  and  C_13
REMARK                            x       y       z     vdW  Elec       q    Type
REMARK                         _______ _______ _______ _____ _____    ______ ____
ROOT
ATOM      1  C   UNL     1       4.899   5.013  18.054  0.00  0.00    +0.000 A 
ATOM      2  C   UNL     1       4.027   5.727  18.868  0.00  0.00    +0.000 A 
ATOM      3  C   UNL     1       2.970   5.101  19.567  0.00  0.00    +0.000 A 
ATOM      4 CL   UNL     1       1.972   6.196  20.462  0.00  0.00    +0.000 Cl
ATOM      5  C   UNL     1       2.798   3.711  19.494  0.00  0.00    +0.000 A 
ATOM      6  C   UNL     1       3.710   2.993  18.696  0.00  0.00    +0.000 A 
ATOM      7 CL   UNL     1       3.624   1.263  18.555  0.00  0.00    +0.000 Cl
ATOM      8  C   UNL     1       4.738   3.630  17.982  0.00  0.00    +0.000 A 
ENDROOT
BRANCH   1  11
ATOM      9  N   UNL     1       7.473   5.903  15.608  0.00  0.00    +0.000 NA
ATOM     10  C   UNL     1       6.473   5.286  16.155  0.00  0.00    +0.000 C 
ATOM     11  N   UNL     1       5.974   5.611  17.379  0.00  0.00    +0.000 N 
ATOM     12  H   UNL     1       6.450   6.365  17.856  0.00  0.00    +0.000 HD
BRANCH   9  13
ATOM     13  O   UNL     1       7.705   5.354  14.337  0.00  0.00    +0.000 OA
BRANCH  13  15
ATOM     14  C   UNL     1       6.782   3.970  12.613  0.00  0.00    +0.000 C 
ATOM     15  C   UNL     1       6.664   4.420  14.055  0.00  0.00    +0.000 C 
ENDBRANCH  13  15
ENDBRANCH   9  13
ENDBRANCH   1  11
BRANCH   5  16
ATOM     16  O   UNL     1       1.858   2.919  20.096  0.00  0.00    +0.000 OA
ATOM     17  C   UNL     1       0.538   2.811  19.598  0.00  0.00    +0.000 C 
ENDBRANCH   5  16
TORSDOF 4
ENDMDL
MODEL 7
REMARK VINA RESULT:      -6.0      0.971      2.421
REMARK  Name = 
REMARK  6 active torsions:
REMARK  status: ('A' for Active; 'I' for Inactive)
REMARK    1  A    between atoms: C_1  and  C_2
REMARK    2  A    between atoms: C_2  and  O_3
REMARK    3  A    between atoms: O_3  and  N_4
REMARK    4  A    between atoms: N_6  and  C_7
REMARK    5  A    between atoms: C_11  and  O_12
REMARK    6  A    between atoms: O_12  and  C_13
REMARK                            x       y       z     vdW  Elec       q    Type
REMARK                         _______ _______ _______ _____ _____    ______ ____
ROOT
ATOM      1  C   UNL     1       4.198   5.335  17.964  0.00  0.00    +0.000 A 
ATOM      2  C   UNL     1       3.277   6.009  18.758  0.00  0.00    +0.000 A 
ATOM      3  C   UNL     1       2.679   5.407  19.888  0.00  0.00    +0.000 A 
ATOM      4 CL   UNL     1       1.513   6.408  20.685  0.00  0.00    +0.000 Cl
ATOM      5  C   UNL     1       3.039   4.107  20.273  0.00  0.00    +0.000 A 
ATOM      6  C   UNL     1       4.000   3.448  19.481  0.00  0.00    +0.000 A 
ATOM      7 CL   UNL     1       4.556   1.850  19.876  0.00  0.00    +0.000 Cl
ATOM      8  C   UNL     1       4.566   4.045  18.343  0.00  0.00    +0.000 A 
ENDROOT
BRANCH   1  11
ATOM      9  N   UNL     1       6.173   5.962  14.946  0.00  0.00    +0.000 NA
ATOM     10  C   UNL     1       5.637   5.330  15.942  0.00  0.00    +0.000 C 
ATOM     11  N   UNL     1       4.828   5.928  16.858  0.00  0.00    +0.000 N 
ATOM     12  H   UNL     1       4.680   6.920  16.726  0.00  0.00    +0.000 HD
BRANCH   9  13
ATOM     13  O   UNL     1       6.909   5.051  14.172  0.00  0.00    +0.000 OA
BRANCH  13  15
ATOM     14  C   UNL     1       6.059   3.470  12.585  0.00  0.00    +0.000 C 
ATOM     15  C   UNL     1       6.148   3.850  14.049  0.00  0.00    +0.000 C 
ENDBRANCH  13  15
ENDBRANCH   9  13
ENDBRANCH   1  11
BRANCH   5  16
ATOM     16  O   UNL     1       2.593   3.358  21.327  0.00  0.00    +0.000 OA
ATOM     17  C   UNL     1       1.304   2.774  21.340  0.00  0.00    +0.000 C 
ENDBRANCH   5  16
TORSDOF 4
ENDMDL
MODEL 8
REMARK VINA RESULT:      -6.0      1.928      3.373
REMARK  Name = 
REMARK  6 active torsions:
REMARK  status: ('A' for Active; 'I' for Inactive)
REMARK    1  A    between atoms: C_1  and  C_2
REMARK    2  A    between atoms: C_2  and  O_3
REMARK    3  A    between atoms: O_3  and  N_4
REMARK    4  A    between atoms: N_6  and  C_7
REMARK    5  A    between atoms: C_11  and  O_12
REMARK    6  A    between atoms: O_12  and  C_13
REMARK                            x       y       z     vdW  Elec       q    Type
REMARK                         _______ _______ _______ _____ _____    ______ ____
ROOT
ATOM      1  C   UNL     1       3.458   5.534  17.817  0.00  0.00    +0.000 A 
ATOM      2  C   UNL     1       2.892   6.181  18.909  0.00  0.00    +0.000 A 
ATOM      3  C   UNL     1       2.014   5.522  19.799  0.00  0.00    +0.000 A 
ATOM      4 CL   UNL     1       1.376   6.541  21.044  0.00  0.00    +0.000 Cl
ATOM      5  C   UNL     1       1.722   4.160  19.629  0.00  0.00    +0.000 A 
ATOM      6  C   UNL     1       2.332   3.506  18.540  0.00  0.00    +0.000 A 
ATOM      7 CL   UNL     1       2.079   1.812  18.245  0.00  0.00    +0.000 Cl
ATOM      8  C   UNL     1       3.179   4.179  17.645  0.00  0.00    +0.000 A 
ENDROOT
BRANCH   1  11
ATOM      9  N   UNL     1       6.453   6.924  16.236  0.00  0.00    +0.000 NA
ATOM     10  C   UNL     1       5.698   6.331  17.106  0.00  0.00    +0.000 C 
ATOM     11  N   UNL     1       4.358   6.162  16.942  0.00  0.00    +0.000 N 
ATOM     12  H   UNL     1       3.972   6.551  16.092  0.00  0.00    +0.000 HD
BRANCH   9  13
ATOM     13  O   UNL     1       7.782   6.891  16.687  0.00  0.00    +0.000 OA
BRANCH  13  15
ATOM     14  C   UNL     1       8.189   8.902  17.924  0.00  0.00    +0.000 C 
ATOM     15  C   UNL     1       7.821   7.435  18.007  0.00  0.00    +0.000 C 
ENDBRANCH  13  15
ENDBRANCH   9  13
ENDBRANCH   1  11
BRANCH   5  16
ATOM     16  O   UNL     1       0.918   3.343  20.377  0.00  0.00    +0.000 OA
ATOM     17  C   UNL     1       1.359   2.766  21.591  0.00  0.00    +0.000 C 
ENDBRANCH   5  16
TORSDOF 4
ENDMDL
MODEL 9
REMARK VINA RESULT:      -5.8      2.772      3.748
REMARK  Name = 
REMARK  6 active torsions:
REMARK  status: ('A' for Active; 'I' for Inactive)
REMARK    1  A    between atoms: C_1  and  C_2
REMARK    2  A    between atoms: C_2  and  O_3
REMARK    3  A    between atoms: O_3  and  N_4
REMARK    4  A    between atoms: N_6  and  C_7
REMARK    5  A    between atoms: C_11  and  O_12
REMARK    6  A    between atoms: O_12  and  C_13
REMARK                            x       y       z     vdW  Elec       q    Type
REMARK                         _______ _______ _______ _____ _____    ______ ____
ROOT
ATOM      1  C   UNL     1       6.119   4.440  15.846  0.00  0.00    +0.000 A 
ATOM      2  C   UNL     1       6.844   4.874  16.950  0.00  0.00    +0.000 A 
ATOM      3  C   UNL     1       6.258   4.999  18.230  0.00  0.00    +0.000 A 
ATOM      4 CL   UNL     1       7.330   5.623  19.437  0.00  0.00    +0.000 Cl
ATOM      5  C   UNL     1       4.918   4.638  18.434  0.00  0.00    +0.000 A 
ATOM      6  C   UNL     1       4.204   4.165  17.316  0.00  0.00    +0.000 A 
ATOM      7 CL   UNL     1       2.549   3.651  17.449  0.00  0.00    +0.000 Cl
ATOM      8  C   UNL     1       4.788   4.072  16.042  0.00  0.00    +0.000 A 
ENDROOT
BRANCH   1  11
ATOM      9  N   UNL     1       6.727   3.630  12.328  0.00  0.00    +0.000 NA
ATOM     10  C   UNL     1       6.118   3.735  13.467  0.00  0.00    +0.000 C 
ATOM     11  N   UNL     1       6.691   4.277  14.575  0.00  0.00    +0.000 N 
ATOM     12  H   UNL     1       7.649   4.583  14.462  0.00  0.00    +0.000 HD
BRANCH   9  13
ATOM     13  O   UNL     1       5.846   3.071  11.389  0.00  0.00    +0.000 OA
BRANCH  13  15
ATOM     14  C   UNL     1       3.575   3.155  10.629  0.00  0.00    +0.000 C 
ATOM     15  C   UNL     1       4.510   3.356  11.804  0.00  0.00    +0.000 C 
ENDBRANCH  13  15
ENDBRANCH   9  13
ENDBRANCH   1  11
BRANCH   5  16
ATOM     16  O   UNL     1       4.175   4.672  19.583  0.00  0.00    +0.000 OA
ATOM     17  C   UNL     1       3.329   5.762  19.897  0.00  0.00    +0.000 C 
ENDBRANCH   5  16
TORSDOF 4
ENDMDL
