MODEL 1
REMARK VINA RESULT:      -8.6      0.000      0.000
REMARK  Name = 
REMARK  6 active torsions:
REMARK  status: ('A' for Active; 'I' for Inactive)
REMARK    1  A    between atoms: C_1  and  O_2
REMARK    2  A    between atoms: O_2  and  C_3
REMARK    3  A    between atoms: C_6  and  S_7
REMARK    4  A    between atoms: S_7  and  N_10
REMARK    5  A    between atoms: C_17  and  N_18
REMARK    6  A    between atoms: N_18  and  C_19
REMARK                            x       y       z     vdW  Elec       q    Type
REMARK                         _______ _______ _______ _____ _____    ______ ____
ROOT
ATOM      1  N   UNL     1       4.396   3.904  18.447  0.00  0.00    +0.000 N 
ATOM      2  C   UNL     1       4.728   2.433  18.613  0.00  0.00    +0.000 C 
ATOM      3  C   UNL     1       3.406   1.689  18.468  0.00  0.00    +0.000 C 
ATOM      4  C   UNL     1       2.518   2.682  19.133  0.00  0.00    +0.000 A 
ATOM      5  C   UNL     1       1.519   2.296  20.033  0.00  0.00    +0.000 A 
ATOM      6  C   UNL     1       0.942   3.263  20.825  0.00  0.00    +0.000 A 
ATOM      7  C   UNL     1       1.340   4.588  20.654  0.00  0.00    +0.000 A 
ATOM      8  C   UNL     1       2.378   5.000  19.741  0.00  0.00    +0.000 A 
ATOM      9  C   UNL     1       2.998   4.007  18.949  0.00  0.00    +0.000 A 
ENDROOT
BRANCH   1  10
ATOM     10  S   UNL     1       5.024   4.538  16.975  0.00  0.00    +0.000 S 
ATOM     11  O   UNL     1       4.045   5.246  16.196  0.00  0.00    +0.000 OA
ATOM     12  O   UNL     1       5.776   3.466  16.347  0.00  0.00    +0.000 OA
BRANCH  10  16
ATOM     13  C   UNL     1       8.144   7.679  18.431  0.00  0.00    +0.000 A 
ATOM     14  C   UNL     1       8.101   6.420  19.020  0.00  0.00    +0.000 A 
ATOM     15  C   UNL     1       7.220   5.418  18.560  0.00  0.00    +0.000 A 
ATOM     16  C   UNL     1       6.315   5.705  17.523  0.00  0.00    +0.000 A 
ATOM     17  C   UNL     1       6.422   6.940  16.874  0.00  0.00    +0.000 A 
ATOM     18  C   UNL     1       7.320   7.930  17.328  0.00  0.00    +0.000 A 
BRANCH  13  20
ATOM     19  C   UNL     1       8.917   9.952  18.656  0.00  0.00    +0.000 C 
ATOM     20  O   UNL     1       8.986   8.580  19.034  0.00  0.00    +0.000 OA
ENDBRANCH  13  20
ENDBRANCH  10  16
ENDBRANCH   1  10
BRANCH   8  21
ATOM     21  N   UNL     1       2.820   6.337  19.954  0.00  0.00    +0.000 N 
ATOM     22  H   UNL     1       2.760   6.479  20.969  0.00  0.00    +0.000 HD
BRANCH  21  23
ATOM     23  C   UNL     1       2.281   7.564  19.485  0.00  0.00    +0.000 A 
ATOM     24  C   UNL     1       2.317   7.996  18.159  0.00  0.00    +0.000 A 
ATOM     25  C   UNL     1       1.627   9.158  17.782  0.00  0.00    +0.000 A 
ATOM     26  C   UNL     1       0.892   9.873  18.725  0.00  0.00    +0.000 A 
ATOM     27  F   UNL     1       0.219  10.970  18.353  0.00  0.00    +0.000 F 
ATOM     28  C   UNL     1       0.834   9.436  20.036  0.00  0.00    +0.000 A 
ATOM     29  F   UNL     1       0.088  10.088  20.939  0.00  0.00    +0.000 F 
ATOM     30  C   UNL     1       1.515   8.290  20.419  0.00  0.00    +0.000 A 
ENDBRANCH  21  23
ENDBRANCH   8  21
TORSDOF 5
ENDMDL
MODEL 2
REMARK VINA RESULT:      -8.3      0.526      1.217
REMARK  Name = 
REMARK  6 active torsions:
REMARK  status: ('A' for Active; 'I' for Inactive)
REMARK    1  A    between atoms: C_1  and  O_2
REMARK    2  A    between atoms: O_2  and  C_3
REMARK    3  A    between atoms: C_6  and  S_7
REMARK    4  A    between atoms: S_7  and  N_10
REMARK    5  A    between atoms: C_17  and  N_18
REMARK    6  A    between atoms: N_18  and  C_19
REMARK                            x       y       z     vdW  Elec       q    Type
REMARK                         _______ _______ _______ _____ _____    ______ ____
ROOT
ATOM      1  N   UNL     1       4.450   3.849  18.514  0.00  0.00    +0.000 N 
ATOM      2  C   UNL     1       4.814   2.390  18.714  0.00  0.00    +0.000 C 
ATOM      3  C   UNL     1       3.508   1.615  18.592  0.00  0.00    +0.000 C 
ATOM      4  C   UNL     1       2.600   2.605  19.235  0.00  0.00    +0.000 A 
ATOM      5  C   UNL     1       1.613   2.219  20.148  0.00  0.00    +0.000 A 
ATOM      6  C   UNL     1       1.017   3.193  20.918  0.00  0.00    +0.000 A 
ATOM      7  C   UNL     1       1.386   4.521  20.713  0.00  0.00    +0.000 A 
ATOM      8  C   UNL     1       2.413   4.933  19.788  0.00  0.00    +0.000 A 
ATOM      9  C   UNL     1       3.052   3.934  19.018  0.00  0.00    +0.000 A 
ENDROOT
BRANCH   1  10
ATOM     10  S   UNL     1       5.060   4.460  17.024  0.00  0.00    +0.000 S 
ATOM     11  O   UNL     1       4.061   5.117  16.226  0.00  0.00    +0.000 OA
ATOM     12  O   UNL     1       5.844   3.393  16.426  0.00  0.00    +0.000 OA
BRANCH  10  16
ATOM     13  C   UNL     1       8.087   7.723  18.410  0.00  0.00    +0.000 A 
ATOM     14  C   UNL     1       8.138   6.449  18.966  0.00  0.00    +0.000 A 
ATOM     15  C   UNL     1       7.286   5.414  18.523  0.00  0.00    +0.000 A 
ATOM     16  C   UNL     1       6.316   5.679  17.540  0.00  0.00    +0.000 A 
ATOM     17  C   UNL     1       6.327   6.933  16.920  0.00  0.00    +0.000 A 
ATOM     18  C   UNL     1       7.196   7.957  17.356  0.00  0.00    +0.000 A 
BRANCH  13  20
ATOM     19  C   UNL     1       8.900   9.990  18.509  0.00  0.00    +0.000 C 
ATOM     20  O   UNL     1       8.910   8.651  18.995  0.00  0.00    +0.000 OA
ENDBRANCH  13  20
ENDBRANCH  10  16
ENDBRANCH   1  10
BRANCH   8  21
ATOM     21  N   UNL     1       2.826   6.284  19.966  0.00  0.00    +0.000 N 
ATOM     22  H   UNL     1       3.126   6.344  20.946  0.00  0.00    +0.000 HD
BRANCH  21  23
ATOM     23  C   UNL     1       2.088   7.491  19.844  0.00  0.00    +0.000 A 
ATOM     24  C   UNL     1       1.404   8.115  20.886  0.00  0.00    +0.000 A 
ATOM     25  C   UNL     1       0.828   9.379  20.688  0.00  0.00    +0.000 A 
ATOM     26  C   UNL     1       0.952  10.020  19.459  0.00  0.00    +0.000 A 
ATOM     27  F   UNL     1       0.417  11.236  19.283  0.00  0.00    +0.000 F 
ATOM     28  C   UNL     1       1.650   9.416  18.429  0.00  0.00    +0.000 A 
ATOM     29  F   UNL     1       1.820  10.047  17.258  0.00  0.00    +0.000 F 
ATOM     30  C   UNL     1       2.221   8.165  18.613  0.00  0.00    +0.000 A 
ENDBRANCH  21  23
ENDBRANCH   8  21
TORSDOF 5
ENDMDL
MODEL 3
REMARK VINA RESULT:      -8.1      2.211      3.418
REMARK  Name = 
REMARK  6 active torsions:
REMARK  status: ('A' for Active; 'I' for Inactive)
REMARK    1  A    between atoms: C_1  and  O_2
REMARK    2  A    between atoms: O_2  and  C_3
REMARK    3  A    between atoms: C_6  and  S_7
REMARK    4  A    between atoms: S_7  and  N_10
REMARK    5  A    between atoms: C_17  and  N_18
REMARK    6  A    between atoms: N_18  and  C_19
REMARK                            x       y       z     vdW  Elec       q    Type
REMARK                         _______ _______ _______ _____ _____    ______ ____
ROOT
ATOM      1  N   UNL     1       4.516   4.331  19.679  0.00  0.00    +0.000 N 
ATOM      2  C   UNL     1       4.996   2.898  19.545  0.00  0.00    +0.000 C 
ATOM      3  C   UNL     1       4.088   2.250  18.507  0.00  0.00    +0.000 C 
ATOM      4  C   UNL     1       2.816   2.939  18.863  0.00  0.00    +0.000 A 
ATOM      5  C   UNL     1       1.598   2.254  18.934  0.00  0.00    +0.000 A 
ATOM      6  C   UNL     1       0.533   2.875  19.546  0.00  0.00    +0.000 A 
ATOM      7  C   UNL     1       0.703   4.175  20.018  0.00  0.00    +0.000 A 
ATOM      8  C   UNL     1       1.955   4.888  19.967  0.00  0.00    +0.000 A 
ATOM      9  C   UNL     1       3.062   4.244  19.368  0.00  0.00    +0.000 A 
ENDROOT
BRANCH   1  10
ATOM     10  S   UNL     1       5.654   5.449  19.032  0.00  0.00    +0.000 S 
ATOM     11  O   UNL     1       6.918   5.435  19.714  0.00  0.00    +0.000 OA
ATOM     12  O   UNL     1       4.954   6.714  18.881  0.00  0.00    +0.000 OA
BRANCH  10  16
ATOM     13  C   UNL     1       6.185   4.220  14.568  0.00  0.00    +0.000 A 
ATOM     14  C   UNL     1       7.264   4.141  15.441  0.00  0.00    +0.000 A 
ATOM     15  C   UNL     1       7.126   4.436  16.816  0.00  0.00    +0.000 A 
ATOM     16  C   UNL     1       5.889   4.881  17.315  0.00  0.00    +0.000 A 
ATOM     17  C   UNL     1       4.786   4.874  16.454  0.00  0.00    +0.000 A 
ATOM     18  C   UNL     1       4.929   4.558  15.085  0.00  0.00    +0.000 A 
BRANCH  13  20
ATOM     19  C   UNL     1       5.507   3.363  12.418  0.00  0.00    +0.000 C 
ATOM     20  O   UNL     1       6.481   3.990  13.248  0.00  0.00    +0.000 OA
ENDBRANCH  13  20
ENDBRANCH  10  16
ENDBRANCH   1  10
BRANCH   8  21
ATOM     21  N   UNL     1       1.970   6.064  20.770  0.00  0.00    +0.000 N 
ATOM     22  H   UNL     1       1.357   5.852  21.565  0.00  0.00    +0.000 HD
BRANCH  21  23
ATOM     23  C   UNL     1       1.553   7.387  20.464  0.00  0.00    +0.000 A 
ATOM     24  C   UNL     1       1.068   8.305  21.396  0.00  0.00    +0.000 A 
ATOM     25  C   UNL     1       0.820   9.630  21.009  0.00  0.00    +0.000 A 
ATOM     26  C   UNL     1       1.073  10.037  19.702  0.00  0.00    +0.000 A 
ATOM     27  F   UNL     1       0.853  11.310  19.346  0.00  0.00    +0.000 F 
ATOM     28  C   UNL     1       1.577   9.137  18.780  0.00  0.00    +0.000 A 
ATOM     29  F   UNL     1       1.872   9.532  17.534  0.00  0.00    +0.000 F 
ATOM     30  C   UNL     1       1.822   7.823  19.152  0.00  0.00    +0.000 A 
ENDBRANCH  21  23
ENDBRANCH   8  21
TORSDOF 5
ENDMDL
MODEL 4
REMARK VINA RESULT:      -8.0      2.256      3.472
REMARK  Name = 
REMARK  6 active torsions:
REMARK  status: ('A' for Active; 'I' for Inactive)
REMARK    1  A    between atoms: C_1  and  O_2
REMARK    2  A    between atoms: O_2  and  C_3
REMARK    3  A    between atoms: C_6  and  S_7
REMARK    4  A    between atoms: S_7  and  N_10
REMARK    5  A    between atoms: C_17  and  N_18
REMARK    6  A    between atoms: N_18  and  C_19
REMARK                            x       y       z     vdW  Elec       q    Type
REMARK                         _______ _______ _______ _____ _____    ______ ____
ROOT
ATOM      1  N   UNL     1       4.609   5.044  18.872  0.00  0.00    +0.000 N 
ATOM      2  C   UNL     1       5.170   3.649  18.669  0.00  0.00    +0.000 C 
ATOM      3  C   UNL     1       4.073   2.857  17.967  0.00  0.00    +0.000 C 
ATOM      4  C   UNL     1       2.893   3.464  18.643  0.00  0.00    +0.000 A 
ATOM      5  C   UNL     1       1.818   2.690  19.093  0.00  0.00    +0.000 A 
ATOM      6  C   UNL     1       0.914   3.263  19.958  0.00  0.00    +0.000 A 
ATOM      7  C   UNL     1       1.082   4.603  20.303  0.00  0.00    +0.000 A 
ATOM      8  C   UNL     1       2.193   5.410  19.861  0.00  0.00    +0.000 A 
ATOM      9  C   UNL     1       3.142   4.817  18.998  0.00  0.00    +0.000 A 
ENDROOT
BRANCH   1  10
ATOM     10  S   UNL     1       5.401   6.202  17.876  0.00  0.00    +0.000 S 
ATOM     11  O   UNL     1       6.631   6.690  18.437  0.00  0.00    +0.000 OA
ATOM     12  O   UNL     1       4.389   7.161  17.467  0.00  0.00    +0.000 OA
BRANCH  10  16
ATOM     13  C   UNL     1       6.210   4.022  13.836  0.00  0.00    +0.000 A 
ATOM     14  C   UNL     1       7.275   4.381  14.655  0.00  0.00    +0.000 A 
ATOM     15  C   UNL     1       7.069   4.978  15.918  0.00  0.00    +0.000 A 
ATOM     16  C   UNL     1       5.763   5.280  16.344  0.00  0.00    +0.000 A 
ATOM     17  C   UNL     1       4.692   4.837  15.560  0.00  0.00    +0.000 A 
ATOM     18  C   UNL     1       4.907   4.223  14.307  0.00  0.00    +0.000 A 
BRANCH  13  20
ATOM     19  C   UNL     1       5.587   2.823  11.839  0.00  0.00    +0.000 C 
ATOM     20  O   UNL     1       6.559   3.532  12.603  0.00  0.00    +0.000 OA
ENDBRANCH  13  20
ENDBRANCH  10  16
ENDBRANCH   1  10
BRANCH   8  21
ATOM     21  N   UNL     1       2.319   6.637  20.573  0.00  0.00    +0.000 N 
ATOM     22  H   UNL     1       1.965   6.436  21.516  0.00  0.00    +0.000 HD
BRANCH  21  23
ATOM     23  C   UNL     1       1.718   7.901  20.332  0.00  0.00    +0.000 A 
ATOM     24  C   UNL     1       1.690   8.548  19.097  0.00  0.00    +0.000 A 
ATOM     25  C   UNL     1       0.944   9.726  18.940  0.00  0.00    +0.000 A 
ATOM     26  C   UNL     1       0.217  10.242  20.009  0.00  0.00    +0.000 A 
ATOM     27  F   UNL     1      -0.509  11.356  19.846  0.00  0.00    +0.000 F 
ATOM     28  C   UNL     1       0.222   9.591  21.230  0.00  0.00    +0.000 A 
ATOM     29  F   UNL     1      -0.515  10.052  22.250  0.00  0.00    +0.000 F 
ATOM     30  C   UNL     1       0.959   8.428  21.397  0.00  0.00    +0.000 A 
ENDBRANCH  21  23
ENDBRANCH   8  21
TORSDOF 5
ENDMDL
MODEL 5
REMARK VINA RESULT:      -7.9      2.281      3.705
REMARK  Name = 
REMARK  6 active torsions:
REMARK  status: ('A' for Active; 'I' for Inactive)
REMARK    1  A    between atoms: C_1  and  O_2
REMARK    2  A    between atoms: O_2  and  C_3
REMARK    3  A    between atoms: C_6  and  S_7
REMARK    4  A    between atoms: S_7  and  N_10
REMARK    5  A    between atoms: C_17  and  N_18
REMARK    6  A    between atoms: N_18  and  C_19
REMARK                            x       y       z     vdW  Elec       q    Type
REMARK                         _______ _______ _______ _____ _____    ______ ____
ROOT
ATOM      1  N   UNL     1       4.669   4.988  18.676  0.00  0.00    +0.000 N 
ATOM      2  C   UNL     1       5.231   3.611  18.379  0.00  0.00    +0.000 C 
ATOM      3  C   UNL     1       4.136   2.869  17.622  0.00  0.00    +0.000 C 
ATOM      4  C   UNL     1       2.955   3.426  18.337  0.00  0.00    +0.000 A 
ATOM      5  C   UNL     1       1.880   2.622  18.730  0.00  0.00    +0.000 A 
ATOM      6  C   UNL     1       0.975   3.133  19.632  0.00  0.00    +0.000 A 
ATOM      7  C   UNL     1       1.141   4.447  20.069  0.00  0.00    +0.000 A 
ATOM      8  C   UNL     1       2.251   5.283  19.685  0.00  0.00    +0.000 A 
ATOM      9  C   UNL     1       3.202   4.752  18.785  0.00  0.00    +0.000 A 
ENDROOT
BRANCH   1  10
ATOM     10  S   UNL     1       5.462   6.213  17.764  0.00  0.00    +0.000 S 
ATOM     11  O   UNL     1       6.718   6.622  18.328  0.00  0.00    +0.000 OA
ATOM     12  O   UNL     1       4.463   7.227  17.472  0.00  0.00    +0.000 OA
BRANCH  10  16
ATOM     13  C   UNL     1       6.329   4.012  13.748  0.00  0.00    +0.000 A 
ATOM     14  C   UNL     1       5.019   4.309  14.106  0.00  0.00    +0.000 A 
ATOM     15  C   UNL     1       4.719   5.037  15.279  0.00  0.00    +0.000 A 
ATOM     16  C   UNL     1       5.757   5.424  16.146  0.00  0.00    +0.000 A 
ATOM     17  C   UNL     1       7.077   5.203  15.739  0.00  0.00    +0.000 A 
ATOM     18  C   UNL     1       7.368   4.491  14.554  0.00  0.00    +0.000 A 
BRANCH  13  20
ATOM     19  C   UNL     1       5.312   2.905  11.863  0.00  0.00    +0.000 C 
ATOM     20  O   UNL     1       6.468   3.227  12.632  0.00  0.00    +0.000 OA
ENDBRANCH  13  20
ENDBRANCH  10  16
ENDBRANCH   1  10
BRANCH   8  21
ATOM     21  N   UNL     1       2.375   6.458  20.480  0.00  0.00    +0.000 N 
ATOM     22  H   UNL     1       2.106   6.169  21.428  0.00  0.00    +0.000 HD
BRANCH  21  23
ATOM     23  C   UNL     1       1.699   7.703  20.385  0.00  0.00    +0.000 A 
ATOM     24  C   UNL     1       1.125   8.382  21.460  0.00  0.00    +0.000 A 
ATOM     25  C   UNL     1       0.608   9.674  21.277  0.00  0.00    +0.000 A 
ATOM     26  C   UNL     1       0.681  10.287  20.029  0.00  0.00    +0.000 A 
ATOM     27  F   UNL     1       0.203  11.528  19.866  0.00  0.00    +0.000 F 
ATOM     28  C   UNL     1       1.270   9.627  18.965  0.00  0.00    +0.000 A 
ATOM     29  F   UNL     1       1.392  10.229  17.774  0.00  0.00    +0.000 F 
ATOM     30  C   UNL     1       1.782   8.349  19.135  0.00  0.00    +0.000 A 
ENDBRANCH  21  23
ENDBRANCH   8  21
TORSDOF 5
ENDMDL
MODEL 6
REMARK VINA RESULT:      -7.9      2.270      3.690
REMARK  Name = 
REMARK  6 active torsions:
REMARK  status: ('A' for Active; 'I' for Inactive)
REMARK    1  A    between atoms: C_1  and  O_2
REMARK    2  A    between atoms: O_2  and  C_3
REMARK    3  A    between atoms: C_6  and  S_7
REMARK    4  A    between atoms: S_7  and  N_10
REMARK    5  A    between atoms: C_17  and  N_18
REMARK    6  A    between atoms: N_18  and  C_19
REMARK                            x       y       z     vdW  Elec       q    Type
REMARK                         _______ _______ _______ _____ _____    ______ ____
ROOT
ATOM      1  N   UNL     1       4.747   5.305  18.887  0.00  0.00    +0.000 N 
ATOM      2  C   UNL     1       5.341   3.912  18.785  0.00  0.00    +0.000 C 
ATOM      3  C   UNL     1       4.259   3.044  18.154  0.00  0.00    +0.000 C 
ATOM      4  C   UNL     1       3.069   3.672  18.792  0.00  0.00    +0.000 A 
ATOM      5  C   UNL     1       2.016   2.908  19.307  0.00  0.00    +0.000 A 
ATOM      6  C   UNL     1       1.104   3.524  20.135  0.00  0.00    +0.000 A 
ATOM      7  C   UNL     1       1.242   4.890  20.377  0.00  0.00    +0.000 A 
ATOM      8  C   UNL     1       2.329   5.687  19.866  0.00  0.00    +0.000 A 
ATOM      9  C   UNL     1       3.288   5.053  19.042  0.00  0.00    +0.000 A 
ENDROOT
BRANCH   1  10
ATOM     10  S   UNL     1       5.505   6.403  17.800  0.00  0.00    +0.000 S 
ATOM     11  O   UNL     1       6.756   6.916  18.287  0.00  0.00    +0.000 OA
ATOM     12  O   UNL     1       4.481   7.342  17.376  0.00  0.00    +0.000 OA
BRANCH  10  16
ATOM     13  C   UNL     1       6.172   4.008  13.857  0.00  0.00    +0.000 A 
ATOM     14  C   UNL     1       7.259   4.345  14.656  0.00  0.00    +0.000 A 
ATOM     15  C   UNL     1       7.093   5.007  15.892  0.00  0.00    +0.000 A 
ATOM     16  C   UNL     1       5.807   5.396  16.309  0.00  0.00    +0.000 A 
ATOM     17  C   UNL     1       4.709   4.978  15.549  0.00  0.00    +0.000 A 
ATOM     18  C   UNL     1       4.884   4.298  14.323  0.00  0.00    +0.000 A 
BRANCH  13  20
ATOM     19  C   UNL     1       5.460   2.808  11.891  0.00  0.00    +0.000 C 
ATOM     20  O   UNL     1       6.486   3.445  12.646  0.00  0.00    +0.000 OA
ENDBRANCH  13  20
ENDBRANCH  10  16
ENDBRANCH   1  10
BRANCH   8  21
ATOM     21  N   UNL     1       2.431   6.967  20.482  0.00  0.00    +0.000 N 
ATOM     22  H   UNL     1       2.547   6.772  21.483  0.00  0.00    +0.000 HD
BRANCH  21  23
ATOM     23  C   UNL     1       1.497   8.036  20.531  0.00  0.00    +0.000 A 
ATOM     24  C   UNL     1       0.794   8.429  21.670  0.00  0.00    +0.000 A 
ATOM     25  C   UNL     1       0.005   9.588  21.641  0.00  0.00    +0.000 A 
ATOM     26  C   UNL     1      -0.066  10.358  20.483  0.00  0.00    +0.000 A 
ATOM     27  F   UNL     1      -0.805  11.475  20.469  0.00  0.00    +0.000 F 
ATOM     28  C   UNL     1       0.648   9.986  19.358  0.00  0.00    +0.000 A 
ATOM     29  F   UNL     1       0.627  10.748  18.255  0.00  0.00    +0.000 F 
ATOM     30  C   UNL     1       1.429   8.840  19.375  0.00  0.00    +0.000 A 
ENDBRANCH  21  23
ENDBRANCH   8  21
TORSDOF 5
ENDMDL
MODEL 7
REMARK VINA RESULT:      -7.8      2.438      3.714
REMARK  Name = 
REMARK  6 active torsions:
REMARK  status: ('A' for Active; 'I' for Inactive)
REMARK    1  A    between atoms: C_1  and  O_2
REMARK    2  A    between atoms: O_2  and  C_3
REMARK    3  A    between atoms: C_6  and  S_7
REMARK    4  A    between atoms: S_7  and  N_10
REMARK    5  A    between atoms: C_17  and  N_18
REMARK    6  A    between atoms: N_18  and  C_19
REMARK                            x       y       z     vdW  Elec       q    Type
REMARK                         _______ _______ _______ _____ _____    ______ ____
ROOT
ATOM      1  N   UNL     1       5.167   4.782  18.823  0.00  0.00    +0.000 N 
ATOM      2  C   UNL     1       5.293   3.574  19.732  0.00  0.00    +0.000 C 
ATOM      3  C   UNL     1       4.554   2.444  19.025  0.00  0.00    +0.000 C 
ATOM      4  C   UNL     1       3.448   3.241  18.427  0.00  0.00    +0.000 A 
ATOM      5  C   UNL     1       2.123   2.792  18.439  0.00  0.00    +0.000 A 
ATOM      6  C   UNL     1       1.124   3.692  18.142  0.00  0.00    +0.000 A 
ATOM      7  C   UNL     1       1.484   4.993  17.791  0.00  0.00    +0.000 A 
ATOM      8  C   UNL     1       2.843   5.474  17.788  0.00  0.00    +0.000 A 
ATOM      9  C   UNL     1       3.870   4.563  18.125  0.00  0.00    +0.000 A 
ENDROOT
BRANCH   1  10
ATOM     10  S   UNL     1       6.676   5.205  18.110  0.00  0.00    +0.000 S 
ATOM     11  O   UNL     1       7.786   4.464  18.643  0.00  0.00    +0.000 OA
ATOM     12  O   UNL     1       6.741   6.656  18.103  0.00  0.00    +0.000 OA
BRANCH  10  16
ATOM     13  C   UNL     1       6.348   4.037  13.609  0.00  0.00    +0.000 A 
ATOM     14  C   UNL     1       5.490   3.460  14.539  0.00  0.00    +0.000 A 
ATOM     15  C   UNL     1       5.510   3.839  15.899  0.00  0.00    +0.000 A 
ATOM     16  C   UNL     1       6.456   4.777  16.350  0.00  0.00    +0.000 A 
ATOM     17  C   UNL     1       7.256   5.420  15.399  0.00  0.00    +0.000 A 
ATOM     18  C   UNL     1       7.216   5.049  14.037  0.00  0.00    +0.000 A 
BRANCH  13  20
ATOM     19  C   UNL     1       5.018   3.078  11.842  0.00  0.00    +0.000 C 
ATOM     20  O   UNL     1       6.279   3.512  12.344  0.00  0.00    +0.000 OA
ENDBRANCH  13  20
ENDBRANCH  10  16
ENDBRANCH   1  10
BRANCH   8  21
ATOM     21  N   UNL     1       2.941   6.891  17.696  0.00  0.00    +0.000 N 
ATOM     22  H   UNL     1       3.920   7.106  17.919  0.00  0.00    +0.000 HD
BRANCH  21  23
ATOM     23  C   UNL     1       2.276   7.905  18.436  0.00  0.00    +0.000 A 
ATOM     24  C   UNL     1       1.661   9.026  17.879  0.00  0.00    +0.000 A 
ATOM     25  C   UNL     1       0.909   9.889  18.690  0.00  0.00    +0.000 A 
ATOM     26  C   UNL     1       0.761   9.620  20.049  0.00  0.00    +0.000 A 
ATOM     27  F   UNL     1       0.025  10.437  20.813  0.00  0.00    +0.000 F 
ATOM     28  C   UNL     1       1.349   8.497  20.602  0.00  0.00    +0.000 A 
ATOM     29  F   UNL     1       1.169   8.202  21.897  0.00  0.00    +0.000 F 
ATOM     30  C   UNL     1       2.097   7.639  19.809  0.00  0.00    +0.000 A 
ENDBRANCH  21  23
ENDBRANCH   8  21
TORSDOF 5
ENDMDL
MODEL 8
REMARK VINA RESULT:      -7.4      2.205      3.244
REMARK  Name = 
REMARK  6 active torsions:
REMARK  status: ('A' for Active; 'I' for Inactive)
REMARK    1  A    between atoms: C_1  and  O_2
REMARK    2  A    between atoms: O_2  and  C_3
REMARK    3  A    between atoms: C_6  and  S_7
REMARK    4  A    between atoms: S_7  and  N_10
REMARK    5  A    between atoms: C_17  and  N_18
REMARK    6  A    between atoms: N_18  and  C_19
REMARK                            x       y       z     vdW  Elec       q    Type
REMARK                         _______ _______ _______ _____ _____    ______ ____
ROOT
ATOM      1  N   UNL     1       4.702   4.230  19.586  0.00  0.00    +0.000 N 
ATOM      2  C   UNL     1       5.077   2.763  19.681  0.00  0.00    +0.000 C 
ATOM      3  C   UNL     1       4.134   2.031  18.734  0.00  0.00    +0.000 C 
ATOM      4  C   UNL     1       2.914   2.855  18.954  0.00  0.00    +0.000 A 
ATOM      5  C   UNL     1       1.648   2.278  19.101  0.00  0.00    +0.000 A 
ATOM      6  C   UNL     1       0.625   3.058  19.590  0.00  0.00    +0.000 A 
ATOM      7  C   UNL     1       0.885   4.400  19.864  0.00  0.00    +0.000 A 
ATOM      8  C   UNL     1       2.187   5.006  19.732  0.00  0.00    +0.000 A 
ATOM      9  C   UNL     1       3.249   4.201  19.262  0.00  0.00    +0.000 A 
ENDROOT
BRANCH   1  10
ATOM     10  S   UNL     1       5.926   5.153  18.802  0.00  0.00    +0.000 S 
ATOM     11  O   UNL     1       7.259   4.768  19.177  0.00  0.00    +0.000 OA
ATOM     12  O   UNL     1       5.539   6.548  18.927  0.00  0.00    +0.000 OA
BRANCH  10  16
ATOM     13  C   UNL     1       5.412   4.431  14.226  0.00  0.00    +0.000 A 
ATOM     14  C   UNL     1       5.961   3.436  15.028  0.00  0.00    +0.000 A 
ATOM     15  C   UNL     1       6.068   3.588  16.428  0.00  0.00    +0.000 A 
ATOM     16  C   UNL     1       5.670   4.794  17.032  0.00  0.00    +0.000 A 
ATOM     17  C   UNL     1       5.037   5.756  16.238  0.00  0.00    +0.000 A 
ATOM     18  C   UNL     1       4.917   5.587  14.841  0.00  0.00    +0.000 A 
BRANCH  13  20
ATOM     19  C   UNL     1       6.488   3.363  12.352  0.00  0.00    +0.000 C 
ATOM     20  O   UNL     1       5.450   4.184  12.877  0.00  0.00    +0.000 OA
ENDBRANCH  13  20
ENDBRANCH  10  16
ENDBRANCH   1  10
BRANCH   8  21
ATOM     21  N   UNL     1       2.280   6.286  20.348  0.00  0.00    +0.000 N 
ATOM     22  H   UNL     1       1.611   6.258  21.126  0.00  0.00    +0.000 HD
BRANCH  21  23
ATOM     23  C   UNL     1       2.013   7.578  19.821  0.00  0.00    +0.000 A 
ATOM     24  C   UNL     1       2.303   7.983  18.518  0.00  0.00    +0.000 A 
ATOM     25  C   UNL     1       1.865   9.234  18.060  0.00  0.00    +0.000 A 
ATOM     26  C   UNL     1       1.125  10.067  18.896  0.00  0.00    +0.000 A 
ATOM     27  F   UNL     1       0.693  11.251  18.444  0.00  0.00    +0.000 F 
ATOM     28  C   UNL     1       0.814   9.660  20.181  0.00  0.00    +0.000 A 
ATOM     29  F   UNL     1       0.060  10.432  20.976  0.00  0.00    +0.000 F 
ATOM     30  C   UNL     1       1.245   8.426  20.645  0.00  0.00    +0.000 A 
ENDBRANCH  21  23
ENDBRANCH   8  21
TORSDOF 5
ENDMDL
MODEL 9
REMARK VINA RESULT:      -7.4      5.956      9.473
REMARK  Name = 
REMARK  6 active torsions:
REMARK  status: ('A' for Active; 'I' for Inactive)
REMARK    1  A    between atoms: C_1  and  O_2
REMARK    2  A    between atoms: O_2  and  C_3
REMARK    3  A    between atoms: C_6  and  S_7
REMARK    4  A    between atoms: S_7  and  N_10
REMARK    5  A    between atoms: C_17  and  N_18
REMARK    6  A    between atoms: N_18  and  C_19
REMARK                            x       y       z     vdW  Elec       q    Type
REMARK                         _______ _______ _______ _____ _____    ______ ____
ROOT
ATOM      1  N   UNL     1      -0.254  10.228  20.954  0.00  0.00    +0.000 N 
ATOM      2  C   UNL     1      -0.521   8.870  21.576  0.00  0.00    +0.000 C 
ATOM      3  C   UNL     1       0.822   8.150  21.595  0.00  0.00    +0.000 C 
ATOM      4  C   UNL     1       1.369   8.665  20.309  0.00  0.00    +0.000 A 
ATOM      5  C   UNL     1       2.035   7.834  19.402  0.00  0.00    +0.000 A 
ATOM      6  C   UNL     1       2.249   8.298  18.124  0.00  0.00    +0.000 A 
ATOM      7  C   UNL     1       1.841   9.593  17.809  0.00  0.00    +0.000 A 
ATOM      8  C   UNL     1       1.140  10.456  18.728  0.00  0.00    +0.000 A 
ATOM      9  C   UNL     1       0.887   9.973  20.032  0.00  0.00    +0.000 A 
ENDROOT
BRANCH   1  10
ATOM     10  S   UNL     1      -0.398  11.499  22.106  0.00  0.00    +0.000 S 
ATOM     11  O   UNL     1       0.544  12.564  21.901  0.00  0.00    +0.000 OA
ATOM     12  O   UNL     1      -0.469  10.869  23.413  0.00  0.00    +0.000 OA
BRANCH  10  16
ATOM     13  C   UNL     1      -4.766  12.912  21.301  0.00  0.00    +0.000 A 
ATOM     14  C   UNL     1      -4.318  12.757  22.608  0.00  0.00    +0.000 A 
ATOM     15  C   UNL     1      -2.982  12.399  22.894  0.00  0.00    +0.000 A 
ATOM     16  C   UNL     1      -2.089  12.131  21.842  0.00  0.00    +0.000 A 
ATOM     17  C   UNL     1      -2.516  12.375  20.532  0.00  0.00    +0.000 A 
ATOM     18  C   UNL     1      -3.849  12.751  20.255  0.00  0.00    +0.000 A 
BRANCH  13  20
ATOM     19  C   UNL     1      -7.046  12.141  21.441  0.00  0.00    +0.000 C 
ATOM     20  O   UNL     1      -6.106  13.176  21.168  0.00  0.00    +0.000 OA
ENDBRANCH  13  20
ENDBRANCH  10  16
ENDBRANCH   1  10
BRANCH   8  21
ATOM     21  N   UNL     1       0.562  11.597  18.102  0.00  0.00    +0.000 N 
ATOM     22  H   UNL     1       0.768  11.487  17.102  0.00  0.00    +0.000 HD
BRANCH  21  23
ATOM     23  C   UNL     1       0.846  12.978  18.276  0.00  0.00    +0.000 A 
ATOM     24  C   UNL     1      -0.092  13.946  18.636  0.00  0.00    +0.000 A 
ATOM     25  C   UNL     1       0.325  15.254  18.920  0.00  0.00    +0.000 A 
ATOM     26  C   UNL     1       1.676  15.587  18.862  0.00  0.00    +0.000 A 
ATOM     27  F   UNL     1       2.069  16.833  19.155  0.00  0.00    +0.000 F 
ATOM     28  C   UNL     1       2.613  14.625  18.529  0.00  0.00    +0.000 A 
ATOM     29  F   UNL     1       3.920  14.923  18.520  0.00  0.00    +0.000 F 
ATOM     30  C   UNL     1       2.210  13.329  18.243  0.00  0.00    +0.000 A 
ENDBRANCH  21  23
ENDBRANCH   8  21
TORSDOF 5
ENDMDL
