MODEL 1
REMARK VINA RESULT:      -7.1      0.000      0.000
REMARK  Name = 
REMARK  4 active torsions:
REMARK  status: ('A' for Active; 'I' for Inactive)
REMARK    1  A    between atoms: C_3  and  C_4
REMARK    2  A    between atoms: C_4  and  S_5
REMARK    3  A    between atoms: S_5  and  C_6
REMARK    4  A    between atoms: N_10  and  C_11
REMARK                            x       y       z     vdW  Elec       q    Type
REMARK                         _______ _______ _______ _____ _____    ______ ____
ROOT
ATOM      1  S   UNL     1       5.758   3.933  15.643  0.00  0.00    +0.000 S 
ENDROOT
BRANCH   1   2
ATOM      2  C   UNL     1       6.813   4.692  14.487  0.00  0.00    +0.000 A 
ATOM      3  N   UNL     1       7.727   5.585  14.800  0.00  0.00    +0.000 NA
ATOM      4  N   UNL     1       8.491   5.825  13.687  0.00  0.00    +0.000 NA
ATOM      5  C   UNL     1       8.024   5.066  12.724  0.00  0.00    +0.000 A 
ATOM      6  N   UNL     1       6.929   4.344  13.149  0.00  0.00    +0.000 N 
BRANCH   6   7
ATOM      7  C   UNL     1       6.129   3.529  12.302  0.00  0.00    +0.000 A 
ATOM      8  C   UNL     1       4.813   3.923  12.002  0.00  0.00    +0.000 A 
ATOM      9  C   UNL     1       3.976   3.084  11.263  0.00  0.00    +0.000 A 
ATOM     10  C   UNL     1       4.439   1.844  10.831  0.00  0.00    +0.000 A 
ATOM     11  C   UNL     1       5.746   1.452  11.115  0.00  0.00    +0.000 A 
ATOM     12  C   UNL     1       6.595   2.293  11.841  0.00  0.00    +0.000 A 
ENDBRANCH   6   7
ENDBRANCH   1   2
BRANCH   1  13
ATOM     13  C   UNL     1       4.830   5.369  16.273  0.00  0.00    +0.000 C 
BRANCH  13  16
ATOM     14 BR   UNL     1       2.756   7.579  18.037  0.00  0.00    +0.000 Br
ATOM     15  C   UNL     1       3.257   5.811  18.319  0.00  0.00    +0.000 A 
ATOM     16  C   UNL     1       4.093   5.026  17.530  0.00  0.00    +0.000 A 
ATOM     17  N   UNL     1       4.232   3.753  18.090  0.00  0.00    +0.000 NA
ATOM     18  C   UNL     1       3.498   3.808  19.165  0.00  0.00    +0.000 A 
ATOM     19  S   UNL     1       3.120   2.695  20.446  0.00  0.00    +0.000 S 
ATOM     20  C   UNL     1       2.135   3.959  21.206  0.00  0.00    +0.000 A 
ATOM     21  C   UNL     1       2.126   5.107  20.505  0.00  0.00    +0.000 A 
ATOM     22  N   UNL     1       2.893   5.011  19.363  0.00  0.00    +0.000 N 
ENDBRANCH  13  16
ENDBRANCH   1  13
TORSDOF 4
ENDMDL
MODEL 2
REMARK VINA RESULT:      -7.1      4.400      6.619
REMARK  Name = 
REMARK  4 active torsions:
REMARK  status: ('A' for Active; 'I' for Inactive)
REMARK    1  A    between atoms: C_3  and  C_4
REMARK    2  A    between atoms: C_4  and  S_5
REMARK    3  A    between atoms: S_5  and  C_6
REMARK    4  A    between atoms: N_10  and  C_11
REMARK                            x       y       z     vdW  Elec       q    Type
REMARK                         _______ _______ _______ _____ _____    ______ ____
ROOT
ATOM      1  S   UNL     1       2.320   5.572  20.134  0.00  0.00    +0.000 S 
ENDROOT
BRANCH   1   2
ATOM      2  C   UNL     1       2.693   4.491  18.824  0.00  0.00    +0.000 A 
ATOM      3  N   UNL     1       1.863   3.582  18.359  0.00  0.00    +0.000 NA
ATOM      4  N   UNL     1       2.406   3.047  17.221  0.00  0.00    +0.000 NA
ATOM      5  C   UNL     1       3.554   3.648  17.017  0.00  0.00    +0.000 A 
ATOM      6  N   UNL     1       3.823   4.554  18.021  0.00  0.00    +0.000 N 
BRANCH   6   7
ATOM      7  C   UNL     1       5.046   5.269  18.148  0.00  0.00    +0.000 A 
ATOM      8  C   UNL     1       5.412   6.198  17.158  0.00  0.00    +0.000 A 
ATOM      9  C   UNL     1       6.656   6.829  17.208  0.00  0.00    +0.000 A 
ATOM     10  C   UNL     1       7.548   6.530  18.234  0.00  0.00    +0.000 A 
ATOM     11  C   UNL     1       7.187   5.619  19.225  0.00  0.00    +0.000 A 
ATOM     12  C   UNL     1       5.937   4.995  19.191  0.00  0.00    +0.000 A 
ENDBRANCH   6   7
ENDBRANCH   1   2
BRANCH   1  13
ATOM     13  C   UNL     1       2.326   7.181  19.279  0.00  0.00    +0.000 C 
BRANCH  13  16
ATOM     14 BR   UNL     1       1.584  10.406  18.119  0.00  0.00    +0.000 Br
ATOM     15  C   UNL     1       1.184   9.501  19.693  0.00  0.00    +0.000 A 
ATOM     16  C   UNL     1       1.533   8.198  20.039  0.00  0.00    +0.000 A 
ATOM     17  N   UNL     1       1.056   7.893  21.317  0.00  0.00    +0.000 NA
ATOM     18  C   UNL     1       0.452   8.986  21.689  0.00  0.00    +0.000 A 
ATOM     19  S   UNL     1      -0.393   9.488  23.123  0.00  0.00    +0.000 S 
ATOM     20  C   UNL     1      -0.644  11.078  22.376  0.00  0.00    +0.000 A 
ATOM     21  C   UNL     1      -0.114  11.164  21.142  0.00  0.00    +0.000 A 
ATOM     22  N   UNL     1       0.498   9.987  20.768  0.00  0.00    +0.000 N 
ENDBRANCH  13  16
ENDBRANCH   1  13
TORSDOF 4
ENDMDL
MODEL 3
REMARK VINA RESULT:      -7.1      4.408      6.667
REMARK  Name = 
REMARK  4 active torsions:
REMARK  status: ('A' for Active; 'I' for Inactive)
REMARK    1  A    between atoms: C_3  and  C_4
REMARK    2  A    between atoms: C_4  and  S_5
REMARK    3  A    between atoms: S_5  and  C_6
REMARK    4  A    between atoms: N_10  and  C_11
REMARK                            x       y       z     vdW  Elec       q    Type
REMARK                         _______ _______ _______ _____ _____    ______ ____
ROOT
ATOM      1  S   UNL     1       2.464   5.717  20.125  0.00  0.00    +0.000 S 
ENDROOT
BRANCH   1   2
ATOM      2  C   UNL     1       2.693   4.598  18.813  0.00  0.00    +0.000 A 
ATOM      3  N   UNL     1       1.781   3.737  18.413  0.00  0.00    +0.000 NA
ATOM      4  N   UNL     1       2.222   3.155  17.253  0.00  0.00    +0.000 NA
ATOM      5  C   UNL     1       3.391   3.680  16.974  0.00  0.00    +0.000 A 
ATOM      6  N   UNL     1       3.775   4.580  17.945  0.00  0.00    +0.000 N 
BRANCH   6   7
ATOM      7  C   UNL     1       5.045   5.219  17.990  0.00  0.00    +0.000 A 
ATOM      8  C   UNL     1       5.948   4.896  19.018  0.00  0.00    +0.000 A 
ATOM      9  C   UNL     1       7.153   5.590  19.142  0.00  0.00    +0.000 A 
ATOM     10  C   UNL     1       7.460   6.616  18.254  0.00  0.00    +0.000 A 
ATOM     11  C   UNL     1       6.575   6.934  17.226  0.00  0.00    +0.000 A 
ATOM     12  C   UNL     1       5.373   6.234  17.085  0.00  0.00    +0.000 A 
ENDBRANCH   6   7
ENDBRANCH   1   2
BRANCH   1  13
ATOM     13  C   UNL     1       2.358   7.299  19.228  0.00  0.00    +0.000 C 
BRANCH  13  16
ATOM     14 BR   UNL     1       1.552  10.514  18.083  0.00  0.00    +0.000 Br
ATOM     15  C   UNL     1       1.199   9.606  19.666  0.00  0.00    +0.000 A 
ATOM     16  C   UNL     1       1.571   8.308  20.005  0.00  0.00    +0.000 A 
ATOM     17  N   UNL     1       1.127   7.998  21.293  0.00  0.00    +0.000 NA
ATOM     18  C   UNL     1       0.519   9.084  21.678  0.00  0.00    +0.000 A 
ATOM     19  S   UNL     1      -0.299   9.578  23.131  0.00  0.00    +0.000 S 
ATOM     20  C   UNL     1      -0.585  11.164  22.388  0.00  0.00    +0.000 A 
ATOM     21  C   UNL     1      -0.085  11.256  21.143  0.00  0.00    +0.000 A 
ATOM     22  N   UNL     1       0.532  10.085  20.756  0.00  0.00    +0.000 N 
ENDBRANCH  13  16
ENDBRANCH   1  13
TORSDOF 4
ENDMDL
MODEL 4
REMARK VINA RESULT:      -7.0      2.026      2.943
REMARK  Name = 
REMARK  4 active torsions:
REMARK  status: ('A' for Active; 'I' for Inactive)
REMARK    1  A    between atoms: C_3  and  C_4
REMARK    2  A    between atoms: C_4  and  S_5
REMARK    3  A    between atoms: S_5  and  C_6
REMARK    4  A    between atoms: N_10  and  C_11
REMARK                            x       y       z     vdW  Elec       q    Type
REMARK                         _______ _______ _______ _____ _____    ______ ____
ROOT
ATOM      1  S   UNL     1       4.745   6.926  16.337  0.00  0.00    +0.000 S 
ENDROOT
BRANCH   1   2
ATOM      2  C   UNL     1       6.105   5.986  16.876  0.00  0.00    +0.000 A 
ATOM      3  N   UNL     1       6.524   5.946  18.123  0.00  0.00    +0.000 NA
ATOM      4  N   UNL     1       7.483   4.972  18.221  0.00  0.00    +0.000 NA
ATOM      5  C   UNL     1       7.620   4.439  17.030  0.00  0.00    +0.000 A 
ATOM      6  N   UNL     1       6.802   5.061  16.112  0.00  0.00    +0.000 N 
BRANCH   6   7
ATOM      7  C   UNL     1       6.815   4.794  14.715  0.00  0.00    +0.000 A 
ATOM      8  C   UNL     1       5.976   3.793  14.193  0.00  0.00    +0.000 A 
ATOM      9  C   UNL     1       6.053   3.441  12.844  0.00  0.00    +0.000 A 
ATOM     10  C   UNL     1       6.974   4.071  12.012  0.00  0.00    +0.000 A 
ATOM     11  C   UNL     1       7.801   5.071  12.520  0.00  0.00    +0.000 A 
ATOM     12  C   UNL     1       7.719   5.440  13.865  0.00  0.00    +0.000 A 
ENDBRANCH   6   7
ENDBRANCH   1   2
BRANCH   1  13
ATOM     13  C   UNL     1       3.924   7.304  17.919  0.00  0.00    +0.000 C 
BRANCH  13  16
ATOM     14 BR   UNL     1       1.761   7.381  20.678  0.00  0.00    +0.000 Br
ATOM     15  C   UNL     1       2.227   6.048  19.469  0.00  0.00    +0.000 A 
ATOM     16  C   UNL     1       3.105   6.143  18.392  0.00  0.00    +0.000 A 
ATOM     17  N   UNL     1       3.197   4.915  17.733  0.00  0.00    +0.000 NA
ATOM     18  C   UNL     1       2.396   4.142  18.410  0.00  0.00    +0.000 A 
ATOM     19  S   UNL     1       1.927   2.471  18.301  0.00  0.00    +0.000 S 
ATOM     20  C   UNL     1       0.907   2.700  19.734  0.00  0.00    +0.000 A 
ATOM     21  C   UNL     1       0.953   3.956  20.212  0.00  0.00    +0.000 A 
ATOM     22  N   UNL     1       1.791   4.756  19.463  0.00  0.00    +0.000 N 
ENDBRANCH  13  16
ENDBRANCH   1  13
TORSDOF 4
ENDMDL
MODEL 5
REMARK VINA RESULT:      -7.0      2.090      3.040
REMARK  Name = 
REMARK  4 active torsions:
REMARK  status: ('A' for Active; 'I' for Inactive)
REMARK    1  A    between atoms: C_3  and  C_4
REMARK    2  A    between atoms: C_4  and  S_5
REMARK    3  A    between atoms: S_5  and  C_6
REMARK    4  A    between atoms: N_10  and  C_11
REMARK                            x       y       z     vdW  Elec       q    Type
REMARK                         _______ _______ _______ _____ _____    ______ ____
ROOT
ATOM      1  S   UNL     1       4.898   6.959  16.403  0.00  0.00    +0.000 S 
ENDROOT
BRANCH   1   2
ATOM      2  C   UNL     1       6.221   6.009  17.012  0.00  0.00    +0.000 A 
ATOM      3  N   UNL     1       6.622   6.025  18.265  0.00  0.00    +0.000 NA
ATOM      4  N   UNL     1       7.550   5.030  18.431  0.00  0.00    +0.000 NA
ATOM      5  C   UNL     1       7.685   4.428  17.273  0.00  0.00    +0.000 A 
ATOM      6  N   UNL     1       6.899   5.023  16.310  0.00  0.00    +0.000 N 
BRANCH   6   7
ATOM      7  C   UNL     1       6.922   4.678  14.931  0.00  0.00    +0.000 A 
ATOM      8  C   UNL     1       7.820   5.331  14.067  0.00  0.00    +0.000 A 
ATOM      9  C   UNL     1       7.782   5.085  12.694  0.00  0.00    +0.000 A 
ATOM     10  C   UNL     1       6.843   4.201  12.170  0.00  0.00    +0.000 A 
ATOM     11  C   UNL     1       5.958   3.542  13.021  0.00  0.00    +0.000 A 
ATOM     12  C   UNL     1       5.999   3.771  14.399  0.00  0.00    +0.000 A 
ENDBRANCH   6   7
ENDBRANCH   1   2
BRANCH   1  13
ATOM     13  C   UNL     1       3.985   7.324  17.937  0.00  0.00    +0.000 C 
BRANCH  13  16
ATOM     14 BR   UNL     1       1.752   7.334  20.640  0.00  0.00    +0.000 Br
ATOM     15  C   UNL     1       2.266   6.025  19.424  0.00  0.00    +0.000 A 
ATOM     16  C   UNL     1       3.170   6.147  18.372  0.00  0.00    +0.000 A 
ATOM     17  N   UNL     1       3.293   4.929  17.698  0.00  0.00    +0.000 NA
ATOM     18  C   UNL     1       2.485   4.137  18.342  0.00  0.00    +0.000 A 
ATOM     19  S   UNL     1       2.040   2.463  18.197  0.00  0.00    +0.000 S 
ATOM     20  C   UNL     1       0.981   2.658  19.607  0.00  0.00    +0.000 A 
ATOM     21  C   UNL     1       0.999   3.907  20.104  0.00  0.00    +0.000 A 
ATOM     22  N   UNL     1       1.845   4.728  19.388  0.00  0.00    +0.000 N 
ENDBRANCH  13  16
ENDBRANCH   1  13
TORSDOF 4
ENDMDL
MODEL 6
REMARK VINA RESULT:      -6.9      3.934      6.192
REMARK  Name = 
REMARK  4 active torsions:
REMARK  status: ('A' for Active; 'I' for Inactive)
REMARK    1  A    between atoms: C_3  and  C_4
REMARK    2  A    between atoms: C_4  and  S_5
REMARK    3  A    between atoms: S_5  and  C_6
REMARK    4  A    between atoms: N_10  and  C_11
REMARK                            x       y       z     vdW  Elec       q    Type
REMARK                         _______ _______ _______ _____ _____    ______ ____
ROOT
ATOM      1  S   UNL     1       1.952   5.642  18.209  0.00  0.00    +0.000 S 
ENDROOT
BRANCH   1   2
ATOM      2  C   UNL     1       2.415   4.003  18.559  0.00  0.00    +0.000 A 
ATOM      3  N   UNL     1       1.616   3.113  19.106  0.00  0.00    +0.000 NA
ATOM      4  N   UNL     1       2.239   1.894  19.063  0.00  0.00    +0.000 NA
ATOM      5  C   UNL     1       3.404   2.072  18.485  0.00  0.00    +0.000 A 
ATOM      6  N   UNL     1       3.603   3.399  18.172  0.00  0.00    +0.000 N 
BRANCH   6   7
ATOM      7  C   UNL     1       4.817   3.927  17.653  0.00  0.00    +0.000 A 
ATOM      8  C   UNL     1       5.083   3.828  16.275  0.00  0.00    +0.000 A 
ATOM      9  C   UNL     1       6.314   4.241  15.763  0.00  0.00    +0.000 A 
ATOM     10  C   UNL     1       7.292   4.740  16.618  0.00  0.00    +0.000 A 
ATOM     11  C   UNL     1       7.032   4.850  17.983  0.00  0.00    +0.000 A 
ATOM     12  C   UNL     1       5.796   4.454  18.502  0.00  0.00    +0.000 A 
ENDBRANCH   6   7
ENDBRANCH   1   2
BRANCH   1  13
ATOM     13  C   UNL     1       2.756   6.539  19.576  0.00  0.00    +0.000 C 
BRANCH  13  16
ATOM     14 BR   UNL     1       1.994   9.453  17.781  0.00  0.00    +0.000 Br
ATOM     15  C   UNL     1       1.520   8.845  19.472  0.00  0.00    +0.000 A 
ATOM     16  C   UNL     1       1.885   7.647  20.080  0.00  0.00    +0.000 A 
ATOM     17  N   UNL     1       1.335   7.568  21.363  0.00  0.00    +0.000 NA
ATOM     18  C   UNL     1       0.675   8.685  21.484  0.00  0.00    +0.000 A 
ATOM     19  S   UNL     1      -0.276   9.413  22.744  0.00  0.00    +0.000 S 
ATOM     20  C   UNL     1      -0.526  10.821  21.693  0.00  0.00    +0.000 A 
ATOM     21  C   UNL     1       0.080  10.696  20.499  0.00  0.00    +0.000 A 
ATOM     22  N   UNL     1       0.751   9.496  20.393  0.00  0.00    +0.000 N 
ENDBRANCH  13  16
ENDBRANCH   1  13
TORSDOF 4
ENDMDL
MODEL 7
REMARK VINA RESULT:      -6.9      5.048      7.377
REMARK  Name = 
REMARK  4 active torsions:
REMARK  status: ('A' for Active; 'I' for Inactive)
REMARK    1  A    between atoms: C_3  and  C_4
REMARK    2  A    between atoms: C_4  and  S_5
REMARK    3  A    between atoms: S_5  and  C_6
REMARK    4  A    between atoms: N_10  and  C_11
REMARK                            x       y       z     vdW  Elec       q    Type
REMARK                         _______ _______ _______ _____ _____    ______ ____
ROOT
ATOM      1  S   UNL     1       2.307   7.865  17.696  0.00  0.00    +0.000 S 
ENDROOT
BRANCH   1   2
ATOM      2  C   UNL     1       3.671   6.795  17.818  0.00  0.00    +0.000 A 
ATOM      3  N   UNL     1       4.891   7.111  17.440  0.00  0.00    +0.000 NA
ATOM      4  N   UNL     1       5.739   6.114  17.849  0.00  0.00    +0.000 NA
ATOM      5  C   UNL     1       5.012   5.217  18.473  0.00  0.00    +0.000 A 
ATOM      6  N   UNL     1       3.678   5.564  18.458  0.00  0.00    +0.000 N 
BRANCH   6   7
ATOM      7  C   UNL     1       2.629   4.734  18.943  0.00  0.00    +0.000 A 
ATOM      8  C   UNL     1       2.348   4.705  20.320  0.00  0.00    +0.000 A 
ATOM      9  C   UNL     1       1.397   3.817  20.827  0.00  0.00    +0.000 A 
ATOM     10  C   UNL     1       0.732   2.944  19.970  0.00  0.00    +0.000 A 
ATOM     11  C   UNL     1       0.998   2.976  18.603  0.00  0.00    +0.000 A 
ATOM     12  C   UNL     1       1.937   3.872  18.085  0.00  0.00    +0.000 A 
ENDBRANCH   6   7
ENDBRANCH   1   2
BRANCH   1  13
ATOM     13  C   UNL     1       1.993   8.242  19.451  0.00  0.00    +0.000 C 
BRANCH  13  16
ATOM     14 BR   UNL     1       0.667   9.352  22.502  0.00  0.00    +0.000 Br
ATOM     15  C   UNL     1       0.399   9.874  20.738  0.00  0.00    +0.000 A 
ATOM     16  C   UNL     1       1.001   9.354  19.595  0.00  0.00    +0.000 A 
ATOM     17  N   UNL     1       0.522  10.009  18.456  0.00  0.00    +0.000 NA
ATOM     18  C   UNL     1      -0.325  10.876  18.933  0.00  0.00    +0.000 A 
ATOM     19  S   UNL     1      -1.375  12.072  18.234  0.00  0.00    +0.000 S 
ATOM     20  C   UNL     1      -1.947  12.473  19.864  0.00  0.00    +0.000 A 
ATOM     21  C   UNL     1      -1.357  11.735  20.821  0.00  0.00    +0.000 A 
ATOM     22  N   UNL     1      -0.450  10.843  20.288  0.00  0.00    +0.000 N 
ENDBRANCH  13  16
ENDBRANCH   1  13
TORSDOF 4
ENDMDL
MODEL 8
REMARK VINA RESULT:      -6.9      3.043      4.042
REMARK  Name = 
REMARK  4 active torsions:
REMARK  status: ('A' for Active; 'I' for Inactive)
REMARK    1  A    between atoms: C_3  and  C_4
REMARK    2  A    between atoms: C_4  and  S_5
REMARK    3  A    between atoms: S_5  and  C_6
REMARK    4  A    between atoms: N_10  and  C_11
REMARK                            x       y       z     vdW  Elec       q    Type
REMARK                         _______ _______ _______ _____ _____    ______ ____
ROOT
ATOM      1  S   UNL     1       4.839   6.885  16.713  0.00  0.00    +0.000 S 
ENDROOT
BRANCH   1   2
ATOM      2  C   UNL     1       6.212   5.921  17.170  0.00  0.00    +0.000 A 
ATOM      3  N   UNL     1       6.679   5.839  18.398  0.00  0.00    +0.000 NA
ATOM      4  N   UNL     1       7.634   4.857  18.429  0.00  0.00    +0.000 NA
ATOM      5  C   UNL     1       7.722   4.361  17.217  0.00  0.00    +0.000 A 
ATOM      6  N   UNL     1       6.873   5.016  16.351  0.00  0.00    +0.000 N 
BRANCH   6   7
ATOM      7  C   UNL     1       6.831   4.792  14.948  0.00  0.00    +0.000 A 
ATOM      8  C   UNL     1       5.944   3.833  14.425  0.00  0.00    +0.000 A 
ATOM      9  C   UNL     1       5.965   3.521  13.065  0.00  0.00    +0.000 A 
ATOM     10  C   UNL     1       6.875   4.149  12.219  0.00  0.00    +0.000 A 
ATOM     11  C   UNL     1       7.749   5.109  12.729  0.00  0.00    +0.000 A 
ATOM     12  C   UNL     1       7.724   5.438  14.086  0.00  0.00    +0.000 A 
ENDBRANCH   6   7
ENDBRANCH   1   2
BRANCH   1  13
ATOM     13  C   UNL     1       3.487   6.002  17.557  0.00  0.00    +0.000 C 
BRANCH  13  16
ATOM     14 BR   UNL     1       2.343   5.107  20.748  0.00  0.00    +0.000 Br
ATOM     15  C   UNL     1       2.233   6.675  19.755  0.00  0.00    +0.000 A 
ATOM     16  C   UNL     1       2.742   6.914  18.482  0.00  0.00    +0.000 A 
ATOM     17  N   UNL     1       2.437   8.216  18.076  0.00  0.00    +0.000 NA
ATOM     18  C   UNL     1       1.775   8.706  19.085  0.00  0.00    +0.000 A 
ATOM     19  S   UNL     1       1.012  10.231  19.423  0.00  0.00    +0.000 S 
ATOM     20  C   UNL     1       0.495   9.585  20.992  0.00  0.00    +0.000 A 
ATOM     21  C   UNL     1       0.897   8.318  21.193  0.00  0.00    +0.000 A 
ATOM     22  N   UNL     1       1.613   7.834  20.118  0.00  0.00    +0.000 N 
ENDBRANCH  13  16
ENDBRANCH   1  13
TORSDOF 4
ENDMDL
MODEL 9
REMARK VINA RESULT:      -6.9      3.443      5.495
REMARK  Name = 
REMARK  4 active torsions:
REMARK  status: ('A' for Active; 'I' for Inactive)
REMARK    1  A    between atoms: C_3  and  C_4
REMARK    2  A    between atoms: C_4  and  S_5
REMARK    3  A    between atoms: S_5  and  C_6
REMARK    4  A    between atoms: N_10  and  C_11
REMARK                            x       y       z     vdW  Elec       q    Type
REMARK                         _______ _______ _______ _____ _____    ______ ____
ROOT
ATOM      1  S   UNL     1       4.998   7.103  17.434  0.00  0.00    +0.000 S 
ENDROOT
BRANCH   1   2
ATOM      2  C   UNL     1       5.489   5.767  16.434  0.00  0.00    +0.000 A 
ATOM      3  N   UNL     1       6.323   5.872  15.422  0.00  0.00    +0.000 NA
ATOM      4  N   UNL     1       6.627   4.609  14.985  0.00  0.00    +0.000 NA
ATOM      5  C   UNL     1       5.974   3.765  15.748  0.00  0.00    +0.000 A 
ATOM      6  N   UNL     1       5.195   4.432  16.669  0.00  0.00    +0.000 N 
BRANCH   6   7
ATOM      7  C   UNL     1       4.277   3.797  17.551  0.00  0.00    +0.000 A 
ATOM      8  C   UNL     1       4.681   3.478  18.860  0.00  0.00    +0.000 A 
ATOM      9  C   UNL     1       3.833   2.758  19.704  0.00  0.00    +0.000 A 
ATOM     10  C   UNL     1       2.586   2.340  19.247  0.00  0.00    +0.000 A 
ATOM     11  C   UNL     1       2.176   2.663  17.955  0.00  0.00    +0.000 A 
ATOM     12  C   UNL     1       3.012   3.396  17.109  0.00  0.00    +0.000 A 
ENDBRANCH   6   7
ENDBRANCH   1   2
BRANCH   1  13
ATOM     13  C   UNL     1       3.236   7.248  16.993  0.00  0.00    +0.000 C 
BRANCH  13  16
ATOM     14 BR   UNL     1       2.222   6.199  20.181  0.00  0.00    +0.000 Br
ATOM     15  C   UNL     1       2.043   7.802  19.257  0.00  0.00    +0.000 A 
ATOM     16  C   UNL     1       2.503   8.104  17.978  0.00  0.00    +0.000 A 
ATOM     17  N   UNL     1       2.155   9.414  17.636  0.00  0.00    +0.000 NA
ATOM     18  C   UNL     1       1.517   9.847  18.686  0.00  0.00    +0.000 A 
ATOM     19  S   UNL     1       0.732  11.339  19.110  0.00  0.00    +0.000 S 
ATOM     20  C   UNL     1       0.283  10.619  20.668  0.00  0.00    +0.000 A 
ATOM     21  C   UNL     1       0.720   9.354  20.804  0.00  0.00    +0.000 A 
ATOM     22  N   UNL     1       1.409   8.931  19.687  0.00  0.00    +0.000 N 
ENDBRANCH  13  16
ENDBRANCH   1  13
TORSDOF 4
ENDMDL
