MODEL 1
REMARK VINA RESULT:      -7.0      0.000      0.000
REMARK  Name = 
REMARK  14 active torsions:
REMARK  status: ('A' for Active; 'I' for Inactive)
REMARK    1  A    between atoms: C_2  and  C_3
REMARK    2  A    between atoms: C_3  and  C_4
REMARK    3  A    between atoms: C_4  and  O_5
REMARK    4  A    between atoms: O_5  and  P_6
REMARK    5  A    between atoms: P_6  and  O_8
REMARK    6  A    between atoms: P_6  and  O_9
REMARK    7  A    between atoms: O_9  and  P_10
REMARK    8  A    between atoms: P_10  and  O_12
REMARK    9  A    between atoms: P_10  and  O_13
REMARK   10  A    between atoms: O_13  and  C_14
REMARK   11  A    between atoms: C_14  and  C_15
REMARK   12  A    between atoms: C_17  and  N_18
REMARK   13  A    between atoms: C_26  and  O_27
REMARK   14  A    between atoms: C_28  and  O_29
REMARK                            x       y       z     vdW  Elec       q    Type
REMARK                         _______ _______ _______ _____ _____    ______ ____
ROOT
ATOM      1  C   UNL     1       4.141   3.508  20.168  0.00  0.00    +0.000 C 
ATOM      2  O   UNL     1       3.852   4.877  20.501  0.00  0.00    +0.000 OA
ATOM      3  C   UNL     1       2.499   5.169  20.113  0.00  0.00    +0.000 C 
ATOM      4  C   UNL     1       1.991   3.986  19.263  0.00  0.00    +0.000 C 
ATOM      5  C   UNL     1       2.822   2.837  19.802  0.00  0.00    +0.000 C 
ENDROOT
BRANCH   3   6
ATOM      6  N   UNL     1       2.437   6.456  19.433  0.00  0.00    +0.000 N 
ATOM      7  C   UNL     1       2.949   6.618  18.163  0.00  0.00    +0.000 A 
ATOM      8  C   UNL     1       2.853   7.769  17.493  0.00  0.00    +0.000 A 
ATOM      9  C   UNL     1       2.177   8.890  18.133  0.00  0.00    +0.000 A 
ATOM     10  O   UNL     1       2.109   9.985  17.574  0.00  0.00    +0.000 OA
ATOM     11  N   UNL     1       1.649   8.653  19.365  0.00  0.00    +0.000 N 
ATOM     12  C   UNL     1       1.761   7.486  20.075  0.00  0.00    +0.000 A 
ATOM     13  O   UNL     1       1.289   7.410  21.215  0.00  0.00    +0.000 OA
ATOM     14  H   UNL     1       1.184   9.417  19.832  0.00  0.00    +0.000 HD
ENDBRANCH   3   6
BRANCH   4  15
ATOM     15  O   UNL     1       0.597   3.732  19.415  0.00  0.00    +0.000 OA
ATOM     16  H   UNL     1       0.492   3.306  20.291  0.00  0.00    +0.000 HD
ENDBRANCH   4  15
BRANCH   5  17
ATOM     17  O   UNL     1       2.169   2.310  20.978  0.00  0.00    +0.000 OA
ATOM     18  H   UNL     1       2.551   2.733  21.768  0.00  0.00    +0.000 HD
ENDBRANCH   5  17
BRANCH   1  19
ATOM     19  C   UNL     1       5.188   3.457  19.065  0.00  0.00    +0.000 C 
BRANCH  19  20
ATOM     20  O   UNL     1       6.043   4.625  18.995  0.00  0.00    +0.000 OA
BRANCH  20  21
ATOM     21  P   UNL     1       6.842   4.867  17.480  0.00  0.00    +0.000 P 
ATOM     22  O   UNL     1       8.098   4.352  18.166  0.00  0.00    +0.000 OA
BRANCH  21  23
ATOM     23  O   UNL     1       6.880   6.491  17.723  0.00  0.00    +0.000 OA
ATOM     24  H   UNL     1       6.714   6.785  18.629  0.00  0.00    +0.000 HD
ENDBRANCH  21  23
BRANCH  21  25
ATOM     25  O   UNL     1       7.640   5.111  15.964  0.00  0.00    +0.000 OA
BRANCH  25  26
ATOM     26  P   UNL     1       6.607   4.587  14.679  0.00  0.00    +0.000 P 
ATOM     27  O   UNL     1       7.476   5.301  13.640  0.00  0.00    +0.000 OA
BRANCH  26  28
ATOM     28  O   UNL     1       5.281   5.343  15.218  0.00  0.00    +0.000 OA
ATOM     29  H   UNL     1       5.078   6.183  14.780  0.00  0.00    +0.000 HD
ENDBRANCH  26  28
BRANCH  26  30
ATOM     30  O   UNL     1       5.574   4.063  13.394  0.00  0.00    +0.000 OA
BRANCH  30  31
ATOM     31  C   UNL     1       6.348   3.435  12.363  0.00  0.00    +0.000 C 
BRANCH  31  32
ATOM     32  C   UNL     1       5.532   2.370  11.691  0.00  0.00    +0.000 C 
BRANCH  32  34
ATOM     33  N   UNL     1       3.271   3.569  10.603  0.00  0.00    +0.000 NA
ATOM     34  C   UNL     1       4.296   3.025  11.096  0.00  0.00    +0.000 C 
ENDBRANCH  32  34
ENDBRANCH  31  32
ENDBRANCH  30  31
ENDBRANCH  26  30
ENDBRANCH  25  26
ENDBRANCH  21  25
ENDBRANCH  20  21
ENDBRANCH  19  20
ENDBRANCH   1  19
TORSDOF 14
ENDMDL
MODEL 2
REMARK VINA RESULT:      -6.9      1.142      1.366
REMARK  Name = 
REMARK  14 active torsions:
REMARK  status: ('A' for Active; 'I' for Inactive)
REMARK    1  A    between atoms: C_2  and  C_3
REMARK    2  A    between atoms: C_3  and  C_4
REMARK    3  A    between atoms: C_4  and  O_5
REMARK    4  A    between atoms: O_5  and  P_6
REMARK    5  A    between atoms: P_6  and  O_8
REMARK    6  A    between atoms: P_6  and  O_9
REMARK    7  A    between atoms: O_9  and  P_10
REMARK    8  A    between atoms: P_10  and  O_12
REMARK    9  A    between atoms: P_10  and  O_13
REMARK   10  A    between atoms: O_13  and  C_14
REMARK   11  A    between atoms: C_14  and  C_15
REMARK   12  A    between atoms: C_17  and  N_18
REMARK   13  A    between atoms: C_26  and  O_27
REMARK   14  A    between atoms: C_28  and  O_29
REMARK                            x       y       z     vdW  Elec       q    Type
REMARK                         _______ _______ _______ _____ _____    ______ ____
ROOT
ATOM      1  C   UNL     1       4.214   4.657  19.713  0.00  0.00    +0.000 C 
ATOM      2  O   UNL     1       3.369   5.685  20.259  0.00  0.00    +0.000 OA
ATOM      3  C   UNL     1       2.253   5.880  19.375  0.00  0.00    +0.000 C 
ATOM      4  C   UNL     1       2.544   5.101  18.076  0.00  0.00    +0.000 C 
ATOM      5  C   UNL     1       3.450   3.992  18.576  0.00  0.00    +0.000 C 
ENDROOT
BRANCH   3   6
ATOM      6  N   UNL     1       2.014   7.303  19.172  0.00  0.00    +0.000 N 
ATOM      7  C   UNL     1       2.288   7.907  17.964  0.00  0.00    +0.000 A 
ATOM      8  C   UNL     1       2.024   9.195  17.730  0.00  0.00    +0.000 A 
ATOM      9  C   UNL     1       1.419   9.984  18.795  0.00  0.00    +0.000 A 
ATOM     10  O   UNL     1       1.204  11.186  18.643  0.00  0.00    +0.000 OA
ATOM     11  N   UNL     1       1.126   9.318  19.946  0.00  0.00    +0.000 N 
ATOM     12  C   UNL     1       1.414   8.005  20.209  0.00  0.00    +0.000 A 
ATOM     13  O   UNL     1       1.153   7.526  21.319  0.00  0.00    +0.000 OA
ATOM     14  H   UNL     1       0.716   9.845  20.702  0.00  0.00    +0.000 HD
ENDBRANCH   3   6
BRANCH   4  15
ATOM     15  O   UNL     1       1.376   4.574  17.452  0.00  0.00    +0.000 OA
ATOM     16  H   UNL     1       1.693   4.007  16.719  0.00  0.00    +0.000 HD
ENDBRANCH   4  15
BRANCH   5  17
ATOM     17  O   UNL     1       2.625   2.914  19.071  0.00  0.00    +0.000 OA
ATOM     18  H   UNL     1       2.615   2.945  20.044  0.00  0.00    +0.000 HD
ENDBRANCH   5  17
BRANCH   1  19
ATOM     19  C   UNL     1       5.549   5.256  19.295  0.00  0.00    +0.000 C 
BRANCH  19  20
ATOM     20  O   UNL     1       6.490   4.300  18.745  0.00  0.00    +0.000 OA
BRANCH  20  21
ATOM     21  P   UNL     1       7.119   4.697  17.184  0.00  0.00    +0.000 P 
ATOM     22  O   UNL     1       6.387   6.022  17.328  0.00  0.00    +0.000 OA
BRANCH  21  23
ATOM     23  O   UNL     1       6.032   3.705  16.457  0.00  0.00    +0.000 OA
ATOM     24  H   UNL     1       5.831   2.884  16.927  0.00  0.00    +0.000 HD
ENDBRANCH  21  23
BRANCH  21  25
ATOM     25  O   UNL     1       7.750   5.092  15.622  0.00  0.00    +0.000 OA
BRANCH  25  26
ATOM     26  P   UNL     1       6.607   4.633  14.406  0.00  0.00    +0.000 P 
ATOM     27  O   UNL     1       7.609   4.949  13.292  0.00  0.00    +0.000 OA
BRANCH  26  28
ATOM     28  O   UNL     1       5.506   5.758  14.786  0.00  0.00    +0.000 OA
ATOM     29  H   UNL     1       4.624   5.417  14.997  0.00  0.00    +0.000 HD
ENDBRANCH  26  28
BRANCH  26  30
ATOM     30  O   UNL     1       5.464   4.174  13.191  0.00  0.00    +0.000 OA
BRANCH  30  31
ATOM     31  C   UNL     1       6.109   3.389  12.179  0.00  0.00    +0.000 C 
BRANCH  31  32
ATOM     32  C   UNL     1       5.142   2.386  11.621  0.00  0.00    +0.000 C 
BRANCH  32  34
ATOM     33  N   UNL     1       3.147   3.769  10.263  0.00  0.00    +0.000 NA
ATOM     34  C   UNL     1       4.052   3.142  10.878  0.00  0.00    +0.000 C 
ENDBRANCH  32  34
ENDBRANCH  31  32
ENDBRANCH  30  31
ENDBRANCH  26  30
ENDBRANCH  25  26
ENDBRANCH  21  25
ENDBRANCH  20  21
ENDBRANCH  19  20
ENDBRANCH   1  19
TORSDOF 14
ENDMDL
MODEL 3
REMARK VINA RESULT:      -6.7      1.469      1.712
REMARK  Name = 
REMARK  14 active torsions:
REMARK  status: ('A' for Active; 'I' for Inactive)
REMARK    1  A    between atoms: C_2  and  C_3
REMARK    2  A    between atoms: C_3  and  C_4
REMARK    3  A    between atoms: C_4  and  O_5
REMARK    4  A    between atoms: O_5  and  P_6
REMARK    5  A    between atoms: P_6  and  O_8
REMARK    6  A    between atoms: P_6  and  O_9
REMARK    7  A    between atoms: O_9  and  P_10
REMARK    8  A    between atoms: P_10  and  O_12
REMARK    9  A    between atoms: P_10  and  O_13
REMARK   10  A    between atoms: O_13  and  C_14
REMARK   11  A    between atoms: C_14  and  C_15
REMARK   12  A    between atoms: C_17  and  N_18
REMARK   13  A    between atoms: C_26  and  O_27
REMARK   14  A    between atoms: C_28  and  O_29
REMARK                            x       y       z     vdW  Elec       q    Type
REMARK                         _______ _______ _______ _____ _____    ______ ____
ROOT
ATOM      1  C   UNL     1       4.212   4.698  19.727  0.00  0.00    +0.000 C 
ATOM      2  O   UNL     1       3.364   5.724  20.273  0.00  0.00    +0.000 OA
ATOM      3  C   UNL     1       2.255   5.926  19.381  0.00  0.00    +0.000 C 
ATOM      4  C   UNL     1       2.556   5.155  18.079  0.00  0.00    +0.000 C 
ATOM      5  C   UNL     1       3.456   4.041  18.579  0.00  0.00    +0.000 C 
ENDROOT
BRANCH   3   6
ATOM      6  N   UNL     1       2.020   7.351  19.184  0.00  0.00    +0.000 N 
ATOM      7  C   UNL     1       2.339   7.969  17.994  0.00  0.00    +0.000 A 
ATOM      8  C   UNL     1       2.081   9.259  17.764  0.00  0.00    +0.000 A 
ATOM      9  C   UNL     1       1.433  10.034  18.814  0.00  0.00    +0.000 A 
ATOM     10  O   UNL     1       1.221  11.238  18.667  0.00  0.00    +0.000 OA
ATOM     11  N   UNL     1       1.098   9.355  19.946  0.00  0.00    +0.000 N 
ATOM     12  C   UNL     1       1.379   8.040  20.205  0.00  0.00    +0.000 A 
ATOM     13  O   UNL     1       1.077   7.548  21.298  0.00  0.00    +0.000 OA
ATOM     14  H   UNL     1       0.658   9.873  20.691  0.00  0.00    +0.000 HD
ENDBRANCH   3   6
BRANCH   4  15
ATOM     15  O   UNL     1       1.392   4.634  17.442  0.00  0.00    +0.000 OA
ATOM     16  H   UNL     1       1.713   3.995  16.771  0.00  0.00    +0.000 HD
ENDBRANCH   4  15
BRANCH   5  17
ATOM     17  O   UNL     1       2.626   2.961  19.061  0.00  0.00    +0.000 OA
ATOM     18  H   UNL     1       2.932   2.697  19.947  0.00  0.00    +0.000 HD
ENDBRANCH   5  17
BRANCH   1  19
ATOM     19  C   UNL     1       5.552   5.297  19.324  0.00  0.00    +0.000 C 
BRANCH  19  20
ATOM     20  O   UNL     1       6.446   4.372  18.658  0.00  0.00    +0.000 OA
BRANCH  20  21
ATOM     21  P   UNL     1       6.972   4.856  17.082  0.00  0.00    +0.000 P 
ATOM     22  O   UNL     1       8.306   4.216  17.433  0.00  0.00    +0.000 OA
BRANCH  21  23
ATOM     23  O   UNL     1       7.123   6.414  17.576  0.00  0.00    +0.000 OA
ATOM     24  H   UNL     1       6.451   7.027  17.248  0.00  0.00    +0.000 HD
ENDBRANCH  21  23
BRANCH  21  25
ATOM     25  O   UNL     1       7.497   5.341  15.507  0.00  0.00    +0.000 OA
BRANCH  25  26
ATOM     26  P   UNL     1       6.421   4.695  14.317  0.00  0.00    +0.000 P 
ATOM     27  O   UNL     1       6.238   3.408  15.126  0.00  0.00    +0.000 OA
BRANCH  26  28
ATOM     28  O   UNL     1       7.498   4.692  13.108  0.00  0.00    +0.000 OA
ATOM     29  H   UNL     1       7.299   4.085  12.380  0.00  0.00    +0.000 HD
ENDBRANCH  26  28
BRANCH  26  30
ATOM     30  O   UNL     1       5.344   4.048  13.126  0.00  0.00    +0.000 OA
BRANCH  30  31
ATOM     31  C   UNL     1       6.082   3.314  12.141  0.00  0.00    +0.000 C 
BRANCH  31  32
ATOM     32  C   UNL     1       5.146   2.457  11.338  0.00  0.00    +0.000 C 
BRANCH  32  34
ATOM     33  N   UNL     1       6.276  -0.073  11.100  0.00  0.00    +0.000 NA
ATOM     34  C   UNL     1       5.764   1.075  11.208  0.00  0.00    +0.000 C 
ENDBRANCH  32  34
ENDBRANCH  31  32
ENDBRANCH  30  31
ENDBRANCH  26  30
ENDBRANCH  25  26
ENDBRANCH  21  25
ENDBRANCH  20  21
ENDBRANCH  19  20
ENDBRANCH   1  19
TORSDOF 14
ENDMDL
MODEL 4
REMARK VINA RESULT:      -6.6      3.700      7.158
REMARK  Name = 
REMARK  14 active torsions:
REMARK  status: ('A' for Active; 'I' for Inactive)
REMARK    1  A    between atoms: C_2  and  C_3
REMARK    2  A    between atoms: C_3  and  C_4
REMARK    3  A    between atoms: C_4  and  O_5
REMARK    4  A    between atoms: O_5  and  P_6
REMARK    5  A    between atoms: P_6  and  O_8
REMARK    6  A    between atoms: P_6  and  O_9
REMARK    7  A    between atoms: O_9  and  P_10
REMARK    8  A    between atoms: P_10  and  O_12
REMARK    9  A    between atoms: P_10  and  O_13
REMARK   10  A    between atoms: O_13  and  C_14
REMARK   11  A    between atoms: C_14  and  C_15
REMARK   12  A    between atoms: C_17  and  N_18
REMARK   13  A    between atoms: C_26  and  O_27
REMARK   14  A    between atoms: C_28  and  O_29
REMARK                            x       y       z     vdW  Elec       q    Type
REMARK                         _______ _______ _______ _____ _____    ______ ____
ROOT
ATOM      1  C   UNL     1       2.218   3.420  17.851  0.00  0.00    +0.000 C 
ATOM      2  O   UNL     1       3.266   3.767  16.930  0.00  0.00    +0.000 OA
ATOM      3  C   UNL     1       4.533   3.475  17.544  0.00  0.00    +0.000 C 
ATOM      4  C   UNL     1       4.268   3.157  19.030  0.00  0.00    +0.000 C 
ATOM      5  C   UNL     1       2.849   2.624  18.986  0.00  0.00    +0.000 C 
ENDROOT
BRANCH   3   6
ATOM      6  N   UNL     1       5.462   4.577  17.331  0.00  0.00    +0.000 N 
ATOM      7  C   UNL     1       5.638   5.557  18.285  0.00  0.00    +0.000 A 
ATOM      8  C   UNL     1       6.526   6.545  18.142  0.00  0.00    +0.000 A 
ATOM      9  C   UNL     1       7.337   6.579  16.932  0.00  0.00    +0.000 A 
ATOM     10  O   UNL     1       8.131   7.498  16.734  0.00  0.00    +0.000 OA
ATOM     11  N   UNL     1       7.151   5.557  16.052  0.00  0.00    +0.000 N 
ATOM     12  C   UNL     1       6.229   4.551  16.173  0.00  0.00    +0.000 A 
ATOM     13  O   UNL     1       6.112   3.709  15.276  0.00  0.00    +0.000 OA
ATOM     14  H   UNL     1       7.695   5.564  15.202  0.00  0.00    +0.000 HD
ENDBRANCH   3   6
BRANCH   4  15
ATOM     15  O   UNL     1       5.166   2.194  19.576  0.00  0.00    +0.000 OA
ATOM     16  H   UNL     1       5.859   2.053  18.896  0.00  0.00    +0.000 HD
ENDBRANCH   4  15
BRANCH   5  17
ATOM     17  O   UNL     1       2.897   1.217  18.663  0.00  0.00    +0.000 OA
ATOM     18  H   UNL     1       2.233   0.747  19.199  0.00  0.00    +0.000 HD
ENDBRANCH   5  17
BRANCH   1  19
ATOM     19  C   UNL     1       1.494   4.680  18.305  0.00  0.00    +0.000 C 
BRANCH  19  20
ATOM     20  O   UNL     1       2.118   5.917  17.879  0.00  0.00    +0.000 OA
BRANCH  20  21
ATOM     21  P   UNL     1       1.986   7.233  18.993  0.00  0.00    +0.000 P 
ATOM     22  O   UNL     1       2.986   7.960  18.108  0.00  0.00    +0.000 OA
BRANCH  21  23
ATOM     23  O   UNL     1       2.913   6.440  20.092  0.00  0.00    +0.000 OA
ATOM     24  H   UNL     1       3.052   5.498  19.923  0.00  0.00    +0.000 HD
ENDBRANCH  21  23
BRANCH  21  25
ATOM     25  O   UNL     1       1.853   8.549  20.108  0.00  0.00    +0.000 OA
BRANCH  25  26
ATOM     26  P   UNL     1       0.453   9.490  19.726  0.00  0.00    +0.000 P 
ATOM     27  O   UNL     1       1.267  10.786  19.764  0.00  0.00    +0.000 OA
BRANCH  26  28
ATOM     28  O   UNL     1      -0.387   9.075  21.046  0.00  0.00    +0.000 OA
ATOM     29  H   UNL     1       0.131   9.009  21.861  0.00  0.00    +0.000 HD
ENDBRANCH  26  28
BRANCH  26  30
ATOM     30  O   UNL     1      -0.948  10.431  19.343  0.00  0.00    +0.000 OA
BRANCH  30  31
ATOM     31  C   UNL     1      -1.440  10.077  18.043  0.00  0.00    +0.000 C 
BRANCH  31  32
ATOM     32  C   UNL     1      -2.110  11.263  17.413  0.00  0.00    +0.000 C 
BRANCH  32  34
ATOM     33  N   UNL     1      -3.036  10.501  14.903  0.00  0.00    +0.000 NA
ATOM     34  C   UNL     1      -2.616  10.847  16.041  0.00  0.00    +0.000 C 
ENDBRANCH  32  34
ENDBRANCH  31  32
ENDBRANCH  30  31
ENDBRANCH  26  30
ENDBRANCH  25  26
ENDBRANCH  21  25
ENDBRANCH  20  21
ENDBRANCH  19  20
ENDBRANCH   1  19
TORSDOF 14
ENDMDL
MODEL 5
REMARK VINA RESULT:      -6.4      3.677      5.940
REMARK  Name = 
REMARK  14 active torsions:
REMARK  status: ('A' for Active; 'I' for Inactive)
REMARK    1  A    between atoms: C_2  and  C_3
REMARK    2  A    between atoms: C_3  and  C_4
REMARK    3  A    between atoms: C_4  and  O_5
REMARK    4  A    between atoms: O_5  and  P_6
REMARK    5  A    between atoms: P_6  and  O_8
REMARK    6  A    between atoms: P_6  and  O_9
REMARK    7  A    between atoms: O_9  and  P_10
REMARK    8  A    between atoms: P_10  and  O_12
REMARK    9  A    between atoms: P_10  and  O_13
REMARK   10  A    between atoms: O_13  and  C_14
REMARK   11  A    between atoms: C_14  and  C_15
REMARK   12  A    between atoms: C_17  and  N_18
REMARK   13  A    between atoms: C_26  and  O_27
REMARK   14  A    between atoms: C_28  and  O_29
REMARK                            x       y       z     vdW  Elec       q    Type
REMARK                         _______ _______ _______ _____ _____    ______ ____
ROOT
ATOM      1  C   UNL     1       1.742   8.794  20.672  0.00  0.00    +0.000 C 
ATOM      2  O   UNL     1       1.309   9.931  19.905  0.00  0.00    +0.000 OA
ATOM      3  C   UNL     1       0.132  10.479  20.520  0.00  0.00    +0.000 C 
ATOM      4  C   UNL     1      -0.343   9.478  21.594  0.00  0.00    +0.000 C 
ATOM      5  C   UNL     1       0.956   8.795  21.977  0.00  0.00    +0.000 C 
ENDROOT
BRANCH   3   6
ATOM      6  N   UNL     1      -0.872  10.780  19.507  0.00  0.00    +0.000 N 
ATOM      7  C   UNL     1      -0.954  10.045  18.344  0.00  0.00    +0.000 A 
ATOM      8  C   UNL     1      -1.900  10.260  17.426  0.00  0.00    +0.000 A 
ATOM      9  C   UNL     1      -2.881  11.310  17.672  0.00  0.00    +0.000 A 
ATOM     10  O   UNL     1      -3.740  11.577  16.832  0.00  0.00    +0.000 OA
ATOM     11  N   UNL     1      -2.776  11.965  18.861  0.00  0.00    +0.000 N 
ATOM     12  C   UNL     1      -1.798  11.773  19.800  0.00  0.00    +0.000 A 
ATOM     13  O   UNL     1      -1.773  12.475  20.818  0.00  0.00    +0.000 OA
ATOM     14  H   UNL     1      -3.438  12.703  19.050  0.00  0.00    +0.000 HD
ENDBRANCH   3   6
BRANCH   4  15
ATOM     15  O   UNL     1      -0.953  10.100  22.723  0.00  0.00    +0.000 OA
ATOM     16  H   UNL     1      -0.998  11.056  22.514  0.00  0.00    +0.000 HD
ENDBRANCH   4  15
BRANCH   5  17
ATOM     17  O   UNL     1       1.620   9.598  22.977  0.00  0.00    +0.000 OA
ATOM     18  H   UNL     1       1.741   9.064  23.783  0.00  0.00    +0.000 HD
ENDBRANCH   5  17
BRANCH   1  19
ATOM     19  C   UNL     1       1.575   7.524  19.849  0.00  0.00    +0.000 C 
BRANCH  19  20
ATOM     20  O   UNL     1       1.543   6.304  20.630  0.00  0.00    +0.000 OA
BRANCH  20  21
ATOM     21  P   UNL     1       2.252   4.921  19.871  0.00  0.00    +0.000 P 
ATOM     22  O   UNL     1       1.978   4.183  21.172  0.00  0.00    +0.000 OA
BRANCH  21  23
ATOM     23  O   UNL     1       3.758   5.546  20.064  0.00  0.00    +0.000 OA
ATOM     24  H   UNL     1       3.920   6.002  20.901  0.00  0.00    +0.000 HD
ENDBRANCH  21  23
BRANCH  21  25
ATOM     25  O   UNL     1       2.962   3.539  19.111  0.00  0.00    +0.000 OA
BRANCH  25  26
ATOM     26  P   UNL     1       4.613   3.880  18.719  0.00  0.00    +0.000 P 
ATOM     27  O   UNL     1       4.404   3.420  17.274  0.00  0.00    +0.000 OA
BRANCH  26  28
ATOM     28  O   UNL     1       5.250   2.830  19.773  0.00  0.00    +0.000 OA
ATOM     29  H   UNL     1       4.921   1.921  19.700  0.00  0.00    +0.000 HD
ENDBRANCH  26  28
BRANCH  26  30
ATOM     30  O   UNL     1       6.263   4.222  18.328  0.00  0.00    +0.000 OA
BRANCH  30  31
ATOM     31  C   UNL     1       6.686   5.426  18.983  0.00  0.00    +0.000 C 
BRANCH  31  32
ATOM     32  C   UNL     1       6.947   6.495  17.963  0.00  0.00    +0.000 C 
BRANCH  32  34
ATOM     33  N   UNL     1       7.384   5.263  15.508  0.00  0.00    +0.000 NA
ATOM     34  C   UNL     1       7.186   5.821  16.621  0.00  0.00    +0.000 C 
ENDBRANCH  32  34
ENDBRANCH  31  32
ENDBRANCH  30  31
ENDBRANCH  26  30
ENDBRANCH  25  26
ENDBRANCH  21  25
ENDBRANCH  20  21
ENDBRANCH  19  20
ENDBRANCH   1  19
TORSDOF 14
ENDMDL
MODEL 6
REMARK VINA RESULT:      -6.4      3.677      8.455
REMARK  Name = 
REMARK  14 active torsions:
REMARK  status: ('A' for Active; 'I' for Inactive)
REMARK    1  A    between atoms: C_2  and  C_3
REMARK    2  A    between atoms: C_3  and  C_4
REMARK    3  A    between atoms: C_4  and  O_5
REMARK    4  A    between atoms: O_5  and  P_6
REMARK    5  A    between atoms: P_6  and  O_8
REMARK    6  A    between atoms: P_6  and  O_9
REMARK    7  A    between atoms: O_9  and  P_10
REMARK    8  A    between atoms: P_10  and  O_12
REMARK    9  A    between atoms: P_10  and  O_13
REMARK   10  A    between atoms: O_13  and  C_14
REMARK   11  A    between atoms: C_14  and  C_15
REMARK   12  A    between atoms: C_17  and  N_18
REMARK   13  A    between atoms: C_26  and  O_27
REMARK   14  A    between atoms: C_28  and  O_29
REMARK                            x       y       z     vdW  Elec       q    Type
REMARK                         _______ _______ _______ _____ _____    ______ ____
ROOT
ATOM      1  C   UNL     1       4.772   6.672  17.440  0.00  0.00    +0.000 C 
ATOM      2  O   UNL     1       4.842   6.117  18.765  0.00  0.00    +0.000 OA
ATOM      3  C   UNL     1       4.758   4.685  18.669  0.00  0.00    +0.000 C 
ATOM      4  C   UNL     1       4.365   4.337  17.219  0.00  0.00    +0.000 C 
ATOM      5  C   UNL     1       4.923   5.521  16.453  0.00  0.00    +0.000 C 
ENDROOT
BRANCH   3   6
ATOM      6  N   UNL     1       3.838   4.166  19.673  0.00  0.00    +0.000 N 
ATOM      7  C   UNL     1       2.757   4.907  20.100  0.00  0.00    +0.000 A 
ATOM      8  C   UNL     1       1.864   4.434  20.974  0.00  0.00    +0.000 A 
ATOM      9  C   UNL     1       2.045   3.082  21.487  0.00  0.00    +0.000 A 
ATOM     10  O   UNL     1       1.277   2.622  22.332  0.00  0.00    +0.000 OA
ATOM     11  N   UNL     1       3.103   2.384  20.989  0.00  0.00    +0.000 N 
ATOM     12  C   UNL     1       4.040   2.864  20.112  0.00  0.00    +0.000 A 
ATOM     13  O   UNL     1       4.993   2.153  19.777  0.00  0.00    +0.000 OA
ATOM     14  H   UNL     1       3.255   1.449  21.337  0.00  0.00    +0.000 HD
ENDBRANCH   3   6
BRANCH   4  15
ATOM     15  O   UNL     1       4.924   3.110  16.755  0.00  0.00    +0.000 OA
ATOM     16  H   UNL     1       4.993   2.530  17.541  0.00  0.00    +0.000 HD
ENDBRANCH   4  15
BRANCH   5  17
ATOM     17  O   UNL     1       6.316   5.268  16.166  0.00  0.00    +0.000 OA
ATOM     18  H   UNL     1       6.780   5.073  17.000  0.00  0.00    +0.000 HD
ENDBRANCH   5  17
BRANCH   1  19
ATOM     19  C   UNL     1       3.480   7.460  17.280  0.00  0.00    +0.000 C 
BRANCH  19  20
ATOM     20  O   UNL     1       2.963   8.020  18.513  0.00  0.00    +0.000 OA
BRANCH  20  21
ATOM     21  P   UNL     1       1.534   8.981  18.346  0.00  0.00    +0.000 P 
ATOM     22  O   UNL     1       1.070   7.948  17.331  0.00  0.00    +0.000 OA
BRANCH  21  23
ATOM     23  O   UNL     1       2.348  10.094  17.454  0.00  0.00    +0.000 OA
ATOM     24  H   UNL     1       3.289  10.190  17.656  0.00  0.00    +0.000 HD
ENDBRANCH  21  23
BRANCH  21  25
ATOM     25  O   UNL     1       0.106   9.944  18.179  0.00  0.00    +0.000 OA
BRANCH  25  26
ATOM     26  P   UNL     1      -0.067  10.963  19.567  0.00  0.00    +0.000 P 
ATOM     27  O   UNL     1       0.316  12.201  18.752  0.00  0.00    +0.000 OA
BRANCH  26  28
ATOM     28  O   UNL     1       1.084  10.238  20.445  0.00  0.00    +0.000 OA
ATOM     29  H   UNL     1       1.498   9.468  20.028  0.00  0.00    +0.000 HD
ENDBRANCH  26  28
BRANCH  26  30
ATOM     30  O   UNL     1      -0.240  11.981  20.954  0.00  0.00    +0.000 OA
BRANCH  30  31
ATOM     31  C   UNL     1      -1.627  12.135  21.284  0.00  0.00    +0.000 C 
BRANCH  31  32
ATOM     32  C   UNL     1      -1.843  11.821  22.735  0.00  0.00    +0.000 C 
BRANCH  32  34
ATOM     33  N   UNL     1      -0.012   9.864  23.480  0.00  0.00    +0.000 NA
ATOM     34  C   UNL     1      -0.842  10.752  23.142  0.00  0.00    +0.000 C 
ENDBRANCH  32  34
ENDBRANCH  31  32
ENDBRANCH  30  31
ENDBRANCH  26  30
ENDBRANCH  25  26
ENDBRANCH  21  25
ENDBRANCH  20  21
ENDBRANCH  19  20
ENDBRANCH   1  19
TORSDOF 14
ENDMDL
MODEL 7
REMARK VINA RESULT:      -6.4      1.027      1.239
REMARK  Name = 
REMARK  14 active torsions:
REMARK  status: ('A' for Active; 'I' for Inactive)
REMARK    1  A    between atoms: C_2  and  C_3
REMARK    2  A    between atoms: C_3  and  C_4
REMARK    3  A    between atoms: C_4  and  O_5
REMARK    4  A    between atoms: O_5  and  P_6
REMARK    5  A    between atoms: P_6  and  O_8
REMARK    6  A    between atoms: P_6  and  O_9
REMARK    7  A    between atoms: O_9  and  P_10
REMARK    8  A    between atoms: P_10  and  O_12
REMARK    9  A    between atoms: P_10  and  O_13
REMARK   10  A    between atoms: O_13  and  C_14
REMARK   11  A    between atoms: C_14  and  C_15
REMARK   12  A    between atoms: C_17  and  N_18
REMARK   13  A    between atoms: C_26  and  O_27
REMARK   14  A    between atoms: C_28  and  O_29
REMARK                            x       y       z     vdW  Elec       q    Type
REMARK                         _______ _______ _______ _____ _____    ______ ____
ROOT
ATOM      1  C   UNL     1       3.770   3.619  19.835  0.00  0.00    +0.000 C 
ATOM      2  O   UNL     1       3.074   4.786  20.306  0.00  0.00    +0.000 OA
ATOM      3  C   UNL     1       2.037   5.113  19.366  0.00  0.00    +0.000 C 
ATOM      4  C   UNL     1       2.256   4.246  18.109  0.00  0.00    +0.000 C 
ATOM      5  C   UNL     1       2.958   3.032  18.688  0.00  0.00    +0.000 C 
ENDROOT
BRANCH   3   6
ATOM      6  N   UNL     1       2.029   6.546  19.103  0.00  0.00    +0.000 N 
ATOM      7  C   UNL     1       2.296   7.042  17.845  0.00  0.00    +0.000 A 
ATOM      8  C   UNL     1       2.238   8.346  17.561  0.00  0.00    +0.000 A 
ATOM      9  C   UNL     1       1.873   9.271  18.625  0.00  0.00    +0.000 A 
ATOM     10  O   UNL     1       1.855  10.486  18.423  0.00  0.00    +0.000 OA
ATOM     11  N   UNL     1       1.572   8.716  19.831  0.00  0.00    +0.000 N 
ATOM     12  C   UNL     1       1.651   7.385  20.144  0.00  0.00    +0.000 A 
ATOM     13  O   UNL     1       1.410   7.005  21.295  0.00  0.00    +0.000 OA
ATOM     14  H   UNL     1       1.326   9.338  20.587  0.00  0.00    +0.000 HD
ENDBRANCH   3   6
BRANCH   4  15
ATOM     15  O   UNL     1       1.045   3.879  17.451  0.00  0.00    +0.000 OA
ATOM     16  H   UNL     1       0.876   2.945  17.697  0.00  0.00    +0.000 HD
ENDBRANCH   4  15
BRANCH   5  17
ATOM     17  O   UNL     1       1.958   2.114  19.181  0.00  0.00    +0.000 OA
ATOM     18  H   UNL     1       1.332   1.912  18.463  0.00  0.00    +0.000 HD
ENDBRANCH   5  17
BRANCH   1  19
ATOM     19  C   UNL     1       5.198   3.989  19.458  0.00  0.00    +0.000 C 
BRANCH  19  20
ATOM     20  O   UNL     1       5.395   5.394  19.161  0.00  0.00    +0.000 OA
BRANCH  20  21
ATOM     21  P   UNL     1       6.230   5.728  17.683  0.00  0.00    +0.000 P 
ATOM     22  O   UNL     1       4.947   6.398  17.218  0.00  0.00    +0.000 OA
BRANCH  21  23
ATOM     23  O   UNL     1       6.073   4.165  17.204  0.00  0.00    +0.000 OA
ATOM     24  H   UNL     1       5.870   3.528  17.903  0.00  0.00    +0.000 HD
ENDBRANCH  21  23
BRANCH  21  25
ATOM     25  O   UNL     1       7.067   6.060  16.206  0.00  0.00    +0.000 OA
BRANCH  25  26
ATOM     26  P   UNL     1       6.824   4.752  15.100  0.00  0.00    +0.000 P 
ATOM     27  O   UNL     1       7.890   5.307  14.152  0.00  0.00    +0.000 OA
BRANCH  26  28
ATOM     28  O   UNL     1       5.272   5.090  14.787  0.00  0.00    +0.000 OA
ATOM     29  H   UNL     1       4.645   4.820  15.474  0.00  0.00    +0.000 HD
ENDBRANCH  26  28
BRANCH  26  30
ATOM     30  O   UNL     1       6.582   3.444  13.993  0.00  0.00    +0.000 OA
BRANCH  30  31
ATOM     31  C   UNL     1       6.225   3.951  12.700  0.00  0.00    +0.000 C 
BRANCH  31  32
ATOM     32  C   UNL     1       5.902   2.811  11.779  0.00  0.00    +0.000 C 
BRANCH  32  34
ATOM     33  N   UNL     1       3.295   3.145  10.870  0.00  0.00    +0.000 NA
ATOM     34  C   UNL     1       4.478   2.994  11.281  0.00  0.00    +0.000 C 
ENDBRANCH  32  34
ENDBRANCH  31  32
ENDBRANCH  30  31
ENDBRANCH  26  30
ENDBRANCH  25  26
ENDBRANCH  21  25
ENDBRANCH  20  21
ENDBRANCH  19  20
ENDBRANCH   1  19
TORSDOF 14
ENDMDL
MODEL 8
REMARK VINA RESULT:      -6.4      3.910      7.865
REMARK  Name = 
REMARK  14 active torsions:
REMARK  status: ('A' for Active; 'I' for Inactive)
REMARK    1  A    between atoms: C_2  and  C_3
REMARK    2  A    between atoms: C_3  and  C_4
REMARK    3  A    between atoms: C_4  and  O_5
REMARK    4  A    between atoms: O_5  and  P_6
REMARK    5  A    between atoms: P_6  and  O_8
REMARK    6  A    between atoms: P_6  and  O_9
REMARK    7  A    between atoms: O_9  and  P_10
REMARK    8  A    between atoms: P_10  and  O_12
REMARK    9  A    between atoms: P_10  and  O_13
REMARK   10  A    between atoms: O_13  and  C_14
REMARK   11  A    between atoms: C_14  and  C_15
REMARK   12  A    between atoms: C_17  and  N_18
REMARK   13  A    between atoms: C_26  and  O_27
REMARK   14  A    between atoms: C_28  and  O_29
REMARK                            x       y       z     vdW  Elec       q    Type
REMARK                         _______ _______ _______ _____ _____    ______ ____
ROOT
ATOM      1  C   UNL     1       1.495   5.443  19.863  0.00  0.00    +0.000 C 
ATOM      2  O   UNL     1       2.195   5.057  18.668  0.00  0.00    +0.000 OA
ATOM      3  C   UNL     1       3.079   3.969  18.984  0.00  0.00    +0.000 C 
ATOM      4  C   UNL     1       3.116   3.828  20.520  0.00  0.00    +0.000 C 
ATOM      5  C   UNL     1       1.756   4.371  20.914  0.00  0.00    +0.000 C 
ENDROOT
BRANCH   3   6
ATOM      6  N   UNL     1       4.386   4.190  18.378  0.00  0.00    +0.000 N 
ATOM      7  C   UNL     1       5.415   4.768  19.091  0.00  0.00    +0.000 A 
ATOM      8  C   UNL     1       6.639   4.929  18.581  0.00  0.00    +0.000 A 
ATOM      9  C   UNL     1       6.889   4.470  17.221  0.00  0.00    +0.000 A 
ATOM     10  O   UNL     1       7.987   4.642  16.692  0.00  0.00    +0.000 OA
ATOM     11  N   UNL     1       5.848   3.863  16.588  0.00  0.00    +0.000 N 
ATOM     12  C   UNL     1       4.582   3.713  17.088  0.00  0.00    +0.000 A 
ATOM     13  O   UNL     1       3.700   3.197  16.393  0.00  0.00    +0.000 OA
ATOM     14  H   UNL     1       5.995   3.545  15.642  0.00  0.00    +0.000 HD
ENDBRANCH   3   6
BRANCH   4  15
ATOM     15  O   UNL     1       3.288   2.485  20.965  0.00  0.00    +0.000 OA
ATOM     16  H   UNL     1       2.732   2.393  21.767  0.00  0.00    +0.000 HD
ENDBRANCH   4  15
BRANCH   5  17
ATOM     17  O   UNL     1       0.789   3.303  20.811  0.00  0.00    +0.000 OA
ATOM     18  H   UNL     1       0.028   3.613  20.288  0.00  0.00    +0.000 HD
ENDBRANCH   5  17
BRANCH   1  19
ATOM     19  C   UNL     1       1.927   6.840  20.285  0.00  0.00    +0.000 C 
BRANCH  19  20
ATOM     20  O   UNL     1       1.244   7.351  21.457  0.00  0.00    +0.000 OA
BRANCH  20  21
ATOM     21  P   UNL     1       1.024   9.066  21.496  0.00  0.00    +0.000 P 
ATOM     22  O   UNL     1      -0.451   8.777  21.728  0.00  0.00    +0.000 OA
BRANCH  21  23
ATOM     23  O   UNL     1       1.172   9.155  19.863  0.00  0.00    +0.000 OA
ATOM     24  H   UNL     1       1.951   9.626  19.536  0.00  0.00    +0.000 HD
ENDBRANCH  21  23
BRANCH  21  25
ATOM     25  O   UNL     1       0.805  10.782  21.535  0.00  0.00    +0.000 OA
BRANCH  25  26
ATOM     26  P   UNL     1      -0.544  11.213  20.540  0.00  0.00    +0.000 P 
ATOM     27  O   UNL     1       0.327  12.154  19.703  0.00  0.00    +0.000 OA
BRANCH  26  28
ATOM     28  O   UNL     1      -1.430  11.851  21.735  0.00  0.00    +0.000 OA
ATOM     29  H   UNL     1      -1.028  11.807  22.616  0.00  0.00    +0.000 HD
ENDBRANCH  26  28
BRANCH  26  30
ATOM     30  O   UNL     1      -1.892  11.644  19.545  0.00  0.00    +0.000 OA
BRANCH  30  31
ATOM     31  C   UNL     1      -1.551  11.496  18.160  0.00  0.00    +0.000 C 
BRANCH  31  32
ATOM     32  C   UNL     1      -2.001  10.152  17.666  0.00  0.00    +0.000 C 
BRANCH  32  34
ATOM     33  N   UNL     1      -2.838  10.435  15.029  0.00  0.00    +0.000 NA
ATOM     34  C   UNL     1      -2.458  10.306  16.225  0.00  0.00    +0.000 C 
ENDBRANCH  32  34
ENDBRANCH  31  32
ENDBRANCH  30  31
ENDBRANCH  26  30
ENDBRANCH  25  26
ENDBRANCH  21  25
ENDBRANCH  20  21
ENDBRANCH  19  20
ENDBRANCH   1  19
TORSDOF 14
ENDMDL
MODEL 9
REMARK VINA RESULT:      -6.3      3.836      8.607
REMARK  Name = 
REMARK  14 active torsions:
REMARK  status: ('A' for Active; 'I' for Inactive)
REMARK    1  A    between atoms: C_2  and  C_3
REMARK    2  A    between atoms: C_3  and  C_4
REMARK    3  A    between atoms: C_4  and  O_5
REMARK    4  A    between atoms: O_5  and  P_6
REMARK    5  A    between atoms: P_6  and  O_8
REMARK    6  A    between atoms: P_6  and  O_9
REMARK    7  A    between atoms: O_9  and  P_10
REMARK    8  A    between atoms: P_10  and  O_12
REMARK    9  A    between atoms: P_10  and  O_13
REMARK   10  A    between atoms: O_13  and  C_14
REMARK   11  A    between atoms: C_14  and  C_15
REMARK   12  A    between atoms: C_17  and  N_18
REMARK   13  A    between atoms: C_26  and  O_27
REMARK   14  A    between atoms: C_28  and  O_29
REMARK                            x       y       z     vdW  Elec       q    Type
REMARK                         _______ _______ _______ _____ _____    ______ ____
ROOT
ATOM      1  C   UNL     1       4.946   6.425  17.501  0.00  0.00    +0.000 C 
ATOM      2  O   UNL     1       4.942   5.879  18.832  0.00  0.00    +0.000 OA
ATOM      3  C   UNL     1       4.801   4.451  18.742  0.00  0.00    +0.000 C 
ATOM      4  C   UNL     1       4.448   4.108  17.280  0.00  0.00    +0.000 C 
ATOM      5  C   UNL     1       5.085   5.261  16.528  0.00  0.00    +0.000 C 
ENDROOT
BRANCH   3   6
ATOM      6  N   UNL     1       3.822   3.980  19.713  0.00  0.00    +0.000 N 
ATOM      7  C   UNL     1       2.643   4.662  19.926  0.00  0.00    +0.000 A 
ATOM      8  C   UNL     1       1.702   4.222  20.766  0.00  0.00    +0.000 A 
ATOM      9  C   UNL     1       1.936   2.972  21.476  0.00  0.00    +0.000 A 
ATOM     10  O   UNL     1       1.119   2.554  22.298  0.00  0.00    +0.000 OA
ATOM     11  N   UNL     1       3.095   2.321  21.186  0.00  0.00    +0.000 N 
ATOM     12  C   UNL     1       4.080   2.771  20.346  0.00  0.00    +0.000 A 
ATOM     13  O   UNL     1       5.120   2.118  20.208  0.00  0.00    +0.000 OA
ATOM     14  H   UNL     1       3.284   1.457  21.672  0.00  0.00    +0.000 HD
ENDBRANCH   3   6
BRANCH   4  15
ATOM     15  O   UNL     1       4.972   2.855  16.846  0.00  0.00    +0.000 OA
ATOM     16  H   UNL     1       4.627   2.716  15.939  0.00  0.00    +0.000 HD
ENDBRANCH   4  15
BRANCH   5  17
ATOM     17  O   UNL     1       6.476   4.946  16.297  0.00  0.00    +0.000 OA
ATOM     18  H   UNL     1       6.532   4.210  15.662  0.00  0.00    +0.000 HD
ENDBRANCH   5  17
BRANCH   1  19
ATOM     19  C   UNL     1       3.696   7.266  17.286  0.00  0.00    +0.000 C 
BRANCH  19  20
ATOM     20  O   UNL     1       2.778   7.275  18.408  0.00  0.00    +0.000 OA
BRANCH  20  21
ATOM     21  P   UNL     1       1.599   8.541  18.390  0.00  0.00    +0.000 P 
ATOM     22  O   UNL     1       2.676   9.407  17.754  0.00  0.00    +0.000 OA
BRANCH  21  23
ATOM     23  O   UNL     1       1.782   8.779  20.004  0.00  0.00    +0.000 OA
ATOM     24  H   UNL     1       1.266   8.195  20.577  0.00  0.00    +0.000 HD
ENDBRANCH  21  23
BRANCH  21  25
ATOM     25  O   UNL     1       0.420   9.806  18.372  0.00  0.00    +0.000 OA
BRANCH  25  26
ATOM     26  P   UNL     1       0.412  10.608  19.906  0.00  0.00    +0.000 P 
ATOM     27  O   UNL     1      -1.079  10.926  19.774  0.00  0.00    +0.000 OA
BRANCH  26  28
ATOM     28  O   UNL     1       1.479  11.754  19.494  0.00  0.00    +0.000 OA
ATOM     29  H   UNL     1       2.030  12.085  20.219  0.00  0.00    +0.000 HD
ENDBRANCH  26  28
BRANCH  26  30
ATOM     30  O   UNL     1       0.405  11.410  21.439  0.00  0.00    +0.000 OA
BRANCH  30  31
ATOM     31  C   UNL     1      -0.736  11.001  22.204  0.00  0.00    +0.000 C 
BRANCH  31  32
ATOM     32  C   UNL     1      -1.256  12.161  23.002  0.00  0.00    +0.000 C 
BRANCH  32  34
ATOM     33  N   UNL     1      -3.985  12.392  22.516  0.00  0.00    +0.000 NA
ATOM     34  C   UNL     1      -2.748  12.287  22.737  0.00  0.00    +0.000 C 
ENDBRANCH  32  34
ENDBRANCH  31  32
ENDBRANCH  30  31
ENDBRANCH  26  30
ENDBRANCH  25  26
ENDBRANCH  21  25
ENDBRANCH  20  21
ENDBRANCH  19  20
ENDBRANCH   1  19
TORSDOF 14
ENDMDL
