MODEL 1
REMARK VINA RESULT:      -4.0      0.000      0.000
REMARK  Name = 
REMARK  0 active torsions:
REMARK  status: ('A' for Active; 'I' for Inactive)
REMARK                            x       y       z     vdW  Elec       q    Type
REMARK                         _______ _______ _______ _____ _____    ______ ____
ROOT
ATOM      1  O   UNL     1       1.494   2.540  22.119  0.00  0.00    +0.000 OA
ATOM      2  C   UNL     1       1.584   3.160  21.069  0.00  0.00    +0.000 C 
ATOM      3  C   UNL     1       2.092   4.559  20.940  0.00  0.00    +0.000 C 
ATOM      4  O   UNL     1       1.884   4.871  19.553  0.00  0.00    +0.000 OA
ATOM      5  C   UNL     1       1.416   3.800  18.846  0.00  0.00    +0.000 C 
ATOM      6  O   UNL     1       1.189   3.823  17.648  0.00  0.00    +0.000 OA
ATOM      7  C   UNL     1       1.233   2.615  19.735  0.00  0.00    +0.000 C 
ENDROOT
TORSDOF 0
ENDMDL
MODEL 2
REMARK VINA RESULT:      -3.9      1.218      1.301
REMARK  Name = 
REMARK  0 active torsions:
REMARK  status: ('A' for Active; 'I' for Inactive)
REMARK                            x       y       z     vdW  Elec       q    Type
REMARK                         _______ _______ _______ _____ _____    ______ ____
ROOT
ATOM      1  O   UNL     1       1.963   2.898  22.224  0.00  0.00    +0.000 OA
ATOM      2  C   UNL     1       2.075   2.980  21.009  0.00  0.00    +0.000 C 
ATOM      3  C   UNL     1       3.334   2.728  20.245  0.00  0.00    +0.000 C 
ATOM      4  O   UNL     1       2.987   3.071  18.894  0.00  0.00    +0.000 OA
ATOM      5  C   UNL     1       1.665   3.390  18.764  0.00  0.00    +0.000 C 
ATOM      6  O   UNL     1       1.140   3.690  17.704  0.00  0.00    +0.000 OA
ATOM      7  C   UNL     1       0.968   3.313  20.081  0.00  0.00    +0.000 C 
ENDROOT
TORSDOF 0
ENDMDL
MODEL 3
REMARK VINA RESULT:      -3.9      1.262      3.172
REMARK  Name = 
REMARK  0 active torsions:
REMARK  status: ('A' for Active; 'I' for Inactive)
REMARK                            x       y       z     vdW  Elec       q    Type
REMARK                         _______ _______ _______ _____ _____    ______ ____
ROOT
ATOM      1  O   UNL     1       1.322   3.354  17.656  0.00  0.00    +0.000 OA
ATOM      2  C   UNL     1       1.716   3.141  18.794  0.00  0.00    +0.000 C 
ATOM      3  C   UNL     1       3.128   2.832  19.169  0.00  0.00    +0.000 C 
ATOM      4  O   UNL     1       3.052   2.543  20.574  0.00  0.00    +0.000 OA
ATOM      5  C   UNL     1       1.798   2.744  21.077  0.00  0.00    +0.000 C 
ATOM      6  O   UNL     1       1.503   2.585  22.250  0.00  0.00    +0.000 OA
ATOM      7  C   UNL     1       0.860   3.185  20.004  0.00  0.00    +0.000 C 
ENDROOT
TORSDOF 0
ENDMDL
MODEL 4
REMARK VINA RESULT:      -3.9      0.786      2.892
REMARK  Name = 
REMARK  0 active torsions:
REMARK  status: ('A' for Active; 'I' for Inactive)
REMARK                            x       y       z     vdW  Elec       q    Type
REMARK                         _______ _______ _______ _____ _____    ______ ____
ROOT
ATOM      1  O   UNL     1       1.220   3.883  17.669  0.00  0.00    +0.000 OA
ATOM      2  C   UNL     1       1.417   3.875  18.876  0.00  0.00    +0.000 C 
ATOM      3  C   UNL     1       2.131   4.946  19.634  0.00  0.00    +0.000 C 
ATOM      4  O   UNL     1       2.212   4.421  20.970  0.00  0.00    +0.000 OA
ATOM      5  C   UNL     1       1.549   3.234  21.101  0.00  0.00    +0.000 C 
ATOM      6  O   UNL     1       1.462   2.616  22.149  0.00  0.00    +0.000 OA
ATOM      7  C   UNL     1       0.951   2.813  19.800  0.00  0.00    +0.000 C 
ENDROOT
TORSDOF 0
ENDMDL
MODEL 5
REMARK VINA RESULT:      -3.9      6.500      6.756
REMARK  Name = 
REMARK  0 active torsions:
REMARK  status: ('A' for Active; 'I' for Inactive)
REMARK                            x       y       z     vdW  Elec       q    Type
REMARK                         _______ _______ _______ _____ _____    ______ ____
ROOT
ATOM      1  O   UNL     1       7.818   5.332  19.857  0.00  0.00    +0.000 OA
ATOM      2  C   UNL     1       7.662   5.703  18.702  0.00  0.00    +0.000 C 
ATOM      3  C   UNL     1       7.854   7.103  18.218  0.00  0.00    +0.000 C 
ATOM      4  O   UNL     1       7.434   7.050  16.845  0.00  0.00    +0.000 OA
ATOM      5  C   UNL     1       7.122   5.780  16.448  0.00  0.00    +0.000 C 
ATOM      6  O   UNL     1       6.764   5.490  15.319  0.00  0.00    +0.000 OA
ATOM      7  C   UNL     1       7.285   4.816  17.575  0.00  0.00    +0.000 C 
ENDROOT
TORSDOF 0
ENDMDL
MODEL 6
REMARK VINA RESULT:      -3.9      5.183      5.958
REMARK  Name = 
REMARK  0 active torsions:
REMARK  status: ('A' for Active; 'I' for Inactive)
REMARK                            x       y       z     vdW  Elec       q    Type
REMARK                         _______ _______ _______ _____ _____    ______ ____
ROOT
ATOM      1  O   UNL     1       7.980   4.452  16.656  0.00  0.00    +0.000 OA
ATOM      2  C   UNL     1       7.307   4.769  17.627  0.00  0.00    +0.000 C 
ATOM      3  C   UNL     1       7.844   5.379  18.880  0.00  0.00    +0.000 C 
ATOM      4  O   UNL     1       6.698   5.445  19.745  0.00  0.00    +0.000 OA
ATOM      5  C   UNL     1       5.552   5.047  19.118  0.00  0.00    +0.000 C 
ATOM      6  O   UNL     1       4.454   5.043  19.648  0.00  0.00    +0.000 OA
ATOM      7  C   UNL     1       5.833   4.632  17.712  0.00  0.00    +0.000 C 
ENDROOT
TORSDOF 0
ENDMDL
MODEL 7
REMARK VINA RESULT:      -3.8      5.716      6.845
REMARK  Name = 
REMARK  0 active torsions:
REMARK  status: ('A' for Active; 'I' for Inactive)
REMARK                            x       y       z     vdW  Elec       q    Type
REMARK                         _______ _______ _______ _____ _____    ______ ____
ROOT
ATOM      1  O   UNL     1       6.691   6.264  15.846  0.00  0.00    +0.000 OA
ATOM      2  C   UNL     1       6.796   5.740  16.947  0.00  0.00    +0.000 C 
ATOM      3  C   UNL     1       6.212   4.419  17.327  0.00  0.00    +0.000 C 
ATOM      4  O   UNL     1       6.500   4.311  18.731  0.00  0.00    +0.000 OA
ATOM      5  C   UNL     1       7.261   5.350  19.185  0.00  0.00    +0.000 C 
ATOM      6  O   UNL     1       7.647   5.457  20.337  0.00  0.00    +0.000 OA
ATOM      7  C   UNL     1       7.552   6.316  18.086  0.00  0.00    +0.000 C 
ENDROOT
TORSDOF 0
ENDMDL
MODEL 8
REMARK VINA RESULT:      -3.8      5.517      6.634
REMARK  Name = 
REMARK  0 active torsions:
REMARK  status: ('A' for Active; 'I' for Inactive)
REMARK                            x       y       z     vdW  Elec       q    Type
REMARK                         _______ _______ _______ _____ _____    ______ ____
ROOT
ATOM      1  O   UNL     1       7.636   5.248  14.919  0.00  0.00    +0.000 OA
ATOM      2  C   UNL     1       6.921   4.882  15.842  0.00  0.00    +0.000 C 
ATOM      3  C   UNL     1       5.500   4.442  15.702  0.00  0.00    +0.000 C 
ATOM      4  O   UNL     1       5.072   4.240  17.059  0.00  0.00    +0.000 OA
ATOM      5  C   UNL     1       6.089   4.409  17.954  0.00  0.00    +0.000 C 
ATOM      6  O   UNL     1       5.965   4.264  19.159  0.00  0.00    +0.000 OA
ATOM      7  C   UNL     1       7.355   4.782  17.256  0.00  0.00    +0.000 C 
ENDROOT
TORSDOF 0
ENDMDL
MODEL 9
REMARK VINA RESULT:      -3.8      5.476      6.347
REMARK  Name = 
REMARK  0 active torsions:
REMARK  status: ('A' for Active; 'I' for Inactive)
REMARK                            x       y       z     vdW  Elec       q    Type
REMARK                         _______ _______ _______ _____ _____    ______ ____
ROOT
ATOM      1  O   UNL     1       7.575   6.553  16.352  0.00  0.00    +0.000 OA
ATOM      2  C   UNL     1       7.177   6.001  17.368  0.00  0.00    +0.000 C 
ATOM      3  C   UNL     1       7.745   6.206  18.734  0.00  0.00    +0.000 C 
ATOM      4  O   UNL     1       7.033   5.258  19.546  0.00  0.00    +0.000 OA
ATOM      5  C   UNL     1       6.058   4.605  18.845  0.00  0.00    +0.000 C 
ATOM      6  O   UNL     1       5.311   3.774  19.333  0.00  0.00    +0.000 OA
ATOM      7  C   UNL     1       6.036   5.055  17.422  0.00  0.00    +0.000 C 
ENDROOT
TORSDOF 0
ENDMDL
