MODEL 1
REMARK VINA RESULT:      -7.7      0.000      0.000
REMARK  Name = 
REMARK  5 active torsions:
REMARK  status: ('A' for Active; 'I' for Inactive)
REMARK    1  A    between atoms: C_1  and  C_2
REMARK    2  A    between atoms: C_2  and  C_4
REMARK    3  A    between atoms: C_4  and  S_5
REMARK    4  A    between atoms: S_5  and  C_6
REMARK    5  A    between atoms: C_8  and  C_9
REMARK                            x       y       z     vdW  Elec       q    Type
REMARK                         _______ _______ _______ _____ _____    ______ ____
ROOT
ATOM      1  C   UNL     1       5.474   5.041  16.725  0.00  0.00    +0.000 A 
ATOM      2  C   UNL     1       4.305   4.519  17.141  0.00  0.00    +0.000 A 
ATOM      3  C   UNL     1       4.137   4.336  18.621  0.00  0.00    +0.000 A 
ATOM      4  N   UNL     1       5.021   4.678  19.512  0.00  0.00    +0.000 NA
ATOM      5  C   UNL     1       6.186   5.213  19.056  0.00  0.00    +0.000 A 
ATOM      6  N   UNL     1       7.226   5.625  19.747  0.00  0.00    +0.000 NA
ATOM      7  C   UNL     1       8.087   6.064  18.795  0.00  0.00    +0.000 A 
ATOM      8  N   UNL     1       7.662   5.968  17.539  0.00  0.00    +0.000 NA
ATOM      9  N   UNL     1       6.432   5.401  17.686  0.00  0.00    +0.000 N 
ENDROOT
BRANCH   3  10
ATOM     10  C   UNL     1       2.841   3.751  19.071  0.00  0.00    +0.000 A 
ATOM     11  C   UNL     1       2.044   2.990  18.205  0.00  0.00    +0.000 A 
ATOM     12  C   UNL     1       0.821   2.482  18.649  0.00  0.00    +0.000 A 
ATOM     13  C   UNL     1       0.395   2.720  19.955  0.00  0.00    +0.000 A 
ATOM     14  C   UNL     1       1.198   3.450  20.828  0.00  0.00    +0.000 A 
ATOM     15  C   UNL     1       2.424   3.960  20.390  0.00  0.00    +0.000 A 
ENDBRANCH   3  10
BRANCH   1  16
ATOM     16  S   UNL     1       5.685   5.346  15.017  0.00  0.00    +0.000 S 
BRANCH  16  17
ATOM     17  C   UNL     1       6.249   3.757  14.349  0.00  0.00    +0.000 C 
BRANCH  17  19
ATOM     18  C   UNL     1       5.143   3.275  12.078  0.00  0.00    +0.000 C 
ATOM     19  C   UNL     1       6.320   3.837  12.839  0.00  0.00    +0.000 C 
ATOM     20  O   UNL     1       7.283   4.334  12.256  0.00  0.00    +0.000 OA
ENDBRANCH  17  19
ENDBRANCH  16  17
ENDBRANCH   1  16
TORSDOF 4
ENDMDL
MODEL 2
REMARK VINA RESULT:      -7.7      2.562      6.210
REMARK  Name = 
REMARK  5 active torsions:
REMARK  status: ('A' for Active; 'I' for Inactive)
REMARK    1  A    between atoms: C_1  and  C_2
REMARK    2  A    between atoms: C_2  and  C_4
REMARK    3  A    between atoms: C_4  and  S_5
REMARK    4  A    between atoms: S_5  and  C_6
REMARK    5  A    between atoms: C_8  and  C_9
REMARK                            x       y       z     vdW  Elec       q    Type
REMARK                         _______ _______ _______ _____ _____    ______ ____
ROOT
ATOM      1  C   UNL     1       4.848   4.655  17.617  0.00  0.00    +0.000 A 
ATOM      2  C   UNL     1       5.000   4.458  16.293  0.00  0.00    +0.000 A 
ATOM      3  C   UNL     1       6.389   4.603  15.745  0.00  0.00    +0.000 A 
ATOM      4  N   UNL     1       7.442   4.867  16.462  0.00  0.00    +0.000 NA
ATOM      5  C   UNL     1       7.253   5.049  17.797  0.00  0.00    +0.000 A 
ATOM      6  N   UNL     1       8.146   5.330  18.721  0.00  0.00    +0.000 NA
ATOM      7  C   UNL     1       7.413   5.392  19.862  0.00  0.00    +0.000 A 
ATOM      8  N   UNL     1       6.111   5.160  19.729  0.00  0.00    +0.000 NA
ATOM      9  N   UNL     1       5.983   4.950  18.389  0.00  0.00    +0.000 N 
ENDROOT
BRANCH   3  10
ATOM     10  C   UNL     1       6.544   4.388  14.277  0.00  0.00    +0.000 A 
ATOM     11  C   UNL     1       5.729   3.487  13.581  0.00  0.00    +0.000 A 
ATOM     12  C   UNL     1       5.920   3.286  12.212  0.00  0.00    +0.000 A 
ATOM     13  C   UNL     1       6.914   3.990  11.533  0.00  0.00    +0.000 A 
ATOM     14  C   UNL     1       7.707   4.910  12.215  0.00  0.00    +0.000 A 
ATOM     15  C   UNL     1       7.519   5.116  13.585  0.00  0.00    +0.000 A 
ENDBRANCH   3  10
BRANCH   1  16
ATOM     16  S   UNL     1       3.263   4.421  18.314  0.00  0.00    +0.000 S 
BRANCH  16  17
ATOM     17  C   UNL     1       3.217   2.655  18.726  0.00  0.00    +0.000 C 
BRANCH  17  19
ATOM     18  C   UNL     1       2.724   2.771  21.247  0.00  0.00    +0.000 C 
ATOM     19  C   UNL     1       3.705   2.451  20.144  0.00  0.00    +0.000 C 
ATOM     20  O   UNL     1       4.840   2.045  20.393  0.00  0.00    +0.000 OA
ENDBRANCH  17  19
ENDBRANCH  16  17
ENDBRANCH   1  16
TORSDOF 4
ENDMDL
MODEL 3
REMARK VINA RESULT:      -7.7      4.091      5.548
REMARK  Name = 
REMARK  5 active torsions:
REMARK  status: ('A' for Active; 'I' for Inactive)
REMARK    1  A    between atoms: C_1  and  C_2
REMARK    2  A    between atoms: C_2  and  C_4
REMARK    3  A    between atoms: C_4  and  S_5
REMARK    4  A    between atoms: S_5  and  C_6
REMARK    5  A    between atoms: C_8  and  C_9
REMARK                            x       y       z     vdW  Elec       q    Type
REMARK                         _______ _______ _______ _____ _____    ______ ____
ROOT
ATOM      1  C   UNL     1       3.817   4.346  17.832  0.00  0.00    +0.000 A 
ATOM      2  C   UNL     1       3.024   5.298  18.360  0.00  0.00    +0.000 A 
ATOM      3  C   UNL     1       3.297   6.712  17.940  0.00  0.00    +0.000 A 
ATOM      4  N   UNL     1       4.212   7.065  17.085  0.00  0.00    +0.000 NA
ATOM      5  C   UNL     1       4.987   6.076  16.563  0.00  0.00    +0.000 A 
ATOM      6  N   UNL     1       5.972   6.175  15.697  0.00  0.00    +0.000 NA
ATOM      7  C   UNL     1       6.378   4.892  15.529  0.00  0.00    +0.000 A 
ATOM      8  N   UNL     1       5.711   3.975  16.224  0.00  0.00    +0.000 NA
ATOM      9  N   UNL     1       4.812   4.728  16.917  0.00  0.00    +0.000 N 
ENDROOT
BRANCH   3  10
ATOM     10  C   UNL     1       2.417   7.758  18.535  0.00  0.00    +0.000 A 
ATOM     11  C   UNL     1       1.958   8.843  17.777  0.00  0.00    +0.000 A 
ATOM     12  C   UNL     1       1.159   9.823  18.373  0.00  0.00    +0.000 A 
ATOM     13  C   UNL     1       0.808   9.718  19.718  0.00  0.00    +0.000 A 
ATOM     14  C   UNL     1       1.236   8.625  20.468  0.00  0.00    +0.000 A 
ATOM     15  C   UNL     1       2.035   7.641  19.876  0.00  0.00    +0.000 A 
ENDBRANCH   3  10
BRANCH   1  16
ATOM     16  S   UNL     1       3.487   2.677  18.230  0.00  0.00    +0.000 S 
BRANCH  16  17
ATOM     17  C   UNL     1       3.914   2.548  19.989  0.00  0.00    +0.000 C 
BRANCH  17  19
ATOM     18  C   UNL     1       1.344   2.612  20.066  0.00  0.00    +0.000 C 
ATOM     19  C   UNL     1       2.651   2.598  20.822  0.00  0.00    +0.000 C 
ATOM     20  O   UNL     1       2.681   2.624  22.052  0.00  0.00    +0.000 OA
ENDBRANCH  17  19
ENDBRANCH  16  17
ENDBRANCH   1  16
TORSDOF 4
ENDMDL
MODEL 4
REMARK VINA RESULT:      -7.7      3.728      5.334
REMARK  Name = 
REMARK  5 active torsions:
REMARK  status: ('A' for Active; 'I' for Inactive)
REMARK    1  A    between atoms: C_1  and  C_2
REMARK    2  A    between atoms: C_2  and  C_4
REMARK    3  A    between atoms: C_4  and  S_5
REMARK    4  A    between atoms: S_5  and  C_6
REMARK    5  A    between atoms: C_8  and  C_9
REMARK                            x       y       z     vdW  Elec       q    Type
REMARK                         _______ _______ _______ _____ _____    ______ ____
ROOT
ATOM      1  C   UNL     1       3.958   4.132  17.489  0.00  0.00    +0.000 A 
ATOM      2  C   UNL     1       3.175   5.061  18.070  0.00  0.00    +0.000 A 
ATOM      3  C   UNL     1       3.496   6.496  17.771  0.00  0.00    +0.000 A 
ATOM      4  N   UNL     1       4.443   6.890  16.972  0.00  0.00    +0.000 NA
ATOM      5  C   UNL     1       5.208   5.924  16.394  0.00  0.00    +0.000 A 
ATOM      6  N   UNL     1       6.220   6.065  15.565  0.00  0.00    +0.000 NA
ATOM      7  C   UNL     1       6.598   4.787  15.306  0.00  0.00    +0.000 A 
ATOM      8  N   UNL     1       5.889   3.838  15.908  0.00  0.00    +0.000 NA
ATOM      9  N   UNL     1       4.988   4.558  16.634  0.00  0.00    +0.000 N 
ENDROOT
BRANCH   3  10
ATOM     10  C   UNL     1       2.625   7.516  18.424  0.00  0.00    +0.000 A 
ATOM     11  C   UNL     1       2.183   8.650  17.730  0.00  0.00    +0.000 A 
ATOM     12  C   UNL     1       1.394   9.602  18.379  0.00  0.00    +0.000 A 
ATOM     13  C   UNL     1       1.034   9.422  19.714  0.00  0.00    +0.000 A 
ATOM     14  C   UNL     1       1.445   8.280  20.399  0.00  0.00    +0.000 A 
ATOM     15  C   UNL     1       2.235   7.323  19.754  0.00  0.00    +0.000 A 
ENDBRANCH   3  10
BRANCH   1  16
ATOM     16  S   UNL     1       3.575   2.447  17.744  0.00  0.00    +0.000 S 
BRANCH  16  17
ATOM     17  C   UNL     1       3.052   2.368  19.479  0.00  0.00    +0.000 C 
BRANCH  17  19
ATOM     18  C   UNL     1       1.061   3.402  20.736  0.00  0.00    +0.000 C 
ATOM     19  C   UNL     1       1.556   2.582  19.569  0.00  0.00    +0.000 C 
ATOM     20  O   UNL     1       0.779   2.116  18.736  0.00  0.00    +0.000 OA
ENDBRANCH  17  19
ENDBRANCH  16  17
ENDBRANCH   1  16
TORSDOF 4
ENDMDL
MODEL 5
REMARK VINA RESULT:      -7.6      4.015      5.496
REMARK  Name = 
REMARK  5 active torsions:
REMARK  status: ('A' for Active; 'I' for Inactive)
REMARK    1  A    between atoms: C_1  and  C_2
REMARK    2  A    between atoms: C_2  and  C_4
REMARK    3  A    between atoms: C_4  and  S_5
REMARK    4  A    between atoms: S_5  and  C_6
REMARK    5  A    between atoms: C_8  and  C_9
REMARK                            x       y       z     vdW  Elec       q    Type
REMARK                         _______ _______ _______ _____ _____    ______ ____
ROOT
ATOM      1  C   UNL     1       3.784   4.254  17.606  0.00  0.00    +0.000 A 
ATOM      2  C   UNL     1       3.007   5.205  18.160  0.00  0.00    +0.000 A 
ATOM      3  C   UNL     1       3.380   6.630  17.876  0.00  0.00    +0.000 A 
ATOM      4  N   UNL     1       4.366   6.997  17.112  0.00  0.00    +0.000 NA
ATOM      5  C   UNL     1       5.123   6.010  16.559  0.00  0.00    +0.000 A 
ATOM      6  N   UNL     1       6.167   6.122  15.768  0.00  0.00    +0.000 NA
ATOM      7  C   UNL     1       6.518   4.835  15.521  0.00  0.00    +0.000 A 
ATOM      8  N   UNL     1       5.760   3.905  16.095  0.00  0.00    +0.000 NA
ATOM      9  N   UNL     1       4.856   4.650  16.790  0.00  0.00    +0.000 N 
ENDROOT
BRANCH   3  10
ATOM     10  C   UNL     1       2.516   7.674  18.499  0.00  0.00    +0.000 A 
ATOM     11  C   UNL     1       2.104   7.579  19.834  0.00  0.00    +0.000 A 
ATOM     12  C   UNL     1       1.270   8.559  20.379  0.00  0.00    +0.000 A 
ATOM     13  C   UNL     1       0.857   9.639  19.601  0.00  0.00    +0.000 A 
ATOM     14  C   UNL     1       1.290   9.754  18.282  0.00  0.00    +0.000 A 
ATOM     15  C   UNL     1       2.124   8.777  17.732  0.00  0.00    +0.000 A 
ENDBRANCH   3  10
BRANCH   1  16
ATOM     16  S   UNL     1       3.344   2.580  17.845  0.00  0.00    +0.000 S 
BRANCH  16  17
ATOM     17  C   UNL     1       3.188   2.415  19.644  0.00  0.00    +0.000 C 
BRANCH  17  19
ATOM     18  C   UNL     1       0.726   2.346  18.902  0.00  0.00    +0.000 C 
ATOM     19  C   UNL     1       1.724   2.439  20.032  0.00  0.00    +0.000 C 
ATOM     20  O   UNL     1       1.360   2.529  21.204  0.00  0.00    +0.000 OA
ENDBRANCH  17  19
ENDBRANCH  16  17
ENDBRANCH   1  16
TORSDOF 4
ENDMDL
MODEL 6
REMARK VINA RESULT:      -7.6      2.696      5.972
REMARK  Name = 
REMARK  5 active torsions:
REMARK  status: ('A' for Active; 'I' for Inactive)
REMARK    1  A    between atoms: C_1  and  C_2
REMARK    2  A    between atoms: C_2  and  C_4
REMARK    3  A    between atoms: C_4  and  S_5
REMARK    4  A    between atoms: S_5  and  C_6
REMARK    5  A    between atoms: C_8  and  C_9
REMARK                            x       y       z     vdW  Elec       q    Type
REMARK                         _______ _______ _______ _____ _____    ______ ____
ROOT
ATOM      1  C   UNL     1       4.865   4.945  17.599  0.00  0.00    +0.000 A 
ATOM      2  C   UNL     1       5.015   4.726  16.279  0.00  0.00    +0.000 A 
ATOM      3  C   UNL     1       6.421   4.682  15.758  0.00  0.00    +0.000 A 
ATOM      4  N   UNL     1       7.485   4.804  16.495  0.00  0.00    +0.000 NA
ATOM      5  C   UNL     1       7.297   5.013  17.826  0.00  0.00    +0.000 A 
ATOM      6  N   UNL     1       8.201   5.174  18.768  0.00  0.00    +0.000 NA
ATOM      7  C   UNL     1       7.461   5.336  19.894  0.00  0.00    +0.000 A 
ATOM      8  N   UNL     1       6.142   5.280  19.736  0.00  0.00    +0.000 NA
ATOM      9  N   UNL     1       6.014   5.087  18.394  0.00  0.00    +0.000 N 
ENDROOT
BRANCH   3  10
ATOM     10  C   UNL     1       6.575   4.445  14.293  0.00  0.00    +0.000 A 
ATOM     11  C   UNL     1       5.766   3.525  13.614  0.00  0.00    +0.000 A 
ATOM     12  C   UNL     1       5.956   3.304  12.248  0.00  0.00    +0.000 A 
ATOM     13  C   UNL     1       6.941   4.006  11.554  0.00  0.00    +0.000 A 
ATOM     14  C   UNL     1       7.726   4.946  12.219  0.00  0.00    +0.000 A 
ATOM     15  C   UNL     1       7.540   5.171  13.586  0.00  0.00    +0.000 A 
ENDBRANCH   3  10
BRANCH   1  16
ATOM     16  S   UNL     1       3.250   4.926  18.265  0.00  0.00    +0.000 S 
BRANCH  16  17
ATOM     17  C   UNL     1       2.404   3.614  17.341  0.00  0.00    +0.000 C 
BRANCH  17  19
ATOM     18  C   UNL     1       3.481   1.533  18.401  0.00  0.00    +0.000 C 
ATOM     19  C   UNL     1       2.252   2.391  18.221  0.00  0.00    +0.000 C 
ATOM     20  O   UNL     1       1.185   2.106  18.765  0.00  0.00    +0.000 OA
ENDBRANCH  17  19
ENDBRANCH  16  17
ENDBRANCH   1  16
TORSDOF 4
ENDMDL
MODEL 7
REMARK VINA RESULT:      -7.6      3.733      5.459
REMARK  Name = 
REMARK  5 active torsions:
REMARK  status: ('A' for Active; 'I' for Inactive)
REMARK    1  A    between atoms: C_1  and  C_2
REMARK    2  A    between atoms: C_2  and  C_4
REMARK    3  A    between atoms: C_4  and  S_5
REMARK    4  A    between atoms: S_5  and  C_6
REMARK    5  A    between atoms: C_8  and  C_9
REMARK                            x       y       z     vdW  Elec       q    Type
REMARK                         _______ _______ _______ _____ _____    ______ ____
ROOT
ATOM      1  C   UNL     1       3.828   4.103  17.530  0.00  0.00    +0.000 A 
ATOM      2  C   UNL     1       3.074   5.052  18.118  0.00  0.00    +0.000 A 
ATOM      3  C   UNL     1       3.424   6.477  17.810  0.00  0.00    +0.000 A 
ATOM      4  N   UNL     1       4.369   6.847  16.997  0.00  0.00    +0.000 NA
ATOM      5  C   UNL     1       5.104   5.862  16.412  0.00  0.00    +0.000 A 
ATOM      6  N   UNL     1       6.107   5.976  15.569  0.00  0.00    +0.000 NA
ATOM      7  C   UNL     1       6.452   4.690  15.310  0.00  0.00    +0.000 A 
ATOM      8  N   UNL     1       5.729   3.759  15.924  0.00  0.00    +0.000 NA
ATOM      9  N   UNL     1       4.855   4.502  16.660  0.00  0.00    +0.000 N 
ENDROOT
BRANCH   3  10
ATOM     10  C   UNL     1       2.586   7.520  18.471  0.00  0.00    +0.000 A 
ATOM     11  C   UNL     1       2.189   7.396  19.809  0.00  0.00    +0.000 A 
ATOM     12  C   UNL     1       1.379   8.375  20.390  0.00  0.00    +0.000 A 
ATOM     13  C   UNL     1       0.974   9.482  19.646  0.00  0.00    +0.000 A 
ATOM     14  C   UNL     1       1.393   9.625  18.324  0.00  0.00    +0.000 A 
ATOM     15  C   UNL     1       2.204   8.648  17.738  0.00  0.00    +0.000 A 
ENDBRANCH   3  10
BRANCH   1  16
ATOM     16  S   UNL     1       3.409   2.428  17.796  0.00  0.00    +0.000 S 
BRANCH  16  17
ATOM     17  C   UNL     1       2.213   2.480  19.159  0.00  0.00    +0.000 C 
BRANCH  17  19
ATOM     18  C   UNL     1       2.159   3.140  21.644  0.00  0.00    +0.000 C 
ATOM     19  C   UNL     1       2.950   2.601  20.476  0.00  0.00    +0.000 C 
ATOM     20  O   UNL     1       4.131   2.277  20.596  0.00  0.00    +0.000 OA
ENDBRANCH  17  19
ENDBRANCH  16  17
ENDBRANCH   1  16
TORSDOF 4
ENDMDL
MODEL 8
REMARK VINA RESULT:      -7.5      2.566      6.233
REMARK  Name = 
REMARK  5 active torsions:
REMARK  status: ('A' for Active; 'I' for Inactive)
REMARK    1  A    between atoms: C_1  and  C_2
REMARK    2  A    between atoms: C_2  and  C_4
REMARK    3  A    between atoms: C_4  and  S_5
REMARK    4  A    between atoms: S_5  and  C_6
REMARK    5  A    between atoms: C_8  and  C_9
REMARK                            x       y       z     vdW  Elec       q    Type
REMARK                         _______ _______ _______ _____ _____    ______ ____
ROOT
ATOM      1  C   UNL     1       4.848   4.955  17.544  0.00  0.00    +0.000 A 
ATOM      2  C   UNL     1       5.006   4.732  16.225  0.00  0.00    +0.000 A 
ATOM      3  C   UNL     1       6.415   4.665  15.717  0.00  0.00    +0.000 A 
ATOM      4  N   UNL     1       7.475   4.771  16.463  0.00  0.00    +0.000 NA
ATOM      5  C   UNL     1       7.278   4.985  17.793  0.00  0.00    +0.000 A 
ATOM      6  N   UNL     1       8.176   5.134  18.742  0.00  0.00    +0.000 NA
ATOM      7  C   UNL     1       7.429   5.310  19.861  0.00  0.00    +0.000 A 
ATOM      8  N   UNL     1       6.111   5.274  19.692  0.00  0.00    +0.000 NA
ATOM      9  N   UNL     1       5.992   5.080  18.349  0.00  0.00    +0.000 N 
ENDROOT
BRANCH   3  10
ATOM     10  C   UNL     1       6.579   4.423  14.254  0.00  0.00    +0.000 A 
ATOM     11  C   UNL     1       7.570   5.078  13.512  0.00  0.00    +0.000 A 
ATOM     12  C   UNL     1       7.677   4.853  12.138  0.00  0.00    +0.000 A 
ATOM     13  C   UNL     1       6.808   3.967  11.503  0.00  0.00    +0.000 A 
ATOM     14  C   UNL     1       5.841   3.289  12.243  0.00  0.00    +0.000 A 
ATOM     15  C   UNL     1       5.729   3.510  13.619  0.00  0.00    +0.000 A 
ENDBRANCH   3  10
BRANCH   1  16
ATOM     16  S   UNL     1       3.226   4.963  18.195  0.00  0.00    +0.000 S 
BRANCH  16  17
ATOM     17  C   UNL     1       2.772   3.209  18.276  0.00  0.00    +0.000 C 
BRANCH  17  19
ATOM     18  C   UNL     1       1.112   3.904  20.113  0.00  0.00    +0.000 C 
ATOM     19  C   UNL     1       1.394   3.069  18.886  0.00  0.00    +0.000 C 
ATOM     20  O   UNL     1       0.543   2.317  18.412  0.00  0.00    +0.000 OA
ENDBRANCH  17  19
ENDBRANCH  16  17
ENDBRANCH   1  16
TORSDOF 4
ENDMDL
MODEL 9
REMARK VINA RESULT:      -7.5      3.215      4.150
REMARK  Name = 
REMARK  5 active torsions:
REMARK  status: ('A' for Active; 'I' for Inactive)
REMARK    1  A    between atoms: C_1  and  C_2
REMARK    2  A    between atoms: C_2  and  C_4
REMARK    3  A    between atoms: C_4  and  S_5
REMARK    4  A    between atoms: S_5  and  C_6
REMARK    5  A    between atoms: C_8  and  C_9
REMARK                            x       y       z     vdW  Elec       q    Type
REMARK                         _______ _______ _______ _____ _____    ______ ____
ROOT
ATOM      1  C   UNL     1       4.734   4.890  18.235  0.00  0.00    +0.000 A 
ATOM      2  C   UNL     1       4.097   6.076  18.199  0.00  0.00    +0.000 A 
ATOM      3  C   UNL     1       2.949   6.253  19.147  0.00  0.00    +0.000 A 
ATOM      4  N   UNL     1       2.560   5.362  20.011  0.00  0.00    +0.000 NA
ATOM      5  C   UNL     1       3.233   4.179  20.027  0.00  0.00    +0.000 A 
ATOM      6  N   UNL     1       3.029   3.129  20.792  0.00  0.00    +0.000 NA
ATOM      7  C   UNL     1       3.983   2.252  20.388  0.00  0.00    +0.000 A 
ATOM      8  N   UNL     1       4.790   2.676  19.421  0.00  0.00    +0.000 NA
ATOM      9  N   UNL     1       4.308   3.923  19.160  0.00  0.00    +0.000 N 
ENDROOT
BRANCH   3  10
ATOM     10  C   UNL     1       2.247   7.568  19.095  0.00  0.00    +0.000 A 
ATOM     11  C   UNL     1       2.212   8.331  17.920  0.00  0.00    +0.000 A 
ATOM     12  C   UNL     1       1.572   9.572  17.913  0.00  0.00    +0.000 A 
ATOM     13  C   UNL     1       0.957  10.051  19.068  0.00  0.00    +0.000 A 
ATOM     14  C   UNL     1       0.962   9.282  20.230  0.00  0.00    +0.000 A 
ATOM     15  C   UNL     1       1.600   8.038  20.243  0.00  0.00    +0.000 A 
ENDBRANCH   3  10
BRANCH   1  16
ATOM     16  S   UNL     1       6.128   4.665  17.205  0.00  0.00    +0.000 S 
BRANCH  16  17
ATOM     17  C   UNL     1       5.556   5.187  15.564  0.00  0.00    +0.000 C 
BRANCH  17  19
ATOM     18  C   UNL     1       6.211   3.821  13.486  0.00  0.00    +0.000 C 
ATOM     19  C   UNL     1       6.603   4.841  14.528  0.00  0.00    +0.000 C 
ATOM     20  O   UNL     1       7.719   5.362  14.528  0.00  0.00    +0.000 OA
ENDBRANCH  17  19
ENDBRANCH  16  17
ENDBRANCH   1  16
TORSDOF 4
ENDMDL
