MODEL 1
REMARK VINA RESULT:      -6.0      0.000      0.000
REMARK  Name = 
REMARK  17 active torsions:
REMARK  status: ('A' for Active; 'I' for Inactive)
REMARK    1  A    between atoms: C_1  and  C_2
REMARK    2  A    between atoms: C_2  and  C_3
REMARK    3  A    between atoms: C_3  and  C_4
REMARK    4  A    between atoms: C_4  and  S_5
REMARK    5  A    between atoms: S_5  and  C_6
REMARK    6  A    between atoms: C_6  and  C_7
REMARK    7  A    between atoms: C_7  and  C_8
REMARK    8  A    between atoms: C_8  and  C_9
REMARK    9  A    between atoms: C_9  and  C_10
REMARK   10  A    between atoms: C_10  and  C_11
REMARK   11  A    between atoms: C_11  and  C_12
REMARK   12  A    between atoms: C_12  and  C_13
REMARK   13  A    between atoms: C_13  and  C_14
REMARK   14  A    between atoms: C_14  and  C_15
REMARK   15  A    between atoms: C_15  and  C_16
REMARK   16  A    between atoms: C_19  and  C_20
REMARK   17  A    between atoms: C_19  and  C_21
REMARK                            x       y       z     vdW  Elec       q    Type
REMARK                         _______ _______ _______ _____ _____    ______ ____
ROOT
ATOM      1  C   UNL     1       2.420   5.913  17.839  0.00  0.00    +0.000 C 
ENDROOT
BRANCH   1   2
ATOM      2  C   UNL     1       2.580   6.564  19.208  0.00  0.00    +0.000 C 
BRANCH   2   3
ATOM      3  C   UNL     1       2.027   7.962  19.200  0.00  0.00    +0.000 C 
BRANCH   3   4
ATOM      4  C   UNL     1       2.099   8.569  17.798  0.00  0.00    +0.000 C 
BRANCH   4   5
ATOM      5  C   UNL     1       1.178   9.771  17.687  0.00  0.00    +0.000 C 
BRANCH   5   6
ATOM      6  C   UNL     1       1.655  10.883  18.621  0.00  0.00    +0.000 C 
BRANCH   6   7
ATOM      7  C   UNL     1       0.546  11.879  18.916  0.00  0.00    +0.000 C 
BRANCH   7   8
ATOM      8  S   UNL     1      -0.698  11.006  19.913  0.00  0.00    +0.000 S 
BRANCH   8   9
ATOM      9  C   UNL     1      -2.223  11.851  19.400  0.00  0.00    +0.000 C 
BRANCH   9  10
ATOM     10  C   UNL     1      -2.443  11.521  17.922  0.00  0.00    +0.000 C 
BRANCH  10  12
ATOM     11  C   UNL     1      -2.693   9.721  16.193  0.00  0.00    +0.000 C 
ATOM     12  C   UNL     1      -2.435  10.016  17.663  0.00  0.00    +0.000 C 
ENDBRANCH  10  12
ENDBRANCH   9  10
ENDBRANCH   8   9
ENDBRANCH   7   8
ENDBRANCH   6   7
ENDBRANCH   5   6
ENDBRANCH   4   5
ENDBRANCH   3   4
ENDBRANCH   2   3
ENDBRANCH   1   2
BRANCH   1  13
ATOM     13  C   UNL     1       2.318   4.413  17.982  0.00  0.00    +0.000 C 
BRANCH  13  14
ATOM     14  C   UNL     1       3.390   3.656  17.183  0.00  0.00    +0.000 C 
BRANCH  14  15
ATOM     15  C   UNL     1       4.830   4.043  17.567  0.00  0.00    +0.000 C 
ATOM     16  C   UNL     1       5.680   4.453  16.579  0.00  0.00    +0.000 C 
ATOM     17  C   UNL     1       5.287   4.477  15.099  0.00  0.00    +0.000 C 
BRANCH  15  18
ATOM     18  C   UNL     1       5.131   3.974  19.137  0.00  0.00    +0.000 C 
ATOM     19  O   UNL     1       5.057   2.918  19.763  0.00  0.00    +0.000 OA
ATOM     20  O   UNL     1       5.669   5.101  19.599  0.00  0.00    +0.000 OA
ENDBRANCH  15  18
BRANCH  16  21
ATOM     21  C   UNL     1       7.182   4.955  16.727  0.00  0.00    +0.000 C 
ATOM     22  O   UNL     1       8.036   4.204  17.309  0.00  0.00    +0.000 OA
ATOM     23  O   UNL     1       7.434   5.978  16.020  0.00  0.00    +0.000 OA
ENDBRANCH  16  21
ENDBRANCH  14  15
ENDBRANCH  13  14
ENDBRANCH   1  13
TORSDOF 15
ENDMDL
MODEL 2
REMARK VINA RESULT:      -5.8      1.150      2.565
REMARK  Name = 
REMARK  17 active torsions:
REMARK  status: ('A' for Active; 'I' for Inactive)
REMARK    1  A    between atoms: C_1  and  C_2
REMARK    2  A    between atoms: C_2  and  C_3
REMARK    3  A    between atoms: C_3  and  C_4
REMARK    4  A    between atoms: C_4  and  S_5
REMARK    5  A    between atoms: S_5  and  C_6
REMARK    6  A    between atoms: C_6  and  C_7
REMARK    7  A    between atoms: C_7  and  C_8
REMARK    8  A    between atoms: C_8  and  C_9
REMARK    9  A    between atoms: C_9  and  C_10
REMARK   10  A    between atoms: C_10  and  C_11
REMARK   11  A    between atoms: C_11  and  C_12
REMARK   12  A    between atoms: C_12  and  C_13
REMARK   13  A    between atoms: C_13  and  C_14
REMARK   14  A    between atoms: C_14  and  C_15
REMARK   15  A    between atoms: C_15  and  C_16
REMARK   16  A    between atoms: C_19  and  C_20
REMARK   17  A    between atoms: C_19  and  C_21
REMARK                            x       y       z     vdW  Elec       q    Type
REMARK                         _______ _______ _______ _____ _____    ______ ____
ROOT
ATOM      1  C   UNL     1       1.967   2.334  18.623  0.00  0.00    +0.000 C 
ENDROOT
BRANCH   1   2
ATOM      2  C   UNL     1       1.417   3.747  18.777  0.00  0.00    +0.000 C 
BRANCH   2   3
ATOM      3  C   UNL     1       1.521   4.205  20.205  0.00  0.00    +0.000 C 
BRANCH   3   4
ATOM      4  C   UNL     1       2.277   5.531  20.298  0.00  0.00    +0.000 C 
BRANCH   4   5
ATOM      5  C   UNL     1       1.633   6.578  19.407  0.00  0.00    +0.000 C 
BRANCH   5   6
ATOM      6  C   UNL     1       2.661   7.124  18.416  0.00  0.00    +0.000 C 
BRANCH   6   7
ATOM      7  C   UNL     1       2.380   8.575  18.061  0.00  0.00    +0.000 C 
BRANCH   7   8
ATOM      8  S   UNL     1       1.302   9.239  19.365  0.00  0.00    +0.000 S 
BRANCH   8   9
ATOM      9  C   UNL     1       0.037  10.096  18.379  0.00  0.00    +0.000 C 
BRANCH   9  10
ATOM     10  C   UNL     1       0.049  11.563  18.815  0.00  0.00    +0.000 C 
BRANCH  10  12
ATOM     11  C   UNL     1      -2.309  11.592  17.959  0.00  0.00    +0.000 C 
ATOM     12  C   UNL     1      -1.361  12.109  19.031  0.00  0.00    +0.000 C 
ENDBRANCH  10  12
ENDBRANCH   9  10
ENDBRANCH   8   9
ENDBRANCH   7   8
ENDBRANCH   6   7
ENDBRANCH   5   6
ENDBRANCH   4   5
ENDBRANCH   3   4
ENDBRANCH   2   3
ENDBRANCH   1   2
BRANCH   1  13
ATOM     13  C   UNL     1       3.125   2.327  17.653  0.00  0.00    +0.000 C 
BRANCH  13  14
ATOM     14  C   UNL     1       3.478   3.726  17.124  0.00  0.00    +0.000 C 
BRANCH  14  15
ATOM     15  C   UNL     1       4.917   4.163  17.453  0.00  0.00    +0.000 C 
ATOM     16  C   UNL     1       5.750   4.493  16.422  0.00  0.00    +0.000 C 
ATOM     17  C   UNL     1       5.340   4.378  14.951  0.00  0.00    +0.000 C 
BRANCH  15  18
ATOM     18  C   UNL     1       5.237   4.240  19.020  0.00  0.00    +0.000 C 
ATOM     19  O   UNL     1       5.313   3.228  19.714  0.00  0.00    +0.000 OA
ATOM     20  O   UNL     1       5.619   5.457  19.398  0.00  0.00    +0.000 OA
ENDBRANCH  15  18
BRANCH  16  21
ATOM     21  C   UNL     1       7.247   5.024  16.506  0.00  0.00    +0.000 C 
ATOM     22  O   UNL     1       7.488   6.254  16.262  0.00  0.00    +0.000 OA
ATOM     23  O   UNL     1       8.037   4.194  17.052  0.00  0.00    +0.000 OA
ENDBRANCH  16  21
ENDBRANCH  14  15
ENDBRANCH  13  14
ENDBRANCH   1  13
TORSDOF 15
ENDMDL
MODEL 3
REMARK VINA RESULT:      -5.6      2.826      5.096
REMARK  Name = 
REMARK  17 active torsions:
REMARK  status: ('A' for Active; 'I' for Inactive)
REMARK    1  A    between atoms: C_1  and  C_2
REMARK    2  A    between atoms: C_2  and  C_3
REMARK    3  A    between atoms: C_3  and  C_4
REMARK    4  A    between atoms: C_4  and  S_5
REMARK    5  A    between atoms: S_5  and  C_6
REMARK    6  A    between atoms: C_6  and  C_7
REMARK    7  A    between atoms: C_7  and  C_8
REMARK    8  A    between atoms: C_8  and  C_9
REMARK    9  A    between atoms: C_9  and  C_10
REMARK   10  A    between atoms: C_10  and  C_11
REMARK   11  A    between atoms: C_11  and  C_12
REMARK   12  A    between atoms: C_12  and  C_13
REMARK   13  A    between atoms: C_13  and  C_14
REMARK   14  A    between atoms: C_14  and  C_15
REMARK   15  A    between atoms: C_15  and  C_16
REMARK   16  A    between atoms: C_19  and  C_20
REMARK   17  A    between atoms: C_19  and  C_21
REMARK                            x       y       z     vdW  Elec       q    Type
REMARK                         _______ _______ _______ _____ _____    ______ ____
ROOT
ATOM      1  C   UNL     1       4.115   3.681  17.925  0.00  0.00    +0.000 C 
ENDROOT
BRANCH   1   2
ATOM      2  C   UNL     1       3.788   2.193  17.966  0.00  0.00    +0.000 C 
BRANCH   2   3
ATOM      3  C   UNL     1       2.300   1.976  17.950  0.00  0.00    +0.000 C 
BRANCH   3   4
ATOM      4  C   UNL     1       1.554   3.291  18.178  0.00  0.00    +0.000 C 
BRANCH   4   5
ATOM      5  C   UNL     1       0.774   3.245  19.479  0.00  0.00    +0.000 C 
BRANCH   5   6
ATOM      6  C   UNL     1       1.677   2.761  20.613  0.00  0.00    +0.000 C 
BRANCH   6   7
ATOM      7  C   UNL     1       2.391   3.919  21.292  0.00  0.00    +0.000 C 
BRANCH   7   8
ATOM      8  S   UNL     1       1.492   5.433  20.840  0.00  0.00    +0.000 S 
BRANCH   8   9
ATOM      9  C   UNL     1       2.724   6.284  19.809  0.00  0.00    +0.000 C 
BRANCH   9  10
ATOM     10  C   UNL     1       2.185   7.690  19.536  0.00  0.00    +0.000 C 
BRANCH  10  12
ATOM     11  C   UNL     1       1.756   9.432  17.782  0.00  0.00    +0.000 C 
ATOM     12  C   UNL     1       2.548   8.182  18.136  0.00  0.00    +0.000 C 
ENDBRANCH  10  12
ENDBRANCH   9  10
ENDBRANCH   8   9
ENDBRANCH   7   8
ENDBRANCH   6   7
ENDBRANCH   5   6
ENDBRANCH   4   5
ENDBRANCH   3   4
ENDBRANCH   2   3
ENDBRANCH   1   2
BRANCH   1  13
ATOM     13  C   UNL     1       4.218   4.155  16.495  0.00  0.00    +0.000 C 
BRANCH  13  14
ATOM     14  C   UNL     1       5.262   3.381  15.676  0.00  0.00    +0.000 C 
BRANCH  14  15
ATOM     15  C   UNL     1       6.412   4.263  15.154  0.00  0.00    +0.000 C 
ATOM     16  C   UNL     1       6.615   4.339  13.806  0.00  0.00    +0.000 C 
ATOM     17  C   UNL     1       5.798   3.530  12.794  0.00  0.00    +0.000 C 
BRANCH  15  18
ATOM     18  C   UNL     1       7.202   5.055  16.299  0.00  0.00    +0.000 C 
ATOM     19  O   UNL     1       8.076   4.514  16.973  0.00  0.00    +0.000 OA
ATOM     20  O   UNL     1       6.962   6.364  16.265  0.00  0.00    +0.000 OA
ENDBRANCH  15  18
BRANCH  16  21
ATOM     21  C   UNL     1       7.688   5.217  13.026  0.00  0.00    +0.000 C 
ATOM     22  O   UNL     1       8.649   5.750  13.676  0.00  0.00    +0.000 OA
ATOM     23  O   UNL     1       7.605   5.096  11.765  0.00  0.00    +0.000 OA
ENDBRANCH  16  21
ENDBRANCH  14  15
ENDBRANCH  13  14
ENDBRANCH   1  13
TORSDOF 15
ENDMDL
MODEL 4
REMARK VINA RESULT:      -5.5      1.863      2.611
REMARK  Name = 
REMARK  17 active torsions:
REMARK  status: ('A' for Active; 'I' for Inactive)
REMARK    1  A    between atoms: C_1  and  C_2
REMARK    2  A    between atoms: C_2  and  C_3
REMARK    3  A    between atoms: C_3  and  C_4
REMARK    4  A    between atoms: C_4  and  S_5
REMARK    5  A    between atoms: S_5  and  C_6
REMARK    6  A    between atoms: C_6  and  C_7
REMARK    7  A    between atoms: C_7  and  C_8
REMARK    8  A    between atoms: C_8  and  C_9
REMARK    9  A    between atoms: C_9  and  C_10
REMARK   10  A    between atoms: C_10  and  C_11
REMARK   11  A    between atoms: C_11  and  C_12
REMARK   12  A    between atoms: C_12  and  C_13
REMARK   13  A    between atoms: C_13  and  C_14
REMARK   14  A    between atoms: C_14  and  C_15
REMARK   15  A    between atoms: C_15  and  C_16
REMARK   16  A    between atoms: C_19  and  C_20
REMARK   17  A    between atoms: C_19  and  C_21
REMARK                            x       y       z     vdW  Elec       q    Type
REMARK                         _______ _______ _______ _____ _____    ______ ____
ROOT
ATOM      1  C   UNL     1       2.538   6.912  19.281  0.00  0.00    +0.000 C 
ENDROOT
BRANCH   1   2
ATOM      2  C   UNL     1       1.920   7.643  18.095  0.00  0.00    +0.000 C 
BRANCH   2   3
ATOM      3  C   UNL     1       2.301   9.098  18.110  0.00  0.00    +0.000 C 
BRANCH   3   4
ATOM      4  C   UNL     1       1.061   9.987  18.019  0.00  0.00    +0.000 C 
BRANCH   4   5
ATOM      5  C   UNL     1       0.505  10.274  19.402  0.00  0.00    +0.000 C 
BRANCH   5   6
ATOM      6  C   UNL     1       1.101  11.572  19.945  0.00  0.00    +0.000 C 
BRANCH   6   7
ATOM      7  C   UNL     1       0.068  12.686  19.990  0.00  0.00    +0.000 C 
BRANCH   7   8
ATOM      8  S   UNL     1      -1.560  11.891  20.148  0.00  0.00    +0.000 S 
BRANCH   8   9
ATOM      9  C   UNL     1      -1.999  12.315  21.860  0.00  0.00    +0.000 C 
BRANCH   9  10
ATOM     10  C   UNL     1      -0.916  11.719  22.761  0.00  0.00    +0.000 C 
BRANCH  10  12
ATOM     11  C   UNL     1       0.203   9.565  23.396  0.00  0.00    +0.000 C 
ATOM     12  C   UNL     1      -1.102  10.217  22.965  0.00  0.00    +0.000 C 
ENDBRANCH  10  12
ENDBRANCH   9  10
ENDBRANCH   8   9
ENDBRANCH   7   8
ENDBRANCH   6   7
ENDBRANCH   5   6
ENDBRANCH   4   5
ENDBRANCH   3   4
ENDBRANCH   2   3
ENDBRANCH   1   2
BRANCH   1  13
ATOM     13  C   UNL     1       2.661   5.437  18.980  0.00  0.00    +0.000 C 
BRANCH  13  14
ATOM     14  C   UNL     1       3.364   5.151  17.644  0.00  0.00    +0.000 C 
BRANCH  14  15
ATOM     15  C   UNL     1       4.896   5.044  17.766  0.00  0.00    +0.000 C 
ATOM     16  C   UNL     1       5.666   5.516  16.742  0.00  0.00    +0.000 C 
ATOM     17  C   UNL     1       5.074   6.081  15.447  0.00  0.00    +0.000 C 
BRANCH  15  18
ATOM     18  C   UNL     1       5.401   4.432  19.157  0.00  0.00    +0.000 C 
ATOM     19  O   UNL     1       5.155   3.271  19.479  0.00  0.00    +0.000 OA
ATOM     20  O   UNL     1       6.272   5.229  19.772  0.00  0.00    +0.000 OA
ENDBRANCH  15  18
BRANCH  16  21
ATOM     21  C   UNL     1       7.254   5.571  16.657  0.00  0.00    +0.000 C 
ATOM     22  O   UNL     1       7.899   4.515  16.343  0.00  0.00    +0.000 OA
ATOM     23  O   UNL     1       7.710   6.755  16.681  0.00  0.00    +0.000 OA
ENDBRANCH  16  21
ENDBRANCH  14  15
ENDBRANCH  13  14
ENDBRANCH   1  13
TORSDOF 15
ENDMDL
MODEL 5
REMARK VINA RESULT:      -5.5      1.741      2.547
REMARK  Name = 
REMARK  17 active torsions:
REMARK  status: ('A' for Active; 'I' for Inactive)
REMARK    1  A    between atoms: C_1  and  C_2
REMARK    2  A    between atoms: C_2  and  C_3
REMARK    3  A    between atoms: C_3  and  C_4
REMARK    4  A    between atoms: C_4  and  S_5
REMARK    5  A    between atoms: S_5  and  C_6
REMARK    6  A    between atoms: C_6  and  C_7
REMARK    7  A    between atoms: C_7  and  C_8
REMARK    8  A    between atoms: C_8  and  C_9
REMARK    9  A    between atoms: C_9  and  C_10
REMARK   10  A    between atoms: C_10  and  C_11
REMARK   11  A    between atoms: C_11  and  C_12
REMARK   12  A    between atoms: C_12  and  C_13
REMARK   13  A    between atoms: C_13  and  C_14
REMARK   14  A    between atoms: C_14  and  C_15
REMARK   15  A    between atoms: C_15  and  C_16
REMARK   16  A    between atoms: C_19  and  C_20
REMARK   17  A    between atoms: C_19  and  C_21
REMARK                            x       y       z     vdW  Elec       q    Type
REMARK                         _______ _______ _______ _____ _____    ______ ____
ROOT
ATOM      1  C   UNL     1       1.415   3.868  18.498  0.00  0.00    +0.000 C 
ENDROOT
BRANCH   1   2
ATOM      2  C   UNL     1       1.855   4.302  19.891  0.00  0.00    +0.000 C 
BRANCH   2   3
ATOM      3  C   UNL     1       1.057   5.489  20.356  0.00  0.00    +0.000 C 
BRANCH   3   4
ATOM      4  C   UNL     1       1.955   6.714  20.532  0.00  0.00    +0.000 C 
BRANCH   4   5
ATOM      5  C   UNL     1       2.385   7.260  19.183  0.00  0.00    +0.000 C 
BRANCH   5   6
ATOM      6  C   UNL     1       1.738   8.624  18.941  0.00  0.00    +0.000 C 
BRANCH   6   7
ATOM      7  C   UNL     1       1.105   9.175  20.208  0.00  0.00    +0.000 C 
BRANCH   7   8
ATOM      8  S   UNL     1      -0.339  10.154  19.695  0.00  0.00    +0.000 S 
BRANCH   8   9
ATOM      9  C   UNL     1       0.164  11.825  20.205  0.00  0.00    +0.000 C 
BRANCH   9  10
ATOM     10  C   UNL     1       0.110  12.709  18.957  0.00  0.00    +0.000 C 
BRANCH  10  12
ATOM     11  C   UNL     1       2.479  12.521  18.152  0.00  0.00    +0.000 C 
ATOM     12  C   UNL     1       1.423  13.454  18.724  0.00  0.00    +0.000 C 
ENDBRANCH  10  12
ENDBRANCH   9  10
ENDBRANCH   8   9
ENDBRANCH   7   8
ENDBRANCH   6   7
ENDBRANCH   5   6
ENDBRANCH   4   5
ENDBRANCH   3   4
ENDBRANCH   2   3
ENDBRANCH   1   2
BRANCH   1  13
ATOM     13  C   UNL     1       2.393   4.367  17.461  0.00  0.00    +0.000 C 
BRANCH  13  14
ATOM     14  C   UNL     1       3.535   3.378  17.183  0.00  0.00    +0.000 C 
BRANCH  14  15
ATOM     15  C   UNL     1       4.929   3.936  17.525  0.00  0.00    +0.000 C 
ATOM     16  C   UNL     1       5.760   4.286  16.499  0.00  0.00    +0.000 C 
ATOM     17  C   UNL     1       5.396   4.081  15.026  0.00  0.00    +0.000 C 
BRANCH  15  18
ATOM     18  C   UNL     1       5.203   4.100  19.094  0.00  0.00    +0.000 C 
ATOM     19  O   UNL     1       5.319   5.207  19.616  0.00  0.00    +0.000 OA
ATOM     20  O   UNL     1       5.063   2.953  19.754  0.00  0.00    +0.000 OA
ENDBRANCH  15  18
BRANCH  16  21
ATOM     21  C   UNL     1       7.211   4.932  16.592  0.00  0.00    +0.000 C 
ATOM     22  O   UNL     1       8.105   4.359  17.302  0.00  0.00    +0.000 OA
ATOM     23  O   UNL     1       7.400   5.849  15.736  0.00  0.00    +0.000 OA
ENDBRANCH  16  21
ENDBRANCH  14  15
ENDBRANCH  13  14
ENDBRANCH   1  13
TORSDOF 15
ENDMDL
MODEL 6
REMARK VINA RESULT:      -5.5      2.415      3.584
REMARK  Name = 
REMARK  17 active torsions:
REMARK  status: ('A' for Active; 'I' for Inactive)
REMARK    1  A    between atoms: C_1  and  C_2
REMARK    2  A    between atoms: C_2  and  C_3
REMARK    3  A    between atoms: C_3  and  C_4
REMARK    4  A    between atoms: C_4  and  S_5
REMARK    5  A    between atoms: S_5  and  C_6
REMARK    6  A    between atoms: C_6  and  C_7
REMARK    7  A    between atoms: C_7  and  C_8
REMARK    8  A    between atoms: C_8  and  C_9
REMARK    9  A    between atoms: C_9  and  C_10
REMARK   10  A    between atoms: C_10  and  C_11
REMARK   11  A    between atoms: C_11  and  C_12
REMARK   12  A    between atoms: C_12  and  C_13
REMARK   13  A    between atoms: C_13  and  C_14
REMARK   14  A    between atoms: C_14  and  C_15
REMARK   15  A    between atoms: C_15  and  C_16
REMARK   16  A    between atoms: C_19  and  C_20
REMARK   17  A    between atoms: C_19  and  C_21
REMARK                            x       y       z     vdW  Elec       q    Type
REMARK                         _______ _______ _______ _____ _____    ______ ____
ROOT
ATOM      1  C   UNL     1       2.688   3.181  17.916  0.00  0.00    +0.000 C 
ENDROOT
BRANCH   1   2
ATOM      2  C   UNL     1       2.500   3.693  19.339  0.00  0.00    +0.000 C 
BRANCH   2   3
ATOM      3  C   UNL     1       1.793   5.020  19.339  0.00  0.00    +0.000 C 
BRANCH   3   4
ATOM      4  C   UNL     1       2.685   6.113  19.927  0.00  0.00    +0.000 C 
BRANCH   4   5
ATOM      5  C   UNL     1       2.079   7.484  19.688  0.00  0.00    +0.000 C 
BRANCH   5   6
ATOM      6  C   UNL     1       2.134   7.828  18.200  0.00  0.00    +0.000 C 
BRANCH   6   7
ATOM      7  C   UNL     1       2.135   9.331  17.972  0.00  0.00    +0.000 C 
BRANCH   7   8
ATOM      8  S   UNL     1       0.476   9.932  18.410  0.00  0.00    +0.000 S 
BRANCH   8   9
ATOM      9  C   UNL     1       0.856  11.050  19.793  0.00  0.00    +0.000 C 
BRANCH   9  10
ATOM     10  C   UNL     1      -0.251  10.867  20.833  0.00  0.00    +0.000 C 
BRANCH  10  12
ATOM     11  C   UNL     1      -0.352   9.736  23.071  0.00  0.00    +0.000 C 
ATOM     12  C   UNL     1      -0.124   9.540  21.579  0.00  0.00    +0.000 C 
ENDBRANCH  10  12
ENDBRANCH   9  10
ENDBRANCH   8   9
ENDBRANCH   7   8
ENDBRANCH   6   7
ENDBRANCH   5   6
ENDBRANCH   4   5
ENDBRANCH   3   4
ENDBRANCH   2   3
ENDBRANCH   1   2
BRANCH   1  13
ATOM     13  C   UNL     1       3.534   4.147  17.121  0.00  0.00    +0.000 C 
BRANCH  13  14
ATOM     14  C   UNL     1       5.027   3.781  17.120  0.00  0.00    +0.000 C 
BRANCH  14  15
ATOM     15  C   UNL     1       5.954   4.986  16.874  0.00  0.00    +0.000 C 
ATOM     16  C   UNL     1       6.464   5.647  17.955  0.00  0.00    +0.000 C 
ATOM     17  C   UNL     1       6.098   5.290  19.398  0.00  0.00    +0.000 C 
BRANCH  15  18
ATOM     18  C   UNL     1       6.262   5.272  15.329  0.00  0.00    +0.000 C 
ATOM     19  O   UNL     1       5.531   5.989  14.647  0.00  0.00    +0.000 OA
ATOM     20  O   UNL     1       7.470   4.847  14.967  0.00  0.00    +0.000 OA
ENDBRANCH  15  18
BRANCH  16  21
ATOM     21  C   UNL     1       7.480   6.872  17.963  0.00  0.00    +0.000 C 
ATOM     22  O   UNL     1       8.408   6.907  18.839  0.00  0.00    +0.000 OA
ATOM     23  O   UNL     1       7.401   7.587  16.917  0.00  0.00    +0.000 OA
ENDBRANCH  16  21
ENDBRANCH  14  15
ENDBRANCH  13  14
ENDBRANCH   1  13
TORSDOF 15
ENDMDL
MODEL 7
REMARK VINA RESULT:      -5.5      6.127      8.750
REMARK  Name = 
REMARK  17 active torsions:
REMARK  status: ('A' for Active; 'I' for Inactive)
REMARK    1  A    between atoms: C_1  and  C_2
REMARK    2  A    between atoms: C_2  and  C_3
REMARK    3  A    between atoms: C_3  and  C_4
REMARK    4  A    between atoms: C_4  and  S_5
REMARK    5  A    between atoms: S_5  and  C_6
REMARK    6  A    between atoms: C_6  and  C_7
REMARK    7  A    between atoms: C_7  and  C_8
REMARK    8  A    between atoms: C_8  and  C_9
REMARK    9  A    between atoms: C_9  and  C_10
REMARK   10  A    between atoms: C_10  and  C_11
REMARK   11  A    between atoms: C_11  and  C_12
REMARK   12  A    between atoms: C_12  and  C_13
REMARK   13  A    between atoms: C_13  and  C_14
REMARK   14  A    between atoms: C_14  and  C_15
REMARK   15  A    between atoms: C_15  and  C_16
REMARK   16  A    between atoms: C_19  and  C_20
REMARK   17  A    between atoms: C_19  and  C_21
REMARK                            x       y       z     vdW  Elec       q    Type
REMARK                         _______ _______ _______ _____ _____    ______ ____
ROOT
ATOM      1  C   UNL     1       8.294   8.204  18.445  0.00  0.00    +0.000 C 
ENDROOT
BRANCH   1   2
ATOM      2  C   UNL     1       7.544   7.746  17.200  0.00  0.00    +0.000 C 
BRANCH   2   3
ATOM      3  C   UNL     1       6.991   6.360  17.391  0.00  0.00    +0.000 C 
BRANCH   3   4
ATOM      4  C   UNL     1       6.135   5.945  16.194  0.00  0.00    +0.000 C 
BRANCH   4   5
ATOM      5  C   UNL     1       4.950   5.112  16.648  0.00  0.00    +0.000 C 
BRANCH   5   6
ATOM      6  C   UNL     1       4.771   5.237  18.160  0.00  0.00    +0.000 C 
BRANCH   6   7
ATOM      7  C   UNL     1       4.748   3.876  18.836  0.00  0.00    +0.000 C 
BRANCH   7   8
ATOM      8  S   UNL     1       3.641   2.818  17.857  0.00  0.00    +0.000 S 
BRANCH   8   9
ATOM      9  C   UNL     1       2.025   3.579  18.201  0.00  0.00    +0.000 C 
BRANCH   9  10
ATOM     10  C   UNL     1       1.501   2.949  19.493  0.00  0.00    +0.000 C 
BRANCH  10  12
ATOM     11  C   UNL     1       1.867   5.184  20.573  0.00  0.00    +0.000 C 
ATOM     12  C   UNL     1       0.928   3.994  20.449  0.00  0.00    +0.000 C 
ENDBRANCH  10  12
ENDBRANCH   9  10
ENDBRANCH   8   9
ENDBRANCH   7   8
ENDBRANCH   6   7
ENDBRANCH   5   6
ENDBRANCH   4   5
ENDBRANCH   3   4
ENDBRANCH   2   3
ENDBRANCH   1   2
BRANCH   1  13
ATOM     13  C   UNL     1       8.648   9.667  18.333  0.00  0.00    +0.000 C 
BRANCH  13  14
ATOM     14  C   UNL     1       9.413  10.199  19.555  0.00  0.00    +0.000 C 
BRANCH  14  15
ATOM     15  C   UNL     1       9.803  11.684  19.437  0.00  0.00    +0.000 C 
ATOM     16  C   UNL     1       9.608  12.496  20.518  0.00  0.00    +0.000 C 
ATOM     17  C   UNL     1       8.953  12.013  21.815  0.00  0.00    +0.000 C 
BRANCH  15  18
ATOM     18  C   UNL     1      10.472  12.078  18.037  0.00  0.00    +0.000 C 
ATOM     19  O   UNL     1       9.947  12.890  17.277  0.00  0.00    +0.000 OA
ATOM     20  O   UNL     1      11.713  11.613  17.921  0.00  0.00    +0.000 OA
ENDBRANCH  15  18
BRANCH  16  21
ATOM     21  C   UNL     1       9.980  14.036  20.664  0.00  0.00    +0.000 C 
ATOM     22  O   UNL     1      11.187  14.408  20.477  0.00  0.00    +0.000 OA
ATOM     23  O   UNL     1       8.959  14.788  20.720  0.00  0.00    +0.000 OA
ENDBRANCH  16  21
ENDBRANCH  14  15
ENDBRANCH  13  14
ENDBRANCH   1  13
TORSDOF 15
ENDMDL
MODEL 8
REMARK VINA RESULT:      -5.4      5.788      8.294
REMARK  Name = 
REMARK  17 active torsions:
REMARK  status: ('A' for Active; 'I' for Inactive)
REMARK    1  A    between atoms: C_1  and  C_2
REMARK    2  A    between atoms: C_2  and  C_3
REMARK    3  A    between atoms: C_3  and  C_4
REMARK    4  A    between atoms: C_4  and  S_5
REMARK    5  A    between atoms: S_5  and  C_6
REMARK    6  A    between atoms: C_6  and  C_7
REMARK    7  A    between atoms: C_7  and  C_8
REMARK    8  A    between atoms: C_8  and  C_9
REMARK    9  A    between atoms: C_9  and  C_10
REMARK   10  A    between atoms: C_10  and  C_11
REMARK   11  A    between atoms: C_11  and  C_12
REMARK   12  A    between atoms: C_12  and  C_13
REMARK   13  A    between atoms: C_13  and  C_14
REMARK   14  A    between atoms: C_14  and  C_15
REMARK   15  A    between atoms: C_15  and  C_16
REMARK   16  A    between atoms: C_19  and  C_20
REMARK   17  A    between atoms: C_19  and  C_21
REMARK                            x       y       z     vdW  Elec       q    Type
REMARK                         _______ _______ _______ _____ _____    ______ ____
ROOT
ATOM      1  C   UNL     1       7.593   8.925  17.774  0.00  0.00    +0.000 C 
ENDROOT
BRANCH   1   2
ATOM      2  C   UNL     1       7.813   7.464  17.399  0.00  0.00    +0.000 C 
BRANCH   2   3
ATOM      3  C   UNL     1       7.982   6.619  18.631  0.00  0.00    +0.000 C 
BRANCH   3   4
ATOM      4  C   UNL     1       7.272   5.274  18.472  0.00  0.00    +0.000 C 
BRANCH   4   5
ATOM      5  C   UNL     1       5.770   5.442  18.616  0.00  0.00    +0.000 C 
BRANCH   5   6
ATOM      6  C   UNL     1       5.056   4.799  17.427  0.00  0.00    +0.000 C 
BRANCH   6   7
ATOM      7  C   UNL     1       3.552   5.000  17.502  0.00  0.00    +0.000 C 
BRANCH   7   8
ATOM      8  S   UNL     1       3.275   6.678  18.144  0.00  0.00    +0.000 S 
BRANCH   8   9
ATOM      9  C   UNL     1       2.357   6.328  19.674  0.00  0.00    +0.000 C 
BRANCH   9  10
ATOM     10  C   UNL     1       2.403   4.813  19.886  0.00  0.00    +0.000 C 
BRANCH  10  12
ATOM     11  C   UNL     1       1.399   2.956  21.240  0.00  0.00    +0.000 C 
ATOM     12  C   UNL     1       1.135   4.289  20.557  0.00  0.00    +0.000 C 
ENDBRANCH  10  12
ENDBRANCH   9  10
ENDBRANCH   8   9
ENDBRANCH   7   8
ENDBRANCH   6   7
ENDBRANCH   5   6
ENDBRANCH   4   5
ENDBRANCH   3   4
ENDBRANCH   2   3
ENDBRANCH   1   2
BRANCH   1  13
ATOM     13  C   UNL     1       8.742   9.426  18.616  0.00  0.00    +0.000 C 
BRANCH  13  14
ATOM     14  C   UNL     1       9.467  10.629  17.993  0.00  0.00    +0.000 C 
BRANCH  14  15
ATOM     15  C   UNL     1       9.489  11.872  18.903  0.00  0.00    +0.000 C 
ATOM     16  C   UNL     1       8.728  12.950  18.552  0.00  0.00    +0.000 C 
ATOM     17  C   UNL     1       7.911  13.007  17.258  0.00  0.00    +0.000 C 
BRANCH  15  18
ATOM     18  C   UNL     1      10.381  11.703  20.222  0.00  0.00    +0.000 C 
ATOM     19  O   UNL     1      11.595  11.896  20.209  0.00  0.00    +0.000 OA
ATOM     20  O   UNL     1       9.640  11.563  21.319  0.00  0.00    +0.000 OA
ENDBRANCH  15  18
BRANCH  16  21
ATOM     21  C   UNL     1       8.539  14.315  19.349  0.00  0.00    +0.000 C 
ATOM     22  O   UNL     1       7.698  14.366  20.308  0.00  0.00    +0.000 OA
ATOM     23  O   UNL     1       9.443  15.168  19.091  0.00  0.00    +0.000 OA
ENDBRANCH  16  21
ENDBRANCH  14  15
ENDBRANCH  13  14
ENDBRANCH   1  13
TORSDOF 15
ENDMDL
MODEL 9
REMARK VINA RESULT:      -5.4      4.749      8.858
REMARK  Name = 
REMARK  17 active torsions:
REMARK  status: ('A' for Active; 'I' for Inactive)
REMARK    1  A    between atoms: C_1  and  C_2
REMARK    2  A    between atoms: C_2  and  C_3
REMARK    3  A    between atoms: C_3  and  C_4
REMARK    4  A    between atoms: C_4  and  S_5
REMARK    5  A    between atoms: S_5  and  C_6
REMARK    6  A    between atoms: C_6  and  C_7
REMARK    7  A    between atoms: C_7  and  C_8
REMARK    8  A    between atoms: C_8  and  C_9
REMARK    9  A    between atoms: C_9  and  C_10
REMARK   10  A    between atoms: C_10  and  C_11
REMARK   11  A    between atoms: C_11  and  C_12
REMARK   12  A    between atoms: C_12  and  C_13
REMARK   13  A    between atoms: C_13  and  C_14
REMARK   14  A    between atoms: C_14  and  C_15
REMARK   15  A    between atoms: C_15  and  C_16
REMARK   16  A    between atoms: C_19  and  C_20
REMARK   17  A    between atoms: C_19  and  C_21
REMARK                            x       y       z     vdW  Elec       q    Type
REMARK                         _______ _______ _______ _____ _____    ______ ____
ROOT
ATOM      1  C   UNL     1       1.445   9.375  17.854  0.00  0.00    +0.000 C 
ENDROOT
BRANCH   1   2
ATOM      2  C   UNL     1       2.517   8.301  17.714  0.00  0.00    +0.000 C 
BRANCH   2   3
ATOM      3  C   UNL     1       2.205   7.120  18.592  0.00  0.00    +0.000 C 
BRANCH   3   4
ATOM      4  C   UNL     1       3.489   6.447  19.076  0.00  0.00    +0.000 C 
BRANCH   4   5
ATOM      5  C   UNL     1       4.395   6.115  17.904  0.00  0.00    +0.000 C 
BRANCH   5   6
ATOM      6  C   UNL     1       5.499   5.158  18.351  0.00  0.00    +0.000 C 
BRANCH   6   7
ATOM      7  C   UNL     1       4.926   3.867  18.913  0.00  0.00    +0.000 C 
BRANCH   7   8
ATOM      8  S   UNL     1       3.816   3.185  17.644  0.00  0.00    +0.000 S 
BRANCH   8   9
ATOM      9  C   UNL     1       3.303   1.624  18.422  0.00  0.00    +0.000 C 
BRANCH   9  10
ATOM     10  C   UNL     1       1.983   1.898  19.146  0.00  0.00    +0.000 C 
BRANCH  10  12
ATOM     11  C   UNL     1       0.947   3.960  20.129  0.00  0.00    +0.000 C 
ATOM     12  C   UNL     1       1.448   3.298  18.855  0.00  0.00    +0.000 C 
ENDBRANCH  10  12
ENDBRANCH   9  10
ENDBRANCH   8   9
ENDBRANCH   7   8
ENDBRANCH   6   7
ENDBRANCH   5   6
ENDBRANCH   4   5
ENDBRANCH   3   4
ENDBRANCH   2   3
ENDBRANCH   1   2
BRANCH   1  13
ATOM     13  C   UNL     1       1.225   9.708  19.311  0.00  0.00    +0.000 C 
BRANCH  13  14
ATOM     14  C   UNL     1      -0.229  10.087  19.631  0.00  0.00    +0.000 C 
BRANCH  14  15
ATOM     15  C   UNL     1      -0.456  10.461  21.108  0.00  0.00    +0.000 C 
ATOM     16  C   UNL     1      -1.061  11.652  21.393  0.00  0.00    +0.000 C 
ATOM     17  C   UNL     1      -1.458  12.663  20.313  0.00  0.00    +0.000 C 
BRANCH  15  18
ATOM     18  C   UNL     1       0.004   9.334  22.147  0.00  0.00    +0.000 C 
ATOM     19  O   UNL     1       0.825   9.568  23.032  0.00  0.00    +0.000 OA
ATOM     20  O   UNL     1      -0.753   8.241  22.076  0.00  0.00    +0.000 OA
ENDBRANCH  15  18
BRANCH  16  21
ATOM     21  C   UNL     1      -1.453  12.232  22.821  0.00  0.00    +0.000 C 
ATOM     22  O   UNL     1      -2.454  11.737  23.442  0.00  0.00    +0.000 OA
ATOM     23  O   UNL     1      -0.560  12.989  23.310  0.00  0.00    +0.000 OA
ENDBRANCH  16  21
ENDBRANCH  14  15
ENDBRANCH  13  14
ENDBRANCH   1  13
TORSDOF 15
ENDMDL
