MODEL 1
REMARK VINA RESULT:      -7.6      0.000      0.000
REMARK  Name = 
REMARK  3 active torsions:
REMARK  status: ('A' for Active; 'I' for Inactive)
REMARK    1  A    between atoms: C_2  and  C_3
REMARK    2  A    between atoms: C_2  and  C_14
REMARK    3  A    between atoms: C_3  and  N_4
REMARK                            x       y       z     vdW  Elec       q    Type
REMARK                         _______ _______ _______ _____ _____    ______ ____
ROOT
ATOM      1  C   UNL     1       4.050   4.242  16.351  0.00  0.00    +0.000 C 
ENDROOT
BRANCH   1   2
ATOM      2  N   UNL     1       3.596   3.644  17.586  0.00  0.00    +0.000 N 
ATOM      3  C   UNL     1       3.582   2.305  17.875  0.00  0.00    +0.000 A 
ATOM      4  N   UNL     1       3.054   2.068  19.058  0.00  0.00    +0.000 NA
ATOM      5  C   UNL     1       2.713   3.309  19.557  0.00  0.00    +0.000 A 
ATOM      6  C   UNL     1       2.117   3.767  20.724  0.00  0.00    +0.000 A 
ATOM      7 CL   UNL     1       1.637   2.648  21.902  0.00  0.00    +0.000 Cl
ATOM      8  N   UNL     1       1.898   5.078  20.943  0.00  0.00    +0.000 NA
ATOM      9  C   UNL     1       2.290   5.924  19.973  0.00  0.00    +0.000 A 
ATOM     10  N   UNL     1       2.877   5.630  18.793  0.00  0.00    +0.000 NA
ATOM     11  C   UNL     1       3.055   4.304  18.652  0.00  0.00    +0.000 A 
ENDBRANCH   1   2
BRANCH   1  13
ATOM     12  O   UNL     1       6.095   3.305  15.555  0.00  0.00    +0.000 OA
ATOM     13  C   UNL     1       5.554   4.180  16.231  0.00  0.00    +0.000 C 
BRANCH  13  14
ATOM     14  C   UNL     1       6.406   5.131  17.001  0.00  0.00    +0.000 A 
ATOM     15  C   UNL     1       7.184   4.735  18.097  0.00  0.00    +0.000 A 
ATOM     16  C   UNL     1       7.955   5.680  18.782  0.00  0.00    +0.000 A 
ATOM     17  C   UNL     1       7.948   7.008  18.372  0.00  0.00    +0.000 A 
ATOM     18  F   UNL     1       8.692   7.905  19.031  0.00  0.00    +0.000 F 
ATOM     19  C   UNL     1       7.176   7.418  17.292  0.00  0.00    +0.000 A 
ATOM     20  C   UNL     1       6.399   6.480  16.610  0.00  0.00    +0.000 A 
ENDBRANCH  13  14
ENDBRANCH   1  13
TORSDOF 3
ENDMDL
MODEL 2
REMARK VINA RESULT:      -7.5      0.056      1.084
REMARK  Name = 
REMARK  3 active torsions:
REMARK  status: ('A' for Active; 'I' for Inactive)
REMARK    1  A    between atoms: C_2  and  C_3
REMARK    2  A    between atoms: C_2  and  C_14
REMARK    3  A    between atoms: C_3  and  N_4
REMARK                            x       y       z     vdW  Elec       q    Type
REMARK                         _______ _______ _______ _____ _____    ______ ____
ROOT
ATOM      1  C   UNL     1       4.017   4.218  16.350  0.00  0.00    +0.000 C 
ENDROOT
BRANCH   1   2
ATOM      2  N   UNL     1       3.563   3.613  17.582  0.00  0.00    +0.000 N 
ATOM      3  C   UNL     1       3.537   2.272  17.860  0.00  0.00    +0.000 A 
ATOM      4  N   UNL     1       3.012   2.030  19.043  0.00  0.00    +0.000 NA
ATOM      5  C   UNL     1       2.685   3.270  19.554  0.00  0.00    +0.000 A 
ATOM      6  C   UNL     1       2.099   3.724  20.728  0.00  0.00    +0.000 A 
ATOM      7 CL   UNL     1       1.614   2.600  21.899  0.00  0.00    +0.000 Cl
ATOM      8  N   UNL     1       1.893   5.035  20.959  0.00  0.00    +0.000 NA
ATOM      9  C   UNL     1       2.288   5.885  19.994  0.00  0.00    +0.000 A 
ATOM     10  N   UNL     1       2.867   5.596  18.809  0.00  0.00    +0.000 NA
ATOM     11  C   UNL     1       3.032   4.269  18.656  0.00  0.00    +0.000 A 
ENDBRANCH   1   2
BRANCH   1  13
ATOM     12  O   UNL     1       6.085   3.281  15.617  0.00  0.00    +0.000 OA
ATOM     13  C   UNL     1       5.522   4.180  16.242  0.00  0.00    +0.000 C 
BRANCH  13  14
ATOM     14  C   UNL     1       6.350   5.187  16.964  0.00  0.00    +0.000 A 
ATOM     15  C   UNL     1       6.375   6.543  16.611  0.00  0.00    +0.000 A 
ATOM     16  C   UNL     1       7.181   7.434  17.326  0.00  0.00    +0.000 A 
ATOM     17  C   UNL     1       7.954   6.973  18.387  0.00  0.00    +0.000 A 
ATOM     18  F   UNL     1       8.719   7.834  19.068  0.00  0.00    +0.000 F 
ATOM     19  C   UNL     1       7.945   5.630  18.745  0.00  0.00    +0.000 A 
ATOM     20  C   UNL     1       7.147   4.735  18.029  0.00  0.00    +0.000 A 
ENDBRANCH  13  14
ENDBRANCH   1  13
TORSDOF 3
ENDMDL
MODEL 3
REMARK VINA RESULT:      -7.4      3.784      5.946
REMARK  Name = 
REMARK  3 active torsions:
REMARK  status: ('A' for Active; 'I' for Inactive)
REMARK    1  A    between atoms: C_2  and  C_3
REMARK    2  A    between atoms: C_2  and  C_14
REMARK    3  A    between atoms: C_3  and  N_4
REMARK                            x       y       z     vdW  Elec       q    Type
REMARK                         _______ _______ _______ _____ _____    ______ ____
ROOT
ATOM      1  C   UNL     1       4.692   3.332  17.030  0.00  0.00    +0.000 C 
ENDROOT
BRANCH   1   2
ATOM      2  N   UNL     1       5.265   4.657  16.971  0.00  0.00    +0.000 N 
ATOM      3  C   UNL     1       4.972   5.622  16.044  0.00  0.00    +0.000 A 
ATOM      4  N   UNL     1       5.703   6.703  16.218  0.00  0.00    +0.000 NA
ATOM      5  C   UNL     1       6.505   6.426  17.307  0.00  0.00    +0.000 A 
ATOM      6  C   UNL     1       7.494   7.113  17.998  0.00  0.00    +0.000 A 
ATOM      7 CL   UNL     1       7.928   8.670  17.490  0.00  0.00    +0.000 Cl
ATOM      8  N   UNL     1       8.130   6.573  19.055  0.00  0.00    +0.000 NA
ATOM      9  C   UNL     1       7.754   5.331  19.412  0.00  0.00    +0.000 A 
ATOM     10  N   UNL     1       6.816   4.543  18.842  0.00  0.00    +0.000 NA
ATOM     11  C   UNL     1       6.236   5.155  17.794  0.00  0.00    +0.000 A 
ENDBRANCH   1   2
BRANCH   1  13
ATOM     12  O   UNL     1       2.412   3.672  16.413  0.00  0.00    +0.000 OA
ATOM     13  C   UNL     1       3.209   3.388  17.307  0.00  0.00    +0.000 C 
BRANCH  13  14
ATOM     14  C   UNL     1       2.698   3.181  18.692  0.00  0.00    +0.000 A 
ATOM     15  C   UNL     1       3.535   2.866  19.770  0.00  0.00    +0.000 A 
ATOM     16  C   UNL     1       2.990   2.677  21.044  0.00  0.00    +0.000 A 
ATOM     17  C   UNL     1       1.618   2.803  21.237  0.00  0.00    +0.000 A 
ATOM     18  F   UNL     1       1.106   2.624  22.460  0.00  0.00    +0.000 F 
ATOM     19  C   UNL     1       0.774   3.107  20.177  0.00  0.00    +0.000 A 
ATOM     20  C   UNL     1       1.313   3.291  18.902  0.00  0.00    +0.000 A 
ENDBRANCH  13  14
ENDBRANCH   1  13
TORSDOF 3
ENDMDL
MODEL 4
REMARK VINA RESULT:      -7.3      3.754      5.969
REMARK  Name = 
REMARK  3 active torsions:
REMARK  status: ('A' for Active; 'I' for Inactive)
REMARK    1  A    between atoms: C_2  and  C_3
REMARK    2  A    between atoms: C_2  and  C_14
REMARK    3  A    between atoms: C_3  and  N_4
REMARK                            x       y       z     vdW  Elec       q    Type
REMARK                         _______ _______ _______ _____ _____    ______ ____
ROOT
ATOM      1  C   UNL     1       4.690   3.408  17.052  0.00  0.00    +0.000 C 
ENDROOT
BRANCH   1   2
ATOM      2  N   UNL     1       5.265   4.733  16.990  0.00  0.00    +0.000 N 
ATOM      3  C   UNL     1       4.957   5.703  16.074  0.00  0.00    +0.000 A 
ATOM      4  N   UNL     1       5.692   6.782  16.241  0.00  0.00    +0.000 NA
ATOM      5  C   UNL     1       6.512   6.498  17.314  0.00  0.00    +0.000 A 
ATOM      6  C   UNL     1       7.514   7.180  17.991  0.00  0.00    +0.000 A 
ATOM      7 CL   UNL     1       7.941   8.739  17.485  0.00  0.00    +0.000 Cl
ATOM      8  N   UNL     1       8.167   6.633  19.035  0.00  0.00    +0.000 NA
ATOM      9  C   UNL     1       7.796   5.390  19.391  0.00  0.00    +0.000 A 
ATOM     10  N   UNL     1       6.847   4.606  18.833  0.00  0.00    +0.000 NA
ATOM     11  C   UNL     1       6.250   5.225  17.799  0.00  0.00    +0.000 A 
ENDBRANCH   1   2
BRANCH   1  13
ATOM     12  O   UNL     1       2.429   3.688  16.344  0.00  0.00    +0.000 OA
ATOM     13  C   UNL     1       3.199   3.466  17.279  0.00  0.00    +0.000 C 
BRANCH  13  14
ATOM     14  C   UNL     1       2.646   3.339  18.657  0.00  0.00    +0.000 A 
ATOM     15  C   UNL     1       1.383   3.825  19.016  0.00  0.00    +0.000 A 
ATOM     16  C   UNL     1       0.928   3.680  20.331  0.00  0.00    +0.000 A 
ATOM     17  C   UNL     1       1.730   3.052  21.277  0.00  0.00    +0.000 A 
ATOM     18  F   UNL     1       1.285   2.914  22.532  0.00  0.00    +0.000 F 
ATOM     19  C   UNL     1       2.989   2.571  20.939  0.00  0.00    +0.000 A 
ATOM     20  C   UNL     1       3.450   2.719  19.629  0.00  0.00    +0.000 A 
ENDBRANCH  13  14
ENDBRANCH   1  13
TORSDOF 3
ENDMDL
MODEL 5
REMARK VINA RESULT:      -7.2      3.361      5.302
REMARK  Name = 
REMARK  3 active torsions:
REMARK  status: ('A' for Active; 'I' for Inactive)
REMARK    1  A    between atoms: C_2  and  C_3
REMARK    2  A    between atoms: C_2  and  C_14
REMARK    3  A    between atoms: C_3  and  N_4
REMARK                            x       y       z     vdW  Elec       q    Type
REMARK                         _______ _______ _______ _____ _____    ______ ____
ROOT
ATOM      1  C   UNL     1       3.858   3.079  17.937  0.00  0.00    +0.000 C 
ENDROOT
BRANCH   1   2
ATOM      2  N   UNL     1       4.916   3.987  18.319  0.00  0.00    +0.000 N 
ATOM      3  C   UNL     1       5.294   4.288  19.601  0.00  0.00    +0.000 A 
ATOM      4  N   UNL     1       6.249   5.195  19.626  0.00  0.00    +0.000 NA
ATOM      5  C   UNL     1       6.500   5.493  18.301  0.00  0.00    +0.000 A 
ATOM      6  C   UNL     1       7.358   6.357  17.635  0.00  0.00    +0.000 A 
ATOM      7 CL   UNL     1       8.398   7.346  18.535  0.00  0.00    +0.000 Cl
ATOM      8  N   UNL     1       7.382   6.440  16.291  0.00  0.00    +0.000 NA
ATOM      9  C   UNL     1       6.531   5.639  15.624  0.00  0.00    +0.000 A 
ATOM     10  N   UNL     1       5.643   4.755  16.129  0.00  0.00    +0.000 NA
ATOM     11  C   UNL     1       5.681   4.738  17.473  0.00  0.00    +0.000 A 
ENDBRANCH   1   2
BRANCH   1  13
ATOM     12  O   UNL     1       1.649   3.409  17.095  0.00  0.00    +0.000 OA
ATOM     13  C   UNL     1       2.525   3.785  17.875  0.00  0.00    +0.000 C 
BRANCH  13  14
ATOM     14  C   UNL     1       2.284   5.003  18.700  0.00  0.00    +0.000 A 
ATOM     15  C   UNL     1       1.816   4.945  20.020  0.00  0.00    +0.000 A 
ATOM     16  C   UNL     1       1.604   6.127  20.736  0.00  0.00    +0.000 A 
ATOM     17  C   UNL     1       1.859   7.356  20.138  0.00  0.00    +0.000 A 
ATOM     18  F   UNL     1       1.656   8.482  20.832  0.00  0.00    +0.000 F 
ATOM     19  C   UNL     1       2.316   7.431  18.828  0.00  0.00    +0.000 A 
ATOM     20  C   UNL     1       2.523   6.254  18.106  0.00  0.00    +0.000 A 
ENDBRANCH  13  14
ENDBRANCH   1  13
TORSDOF 3
ENDMDL
MODEL 6
REMARK VINA RESULT:      -7.2      3.375      5.395
REMARK  Name = 
REMARK  3 active torsions:
REMARK  status: ('A' for Active; 'I' for Inactive)
REMARK    1  A    between atoms: C_2  and  C_3
REMARK    2  A    between atoms: C_2  and  C_14
REMARK    3  A    between atoms: C_3  and  N_4
REMARK                            x       y       z     vdW  Elec       q    Type
REMARK                         _______ _______ _______ _____ _____    ______ ____
ROOT
ATOM      1  C   UNL     1       3.879   3.089  18.001  0.00  0.00    +0.000 C 
ENDROOT
BRANCH   1   2
ATOM      2  N   UNL     1       4.932   4.012  18.360  0.00  0.00    +0.000 N 
ATOM      3  C   UNL     1       5.302   4.357  19.633  0.00  0.00    +0.000 A 
ATOM      4  N   UNL     1       6.253   5.267  19.634  0.00  0.00    +0.000 NA
ATOM      5  C   UNL     1       6.511   5.522  18.302  0.00  0.00    +0.000 A 
ATOM      6  C   UNL     1       7.371   6.367  17.613  0.00  0.00    +0.000 A 
ATOM      7 CL   UNL     1       8.402   7.389  18.486  0.00  0.00    +0.000 Cl
ATOM      8  N   UNL     1       7.402   6.407  16.267  0.00  0.00    +0.000 NA
ATOM      9  C   UNL     1       6.558   5.582  15.622  0.00  0.00    +0.000 A 
ATOM     10  N   UNL     1       5.670   4.712  16.149  0.00  0.00    +0.000 NA
ATOM     11  C   UNL     1       5.700   4.738  17.494  0.00  0.00    +0.000 A 
ENDBRANCH   1   2
BRANCH   1  13
ATOM     12  O   UNL     1       1.664   3.357  17.153  0.00  0.00    +0.000 OA
ATOM     13  C   UNL     1       2.546   3.791  17.895  0.00  0.00    +0.000 C 
BRANCH  13  14
ATOM     14  C   UNL     1       2.314   5.070  18.625  0.00  0.00    +0.000 A 
ATOM     15  C   UNL     1       2.565   6.325  18.056  0.00  0.00    +0.000 A 
ATOM     16  C   UNL     1       2.332   7.486  18.800  0.00  0.00    +0.000 A 
ATOM     17  C   UNL     1       1.852   7.391  20.101  0.00  0.00    +0.000 A 
ATOM     18  F   UNL     1       1.629   8.509  20.804  0.00  0.00    +0.000 F 
ATOM     19  C   UNL     1       1.605   6.154  20.682  0.00  0.00    +0.000 A 
ATOM     20  C   UNL     1       1.842   4.991  19.946  0.00  0.00    +0.000 A 
ENDBRANCH  13  14
ENDBRANCH   1  13
TORSDOF 3
ENDMDL
MODEL 7
REMARK VINA RESULT:      -7.1      3.878      5.787
REMARK  Name = 
REMARK  3 active torsions:
REMARK  status: ('A' for Active; 'I' for Inactive)
REMARK    1  A    between atoms: C_2  and  C_3
REMARK    2  A    between atoms: C_2  and  C_14
REMARK    3  A    between atoms: C_3  and  N_4
REMARK                            x       y       z     vdW  Elec       q    Type
REMARK                         _______ _______ _______ _____ _____    ______ ____
ROOT
ATOM      1  C   UNL     1       4.056   5.325  19.735  0.00  0.00    +0.000 C 
ENDROOT
BRANCH   1   2
ATOM      2  N   UNL     1       4.369   4.891  18.392  0.00  0.00    +0.000 N 
ATOM      3  C   UNL     1       3.689   3.945  17.671  0.00  0.00    +0.000 A 
ATOM      4  N   UNL     1       4.252   3.725  16.502  0.00  0.00    +0.000 NA
ATOM      5  C   UNL     1       5.346   4.567  16.464  0.00  0.00    +0.000 A 
ATOM      6  C   UNL     1       6.355   4.823  15.545  0.00  0.00    +0.000 A 
ATOM      7 CL   UNL     1       6.379   3.969  14.082  0.00  0.00    +0.000 Cl
ATOM      8  N   UNL     1       7.325   5.726  15.788  0.00  0.00    +0.000 NA
ATOM      9  C   UNL     1       7.265   6.370  16.967  0.00  0.00    +0.000 A 
ATOM     10  N   UNL     1       6.353   6.229  17.954  0.00  0.00    +0.000 NA
ATOM     11  C   UNL     1       5.426   5.308  17.633  0.00  0.00    +0.000 A 
ENDBRANCH   1   2
BRANCH   1  13
ATOM     12  O   UNL     1       1.755   4.939  20.234  0.00  0.00    +0.000 OA
ATOM     13  C   UNL     1       2.610   5.740  19.855  0.00  0.00    +0.000 C 
BRANCH  13  14
ATOM     14  C   UNL     1       2.186   7.105  19.432  0.00  0.00    +0.000 A 
ATOM     15  C   UNL     1       2.400   7.600  18.139  0.00  0.00    +0.000 A 
ATOM     16  C   UNL     1       1.984   8.894  17.811  0.00  0.00    +0.000 A 
ATOM     17  C   UNL     1       1.358   9.685  18.768  0.00  0.00    +0.000 A 
ATOM     18  F   UNL     1       0.960  10.921  18.443  0.00  0.00    +0.000 F 
ATOM     19  C   UNL     1       1.145   9.212  20.056  0.00  0.00    +0.000 A 
ATOM     20  C   UNL     1       1.564   7.923  20.391  0.00  0.00    +0.000 A 
ENDBRANCH  13  14
ENDBRANCH   1  13
TORSDOF 3
ENDMDL
MODEL 8
REMARK VINA RESULT:      -7.1      3.570      5.554
REMARK  Name = 
REMARK  3 active torsions:
REMARK  status: ('A' for Active; 'I' for Inactive)
REMARK    1  A    between atoms: C_2  and  C_3
REMARK    2  A    between atoms: C_2  and  C_14
REMARK    3  A    between atoms: C_3  and  N_4
REMARK                            x       y       z     vdW  Elec       q    Type
REMARK                         _______ _______ _______ _____ _____    ______ ____
ROOT
ATOM      1  C   UNL     1       4.490   3.596  17.157  0.00  0.00    +0.000 C 
ENDROOT
BRANCH   1   2
ATOM      2  N   UNL     1       5.211   4.841  17.022  0.00  0.00    +0.000 N 
ATOM      3  C   UNL     1       5.087   5.737  15.994  0.00  0.00    +0.000 A 
ATOM      4  N   UNL     1       5.923   6.746  16.123  0.00  0.00    +0.000 NA
ATOM      5  C   UNL     1       6.618   6.492  17.288  0.00  0.00    +0.000 A 
ATOM      6  C   UNL     1       7.633   7.133  17.986  0.00  0.00    +0.000 A 
ATOM      7 CL   UNL     1       8.270   8.579  17.374  0.00  0.00    +0.000 Cl
ATOM      8  N   UNL     1       8.135   6.634  19.131  0.00  0.00    +0.000 NA
ATOM      9  C   UNL     1       7.601   5.479  19.569  0.00  0.00    +0.000 A 
ATOM     10  N   UNL     1       6.618   4.744  19.004  0.00  0.00    +0.000 NA
ATOM     11  C   UNL     1       6.177   5.310  17.866  0.00  0.00    +0.000 A 
ENDBRANCH   1   2
BRANCH   1  13
ATOM     12  O   UNL     1       2.159   3.257  16.776  0.00  0.00    +0.000 OA
ATOM     13  C   UNL     1       3.025   3.837  17.431  0.00  0.00    +0.000 C 
BRANCH  13  14
ATOM     14  C   UNL     1       2.610   4.848  18.446  0.00  0.00    +0.000 A 
ATOM     15  C   UNL     1       2.550   6.220  18.169  0.00  0.00    +0.000 A 
ATOM     16  C   UNL     1       2.160   7.115  19.170  0.00  0.00    +0.000 A 
ATOM     17  C   UNL     1       1.833   6.642  20.435  0.00  0.00    +0.000 A 
ATOM     18  F   UNL     1       1.458   7.507  21.386  0.00  0.00    +0.000 F 
ATOM     19  C   UNL     1       1.895   5.285  20.727  0.00  0.00    +0.000 A 
ATOM     20  C   UNL     1       2.290   4.387  19.734  0.00  0.00    +0.000 A 
ENDBRANCH  13  14
ENDBRANCH   1  13
TORSDOF 3
ENDMDL
MODEL 9
REMARK VINA RESULT:      -7.1      3.023      4.121
REMARK  Name = 
REMARK  3 active torsions:
REMARK  status: ('A' for Active; 'I' for Inactive)
REMARK    1  A    between atoms: C_2  and  C_3
REMARK    2  A    between atoms: C_2  and  C_14
REMARK    3  A    between atoms: C_3  and  N_4
REMARK                            x       y       z     vdW  Elec       q    Type
REMARK                         _______ _______ _______ _____ _____    ______ ____
ROOT
ATOM      1  C   UNL     1       6.835   4.790  17.810  0.00  0.00    +0.000 C 
ENDROOT
BRANCH   1   2
ATOM      2  N   UNL     1       5.495   5.003  18.309  0.00  0.00    +0.000 N 
ATOM      3  C   UNL     1       4.738   6.129  18.129  0.00  0.00    +0.000 A 
ATOM      4  N   UNL     1       3.583   6.045  18.756  0.00  0.00    +0.000 NA
ATOM      5  C   UNL     1       3.593   4.808  19.368  0.00  0.00    +0.000 A 
ATOM      6  C   UNL     1       2.711   4.107  20.179  0.00  0.00    +0.000 A 
ATOM      7 CL   UNL     1       1.235   4.821  20.606  0.00  0.00    +0.000 Cl
ATOM      8  N   UNL     1       2.999   2.878  20.648  0.00  0.00    +0.000 NA
ATOM      9  C   UNL     1       4.187   2.360  20.286  0.00  0.00    +0.000 A 
ATOM     10  N   UNL     1       5.142   2.916  19.510  0.00  0.00    +0.000 NA
ATOM     11  C   UNL     1       4.777   4.141  19.089  0.00  0.00    +0.000 A 
ENDBRANCH   1   2
BRANCH   1  13
ATOM     12  O   UNL     1       7.512   6.648  16.475  0.00  0.00    +0.000 OA
ATOM     13  C   UNL     1       7.053   5.506  16.499  0.00  0.00    +0.000 C 
BRANCH  13  14
ATOM     14  C   UNL     1       6.634   4.867  15.219  0.00  0.00    +0.000 A 
ATOM     15  C   UNL     1       5.440   4.145  15.087  0.00  0.00    +0.000 A 
ATOM     16  C   UNL     1       5.111   3.564  13.859  0.00  0.00    +0.000 A 
ATOM     17  C   UNL     1       5.967   3.704  12.772  0.00  0.00    +0.000 A 
ATOM     18  F   UNL     1       5.641   3.147  11.600  0.00  0.00    +0.000 F 
ATOM     19  C   UNL     1       7.157   4.411  12.890  0.00  0.00    +0.000 A 
ATOM     20  C   UNL     1       7.495   4.987  14.116  0.00  0.00    +0.000 A 
ENDBRANCH  13  14
ENDBRANCH   1  13
TORSDOF 3
ENDMDL
