MODEL 1
REMARK VINA RESULT:      -8.8      0.000      0.000
REMARK  Name = 
REMARK  8 active torsions:
REMARK  status: ('A' for Active; 'I' for Inactive)
REMARK    1  A    between atoms: C_1  and  C_2
REMARK    2  A    between atoms: C_2  and  C_3
REMARK    3  A    between atoms: C_6  and  C_7
REMARK    4  A    between atoms: C_6  and  C_8
REMARK    5  A    between atoms: C_11  and  C_12
REMARK    6  A    between atoms: N_14  and  C_15
REMARK    7  A    between atoms: C_18  and  C_19
REMARK    8  A    between atoms: C_19  and  O_21
REMARK                            x       y       z     vdW  Elec       q    Type
REMARK                         _______ _______ _______ _____ _____    ______ ____
ROOT
ATOM      1  C   UNL     1       1.342   8.076  20.328  0.00  0.00    +0.000 C 
ATOM      2  O   UNL     1       1.908   8.314  19.266  0.00  0.00    +0.000 OA
ATOM      3  N   UNL     1       1.357   6.867  21.007  0.00  0.00    +0.000 N 
ATOM      4  H   UNL     1       0.699   6.752  21.768  0.00  0.00    +0.000 HD
ENDROOT
BRANCH   1  15
ATOM      5  C   UNL     1      -0.937  13.468  23.157  0.00  0.00    +0.000 C 
ATOM      6  C   UNL     1      -1.885  12.472  22.451  0.00  0.00    +0.000 C 
ATOM      7  C   UNL     1      -2.908  11.949  23.490  0.00  0.00    +0.000 C 
ATOM      8  C   UNL     1      -2.718  13.200  21.370  0.00  0.00    +0.000 C 
ATOM      9  C   UNL     1      -1.945  13.465  20.091  0.00  0.00    +0.000 C 
ATOM     10  C   UNL     1      -1.360  12.188  19.447  0.00  0.00    +0.000 C 
ATOM     11  C   UNL     1      -2.440  11.491  18.588  0.00  0.00    +0.000 C 
ATOM     12  C   UNL     1      -0.225  12.668  18.508  0.00  0.00    +0.000 C 
ATOM     13  C   UNL     1      -0.826  11.191  20.484  0.00  0.00    +0.000 A 
ATOM     14  C   UNL     1      -0.073  10.081  20.034  0.00  0.00    +0.000 A 
ATOM     15  C   UNL     1       0.504   9.156  20.912  0.00  0.00    +0.000 A 
ATOM     16  C   UNL     1       0.338   9.326  22.281  0.00  0.00    +0.000 A 
ATOM     17  C   UNL     1      -0.433  10.398  22.744  0.00  0.00    +0.000 A 
ATOM     18  C   UNL     1      -1.049  11.326  21.868  0.00  0.00    +0.000 A 
ENDBRANCH   1  15
BRANCH   3  19
ATOM     19  C   UNL     1       2.053   5.704  20.585  0.00  0.00    +0.000 A 
ATOM     20  C   UNL     1       3.259   5.752  19.876  0.00  0.00    +0.000 A 
ATOM     21  C   UNL     1       3.876   4.581  19.419  0.00  0.00    +0.000 A 
ATOM     22  C   UNL     1       3.302   3.334  19.670  0.00  0.00    +0.000 A 
ATOM     23  C   UNL     1       2.121   3.288  20.411  0.00  0.00    +0.000 A 
ATOM     24  F   UNL     1       1.537   2.108  20.678  0.00  0.00    +0.000 F 
ATOM     25  C   UNL     1       1.502   4.454  20.878  0.00  0.00    +0.000 A 
BRANCH  22  26
ATOM     26  C   UNL     1       3.985   2.131  19.129  0.00  0.00    +0.000 C 
ATOM     27  O   UNL     1       3.618   1.579  18.105  0.00  0.00    +0.000 OA
BRANCH  26  28
ATOM     28  O   UNL     1       5.029   1.674  19.853  0.00  0.00    +0.000 OA
ATOM     29  H   UNL     1       5.660   1.100  19.379  0.00  0.00    +0.000 HD
ENDBRANCH  26  28
ENDBRANCH  22  26
ENDBRANCH   3  19
TORSDOF 4
ENDMDL
MODEL 2
REMARK VINA RESULT:      -8.8      3.425      9.257
REMARK  Name = 
REMARK  8 active torsions:
REMARK  status: ('A' for Active; 'I' for Inactive)
REMARK    1  A    between atoms: C_1  and  C_2
REMARK    2  A    between atoms: C_2  and  C_3
REMARK    3  A    between atoms: C_6  and  C_7
REMARK    4  A    between atoms: C_6  and  C_8
REMARK    5  A    between atoms: C_11  and  C_12
REMARK    6  A    between atoms: N_14  and  C_15
REMARK    7  A    between atoms: C_18  and  C_19
REMARK    8  A    between atoms: C_19  and  O_21
REMARK                            x       y       z     vdW  Elec       q    Type
REMARK                         _______ _______ _______ _____ _____    ______ ____
ROOT
ATOM      1  C   UNL     1       1.497   8.901  18.843  0.00  0.00    +0.000 C 
ATOM      2  O   UNL     1       0.953   9.583  17.981  0.00  0.00    +0.000 OA
ATOM      3  N   UNL     1       1.437   9.117  20.212  0.00  0.00    +0.000 N 
ATOM      4  H   UNL     1       2.081   8.595  20.794  0.00  0.00    +0.000 HD
ENDROOT
BRANCH   1  15
ATOM      5  C   UNL     1       6.234   4.543  17.930  0.00  0.00    +0.000 C 
ATOM      6  C   UNL     1       4.855   4.381  17.250  0.00  0.00    +0.000 C 
ATOM      7  C   UNL     1       5.063   4.368  15.716  0.00  0.00    +0.000 C 
ATOM      8  C   UNL     1       4.242   3.006  17.605  0.00  0.00    +0.000 C 
ATOM      9  C   UNL     1       3.633   2.958  18.993  0.00  0.00    +0.000 C 
ATOM     10  C   UNL     1       2.542   4.028  19.226  0.00  0.00    +0.000 C 
ATOM     11  C   UNL     1       1.189   3.528  18.672  0.00  0.00    +0.000 C 
ATOM     12  C   UNL     1       2.414   4.176  20.763  0.00  0.00    +0.000 C 
ATOM     13  C   UNL     1       2.882   5.375  18.575  0.00  0.00    +0.000 A 
ATOM     14  C   UNL     1       2.083   6.501  18.884  0.00  0.00    +0.000 A 
ATOM     15  C   UNL     1       2.357   7.779  18.384  0.00  0.00    +0.000 A 
ATOM     16  C   UNL     1       3.455   7.961  17.552  0.00  0.00    +0.000 A 
ATOM     17  C   UNL     1       4.237   6.854  17.207  0.00  0.00    +0.000 A 
ATOM     18  C   UNL     1       3.956   5.548  17.679  0.00  0.00    +0.000 A 
ENDBRANCH   1  15
BRANCH   3  19
ATOM     19  C   UNL     1       0.715  10.164  20.840  0.00  0.00    +0.000 A 
ATOM     20  C   UNL     1       0.874  11.512  20.499  0.00  0.00    +0.000 A 
ATOM     21  C   UNL     1       0.190  12.519  21.194  0.00  0.00    +0.000 A 
ATOM     22  C   UNL     1      -0.674  12.196  22.240  0.00  0.00    +0.000 A 
ATOM     23  C   UNL     1      -0.859  10.849  22.551  0.00  0.00    +0.000 A 
ATOM     24  F   UNL     1      -1.685  10.494  23.549  0.00  0.00    +0.000 F 
ATOM     25  C   UNL     1      -0.186   9.836  21.856  0.00  0.00    +0.000 A 
BRANCH  22  26
ATOM     26  C   UNL     1      -1.342  13.309  22.962  0.00  0.00    +0.000 C 
ATOM     27  O   UNL     1      -0.795  13.923  23.862  0.00  0.00    +0.000 OA
BRANCH  26  28
ATOM     28  O   UNL     1      -2.603  13.589  22.568  0.00  0.00    +0.000 OA
ATOM     29  H   UNL     1      -2.772  14.513  22.300  0.00  0.00    +0.000 HD
ENDBRANCH  26  28
ENDBRANCH  22  26
ENDBRANCH   3  19
TORSDOF 4
ENDMDL
MODEL 3
REMARK VINA RESULT:      -8.8      3.539      9.302
REMARK  Name = 
REMARK  8 active torsions:
REMARK  status: ('A' for Active; 'I' for Inactive)
REMARK    1  A    between atoms: C_1  and  C_2
REMARK    2  A    between atoms: C_2  and  C_3
REMARK    3  A    between atoms: C_6  and  C_7
REMARK    4  A    between atoms: C_6  and  C_8
REMARK    5  A    between atoms: C_11  and  C_12
REMARK    6  A    between atoms: N_14  and  C_15
REMARK    7  A    between atoms: C_18  and  C_19
REMARK    8  A    between atoms: C_19  and  O_21
REMARK                            x       y       z     vdW  Elec       q    Type
REMARK                         _______ _______ _______ _____ _____    ______ ____
ROOT
ATOM      1  C   UNL     1       1.497   8.674  19.062  0.00  0.00    +0.000 C 
ATOM      2  O   UNL     1       0.986   9.479  18.290  0.00  0.00    +0.000 OA
ATOM      3  N   UNL     1       1.363   8.669  20.442  0.00  0.00    +0.000 N 
ATOM      4  H   UNL     1       1.984   8.068  20.968  0.00  0.00    +0.000 HD
ENDROOT
BRANCH   1  15
ATOM      5  C   UNL     1       6.403   4.645  17.661  0.00  0.00    +0.000 C 
ATOM      6  C   UNL     1       5.029   4.505  16.967  0.00  0.00    +0.000 C 
ATOM      7  C   UNL     1       5.230   4.673  15.441  0.00  0.00    +0.000 C 
ATOM      8  C   UNL     1       4.474   3.074  17.164  0.00  0.00    +0.000 C 
ATOM      9  C   UNL     1       3.873   2.844  18.537  0.00  0.00    +0.000 C 
ATOM     10  C   UNL     1       2.740   3.835  18.890  0.00  0.00    +0.000 C 
ATOM     11  C   UNL     1       1.406   3.347  18.282  0.00  0.00    +0.000 C 
ATOM     12  C   UNL     1       2.614   3.803  20.434  0.00  0.00    +0.000 C 
ATOM     13  C   UNL     1       3.023   5.260  18.395  0.00  0.00    +0.000 A 
ATOM     14  C   UNL     1       2.180   6.310  18.830  0.00  0.00    +0.000 A 
ATOM     15  C   UNL     1       2.400   7.647  18.479  0.00  0.00    +0.000 A 
ATOM     16  C   UNL     1       3.486   7.967  17.673  0.00  0.00    +0.000 A 
ATOM     17  C   UNL     1       4.310   6.939  17.204  0.00  0.00    +0.000 A 
ATOM     18  C   UNL     1       4.085   5.577  17.526  0.00  0.00    +0.000 A 
ENDBRANCH   1  15
BRANCH   3  19
ATOM     19  C   UNL     1       0.589   9.597  21.188  0.00  0.00    +0.000 A 
ATOM     20  C   UNL     1      -0.022   9.275  22.405  0.00  0.00    +0.000 A 
ATOM     21  C   UNL     1      -0.834  10.201  23.073  0.00  0.00    +0.000 A 
ATOM     22  C   UNL     1      -1.043  11.473  22.540  0.00  0.00    +0.000 A 
ATOM     23  C   UNL     1      -0.400  11.803  21.348  0.00  0.00    +0.000 A 
ATOM     24  F   UNL     1      -0.571  13.019  20.802  0.00  0.00    +0.000 F 
ATOM     25  C   UNL     1       0.420  10.886  20.677  0.00  0.00    +0.000 A 
BRANCH  22  26
ATOM     26  C   UNL     1      -1.942  12.399  23.277  0.00  0.00    +0.000 C 
ATOM     27  O   UNL     1      -1.568  13.489  23.676  0.00  0.00    +0.000 OA
BRANCH  26  28
ATOM     28  O   UNL     1      -3.196  11.949  23.494  0.00  0.00    +0.000 OA
ATOM     29  H   UNL     1      -3.311  11.354  24.260  0.00  0.00    +0.000 HD
ENDBRANCH  26  28
ENDBRANCH  22  26
ENDBRANCH   3  19
TORSDOF 4
ENDMDL
MODEL 4
REMARK VINA RESULT:      -8.6      3.658      9.412
REMARK  Name = 
REMARK  8 active torsions:
REMARK  status: ('A' for Active; 'I' for Inactive)
REMARK    1  A    between atoms: C_1  and  C_2
REMARK    2  A    between atoms: C_2  and  C_3
REMARK    3  A    between atoms: C_6  and  C_7
REMARK    4  A    between atoms: C_6  and  C_8
REMARK    5  A    between atoms: C_11  and  C_12
REMARK    6  A    between atoms: N_14  and  C_15
REMARK    7  A    between atoms: C_18  and  C_19
REMARK    8  A    between atoms: C_19  and  O_21
REMARK                            x       y       z     vdW  Elec       q    Type
REMARK                         _______ _______ _______ _____ _____    ______ ____
ROOT
ATOM      1  C   UNL     1       1.863   9.182  18.075  0.00  0.00    +0.000 C 
ATOM      2  O   UNL     1       2.223  10.213  17.517  0.00  0.00    +0.000 OA
ATOM      3  N   UNL     1       0.798   9.058  18.953  0.00  0.00    +0.000 N 
ATOM      4  H   UNL     1       0.728   8.199  19.484  0.00  0.00    +0.000 HD
ENDROOT
BRANCH   1  15
ATOM      5  C   UNL     1       6.316   4.448  18.239  0.00  0.00    +0.000 C 
ATOM      6  C   UNL     1       5.024   4.303  17.403  0.00  0.00    +0.000 C 
ATOM      7  C   UNL     1       5.420   4.106  15.919  0.00  0.00    +0.000 C 
ATOM      8  C   UNL     1       4.265   3.018  17.810  0.00  0.00    +0.000 C 
ATOM      9  C   UNL     1       3.485   3.163  19.104  0.00  0.00    +0.000 C 
ATOM     10  C   UNL     1       2.462   4.322  19.082  0.00  0.00    +0.000 C 
ATOM     11  C   UNL     1       1.153   3.855  18.407  0.00  0.00    +0.000 C 
ATOM     12  C   UNL     1       2.157   4.646  20.566  0.00  0.00    +0.000 C 
ATOM     13  C   UNL     1       2.987   5.564  18.349  0.00  0.00    +0.000 A 
ATOM     14  C   UNL     1       2.248   6.767  18.435  0.00  0.00    +0.000 A 
ATOM     15  C   UNL     1       2.682   7.961  17.849  0.00  0.00    +0.000 A 
ATOM     16  C   UNL     1       3.886   7.978  17.155  0.00  0.00    +0.000 A 
ATOM     17  C   UNL     1       4.614   6.790  17.029  0.00  0.00    +0.000 A 
ATOM     18  C   UNL     1       4.174   5.566  17.590  0.00  0.00    +0.000 A 
ENDBRANCH   1  15
BRANCH   3  19
ATOM     19  C   UNL     1      -0.068  10.116  19.337  0.00  0.00    +0.000 A 
ATOM     20  C   UNL     1       0.075  10.822  20.537  0.00  0.00    +0.000 A 
ATOM     21  C   UNL     1      -0.844  11.812  20.907  0.00  0.00    +0.000 A 
ATOM     22  C   UNL     1      -1.922  12.123  20.078  0.00  0.00    +0.000 A 
ATOM     23  C   UNL     1      -2.039  11.445  18.865  0.00  0.00    +0.000 A 
ATOM     24  F   UNL     1      -3.060  11.716  18.036  0.00  0.00    +0.000 F 
ATOM     25  C   UNL     1      -1.120  10.459  18.484  0.00  0.00    +0.000 A 
BRANCH  22  26
ATOM     26  C   UNL     1      -2.882  13.158  20.542  0.00  0.00    +0.000 C 
ATOM     27  O   UNL     1      -3.904  12.874  21.144  0.00  0.00    +0.000 OA
BRANCH  26  28
ATOM     28  O   UNL     1      -2.560  14.433  20.239  0.00  0.00    +0.000 OA
ATOM     29  H   UNL     1      -3.258  14.958  19.802  0.00  0.00    +0.000 HD
ENDBRANCH  26  28
ENDBRANCH  22  26
ENDBRANCH   3  19
TORSDOF 4
ENDMDL
MODEL 5
REMARK VINA RESULT:      -8.6      0.929      1.309
REMARK  Name = 
REMARK  8 active torsions:
REMARK  status: ('A' for Active; 'I' for Inactive)
REMARK    1  A    between atoms: C_1  and  C_2
REMARK    2  A    between atoms: C_2  and  C_3
REMARK    3  A    between atoms: C_6  and  C_7
REMARK    4  A    between atoms: C_6  and  C_8
REMARK    5  A    between atoms: C_11  and  C_12
REMARK    6  A    between atoms: N_14  and  C_15
REMARK    7  A    between atoms: C_18  and  C_19
REMARK    8  A    between atoms: C_19  and  O_21
REMARK                            x       y       z     vdW  Elec       q    Type
REMARK                         _______ _______ _______ _____ _____    ______ ____
ROOT
ATOM      1  C   UNL     1       1.380   7.999  20.426  0.00  0.00    +0.000 C 
ATOM      2  O   UNL     1       2.077   8.268  19.453  0.00  0.00    +0.000 OA
ATOM      3  N   UNL     1       1.247   6.750  21.015  0.00  0.00    +0.000 N 
ATOM      4  H   UNL     1       0.500   6.630  21.688  0.00  0.00    +0.000 HD
ENDROOT
BRANCH   1  15
ATOM      5  C   UNL     1      -0.885  13.430  23.188  0.00  0.00    +0.000 C 
ATOM      6  C   UNL     1      -1.832  12.443  22.470  0.00  0.00    +0.000 C 
ATOM      7  C   UNL     1      -2.880  11.937  23.491  0.00  0.00    +0.000 C 
ATOM      8  C   UNL     1      -2.636  13.176  21.370  0.00  0.00    +0.000 C 
ATOM      9  C   UNL     1      -1.837  13.426  20.105  0.00  0.00    +0.000 C 
ATOM     10  C   UNL     1      -1.255  12.139  19.477  0.00  0.00    +0.000 C 
ATOM     11  C   UNL     1      -2.327  11.451  18.601  0.00  0.00    +0.000 C 
ATOM     12  C   UNL     1      -0.097  12.601  18.557  0.00  0.00    +0.000 C 
ATOM     13  C   UNL     1      -0.752  11.140  20.528  0.00  0.00    +0.000 A 
ATOM     14  C   UNL     1      -0.005  10.019  20.097  0.00  0.00    +0.000 A 
ATOM     15  C   UNL     1       0.544   9.091  20.990  0.00  0.00    +0.000 A 
ATOM     16  C   UNL     1       0.355   9.270  22.355  0.00  0.00    +0.000 A 
ATOM     17  C   UNL     1      -0.411  10.353  22.799  0.00  0.00    +0.000 A 
ATOM     18  C   UNL     1      -0.999  11.284  21.907  0.00  0.00    +0.000 A 
ENDBRANCH   1  15
BRANCH   3  19
ATOM     19  C   UNL     1       1.918   5.574  20.590  0.00  0.00    +0.000 A 
ATOM     20  C   UNL     1       1.469   4.285  20.899  0.00  0.00    +0.000 A 
ATOM     21  C   UNL     1       2.201   3.153  20.517  0.00  0.00    +0.000 A 
ATOM     22  C   UNL     1       3.396   3.288  19.810  0.00  0.00    +0.000 A 
ATOM     23  C   UNL     1       3.820   4.572  19.470  0.00  0.00    +0.000 A 
ATOM     24  F   UNL     1       4.963   4.747  18.786  0.00  0.00    +0.000 F 
ATOM     25  C   UNL     1       3.090   5.709  19.840  0.00  0.00    +0.000 A 
BRANCH  22  26
ATOM     26  C   UNL     1       4.145   2.053  19.464  0.00  0.00    +0.000 C 
ATOM     27  O   UNL     1       3.823   1.337  18.531  0.00  0.00    +0.000 OA
BRANCH  26  28
ATOM     28  O   UNL     1       5.195   1.762  20.261  0.00  0.00    +0.000 OA
ATOM     29  H   UNL     1       5.815   1.088  19.922  0.00  0.00    +0.000 HD
ENDBRANCH  26  28
ENDBRANCH  22  26
ENDBRANCH   3  19
TORSDOF 4
ENDMDL
MODEL 6
REMARK VINA RESULT:      -8.5      3.595      9.402
REMARK  Name = 
REMARK  8 active torsions:
REMARK  status: ('A' for Active; 'I' for Inactive)
REMARK    1  A    between atoms: C_1  and  C_2
REMARK    2  A    between atoms: C_2  and  C_3
REMARK    3  A    between atoms: C_6  and  C_7
REMARK    4  A    between atoms: C_6  and  C_8
REMARK    5  A    between atoms: C_11  and  C_12
REMARK    6  A    between atoms: N_14  and  C_15
REMARK    7  A    between atoms: C_18  and  C_19
REMARK    8  A    between atoms: C_19  and  O_21
REMARK                            x       y       z     vdW  Elec       q    Type
REMARK                         _______ _______ _______ _____ _____    ______ ____
ROOT
ATOM      1  C   UNL     1       1.769   9.135  18.190  0.00  0.00    +0.000 C 
ATOM      2  O   UNL     1       1.978  10.102  17.465  0.00  0.00    +0.000 OA
ATOM      3  N   UNL     1       0.865   9.083  19.240  0.00  0.00    +0.000 N 
ATOM      4  H   UNL     1       0.928   8.293  19.870  0.00  0.00    +0.000 HD
ENDROOT
BRANCH   1  15
ATOM      5  C   UNL     1       6.337   4.511  18.339  0.00  0.00    +0.000 C 
ATOM      6  C   UNL     1       5.016   4.307  17.564  0.00  0.00    +0.000 C 
ATOM      7  C   UNL     1       5.355   4.064  16.073  0.00  0.00    +0.000 C 
ATOM      8  C   UNL     1       4.305   3.021  18.049  0.00  0.00    +0.000 C 
ATOM      9  C   UNL     1       3.575   3.197  19.367  0.00  0.00    +0.000 C 
ATOM     10  C   UNL     1       2.525   4.331  19.346  0.00  0.00    +0.000 C 
ATOM     11  C   UNL     1       1.201   3.809  18.743  0.00  0.00    +0.000 C 
ATOM     12  C   UNL     1       2.272   4.703  20.829  0.00  0.00    +0.000 C 
ATOM     13  C   UNL     1       2.990   5.556  18.547  0.00  0.00    +0.000 A 
ATOM     14  C   UNL     1       2.225   6.744  18.621  0.00  0.00    +0.000 A 
ATOM     15  C   UNL     1       2.607   7.926  17.974  0.00  0.00    +0.000 A 
ATOM     16  C   UNL     1       3.781   7.944  17.231  0.00  0.00    +0.000 A 
ATOM     17  C   UNL     1       4.532   6.769  17.118  0.00  0.00    +0.000 A 
ATOM     18  C   UNL     1       4.144   5.556  17.740  0.00  0.00    +0.000 A 
ENDBRANCH   1  15
BRANCH   3  19
ATOM     19  C   UNL     1       0.015  10.148  19.637  0.00  0.00    +0.000 A 
ATOM     20  C   UNL     1      -1.105  10.545  18.898  0.00  0.00    +0.000 A 
ATOM     21  C   UNL     1      -1.877  11.647  19.290  0.00  0.00    +0.000 A 
ATOM     22  C   UNL     1      -1.546  12.370  20.437  0.00  0.00    +0.000 A 
ATOM     23  C   UNL     1      -0.453  11.947  21.191  0.00  0.00    +0.000 A 
ATOM     24  F   UNL     1      -0.102  12.613  22.304  0.00  0.00    +0.000 F 
ATOM     25  C   UNL     1       0.319  10.842  20.811  0.00  0.00    +0.000 A 
BRANCH  22  26
ATOM     26  C   UNL     1      -2.381  13.549  20.782  0.00  0.00    +0.000 C 
ATOM     27  O   UNL     1      -3.249  13.505  21.638  0.00  0.00    +0.000 OA
BRANCH  26  28
ATOM     28  O   UNL     1      -2.131  14.671  20.075  0.00  0.00    +0.000 OA
ATOM     29  H   UNL     1      -2.882  15.287  19.969  0.00  0.00    +0.000 HD
ENDBRANCH  26  28
ENDBRANCH  22  26
ENDBRANCH   3  19
TORSDOF 4
ENDMDL
MODEL 7
REMARK VINA RESULT:      -8.3      3.578      9.572
REMARK  Name = 
REMARK  8 active torsions:
REMARK  status: ('A' for Active; 'I' for Inactive)
REMARK    1  A    between atoms: C_1  and  C_2
REMARK    2  A    between atoms: C_2  and  C_3
REMARK    3  A    between atoms: C_6  and  C_7
REMARK    4  A    between atoms: C_6  and  C_8
REMARK    5  A    between atoms: C_11  and  C_12
REMARK    6  A    between atoms: N_14  and  C_15
REMARK    7  A    between atoms: C_18  and  C_19
REMARK    8  A    between atoms: C_19  and  O_21
REMARK                            x       y       z     vdW  Elec       q    Type
REMARK                         _______ _______ _______ _____ _____    ______ ____
ROOT
ATOM      1  C   UNL     1       1.558   8.567  19.339  0.00  0.00    +0.000 C 
ATOM      2  O   UNL     1       1.282   8.343  20.513  0.00  0.00    +0.000 OA
ATOM      3  N   UNL     1       1.080   9.621  18.575  0.00  0.00    +0.000 N 
ATOM      4  H   UNL     1       1.236   9.581  17.576  0.00  0.00    +0.000 HD
ENDROOT
BRANCH   1  15
ATOM      5  C   UNL     1       6.384   4.657  17.422  0.00  0.00    +0.000 C 
ATOM      6  C   UNL     1       4.976   4.557  16.793  0.00  0.00    +0.000 C 
ATOM      7  C   UNL     1       5.097   4.826  15.273  0.00  0.00    +0.000 C 
ATOM      8  C   UNL     1       4.433   3.115  16.925  0.00  0.00    +0.000 C 
ATOM      9  C   UNL     1       3.905   2.793  18.310  0.00  0.00    +0.000 C 
ATOM     10  C   UNL     1       2.792   3.755  18.786  0.00  0.00    +0.000 C 
ATOM     11  C   UNL     1       1.428   3.302  18.218  0.00  0.00    +0.000 C 
ATOM     12  C   UNL     1       2.747   3.621  20.329  0.00  0.00    +0.000 C 
ATOM     13  C   UNL     1       3.048   5.210  18.372  0.00  0.00    +0.000 A 
ATOM     14  C   UNL     1       2.229   6.226  18.918  0.00  0.00    +0.000 A 
ATOM     15  C   UNL     1       2.430   7.584  18.643  0.00  0.00    +0.000 A 
ATOM     16  C   UNL     1       3.472   7.960  17.805  0.00  0.00    +0.000 A 
ATOM     17  C   UNL     1       4.270   6.967  17.227  0.00  0.00    +0.000 A 
ATOM     18  C   UNL     1       4.062   5.587  17.470  0.00  0.00    +0.000 A 
ENDBRANCH   1  15
BRANCH   3  19
ATOM     19  C   UNL     1       0.198  10.630  19.042  0.00  0.00    +0.000 A 
ATOM     20  C   UNL     1       0.580  11.611  19.964  0.00  0.00    +0.000 A 
ATOM     21  C   UNL     1      -0.342  12.546  20.450  0.00  0.00    +0.000 A 
ATOM     22  C   UNL     1      -1.668  12.525  20.015  0.00  0.00    +0.000 A 
ATOM     23  C   UNL     1      -2.036  11.571  19.066  0.00  0.00    +0.000 A 
ATOM     24  F   UNL     1      -3.301  11.517  18.618  0.00  0.00    +0.000 F 
ATOM     25  C   UNL     1      -1.117  10.637  18.569  0.00  0.00    +0.000 A 
BRANCH  22  26
ATOM     26  C   UNL     1      -2.608  13.520  20.593  0.00  0.00    +0.000 C 
ATOM     27  O   UNL     1      -3.399  13.232  21.474  0.00  0.00    +0.000 OA
BRANCH  26  28
ATOM     28  O   UNL     1      -2.542  14.761  20.067  0.00  0.00    +0.000 OA
ATOM     29  H   UNL     1      -2.029  15.416  20.579  0.00  0.00    +0.000 HD
ENDBRANCH  26  28
ENDBRANCH  22  26
ENDBRANCH   3  19
TORSDOF 4
ENDMDL
MODEL 8
REMARK VINA RESULT:      -8.2      2.362      2.700
REMARK  Name = 
REMARK  8 active torsions:
REMARK  status: ('A' for Active; 'I' for Inactive)
REMARK    1  A    between atoms: C_1  and  C_2
REMARK    2  A    between atoms: C_2  and  C_3
REMARK    3  A    between atoms: C_6  and  C_7
REMARK    4  A    between atoms: C_6  and  C_8
REMARK    5  A    between atoms: C_11  and  C_12
REMARK    6  A    between atoms: N_14  and  C_15
REMARK    7  A    between atoms: C_18  and  C_19
REMARK    8  A    between atoms: C_19  and  O_21
REMARK                            x       y       z     vdW  Elec       q    Type
REMARK                         _______ _______ _______ _____ _____    ______ ____
ROOT
ATOM      1  C   UNL     1       1.414   7.962  20.388  0.00  0.00    +0.000 C 
ATOM      2  O   UNL     1       1.759   7.073  21.160  0.00  0.00    +0.000 OA
ATOM      3  N   UNL     1       1.784   8.076  19.057  0.00  0.00    +0.000 N 
ATOM      4  H   UNL     1       1.583   8.952  18.591  0.00  0.00    +0.000 HD
ENDROOT
BRANCH   1  15
ATOM      5  C   UNL     1      -0.850  13.424  23.092  0.00  0.00    +0.000 C 
ATOM      6  C   UNL     1      -1.798  12.425  22.390  0.00  0.00    +0.000 C 
ATOM      7  C   UNL     1      -2.841  11.930  23.423  0.00  0.00    +0.000 C 
ATOM      8  C   UNL     1      -2.608  13.144  21.285  0.00  0.00    +0.000 C 
ATOM      9  C   UNL     1      -1.815  13.380  20.014  0.00  0.00    +0.000 C 
ATOM     10  C   UNL     1      -1.234  12.086  19.399  0.00  0.00    +0.000 C 
ATOM     11  C   UNL     1      -2.308  11.385  18.537  0.00  0.00    +0.000 C 
ATOM     12  C   UNL     1      -0.080  12.538  18.469  0.00  0.00    +0.000 C 
ATOM     13  C   UNL     1      -0.724  11.101  20.460  0.00  0.00    +0.000 A 
ATOM     14  C   UNL     1       0.024   9.976  20.040  0.00  0.00    +0.000 A 
ATOM     15  C   UNL     1       0.578   9.060  20.942  0.00  0.00    +0.000 A 
ATOM     16  C   UNL     1       0.395   9.255  22.306  0.00  0.00    +0.000 A 
ATOM     17  C   UNL     1      -0.372  10.342  22.739  0.00  0.00    +0.000 A 
ATOM     18  C   UNL     1      -0.965  11.261  21.839  0.00  0.00    +0.000 A 
ENDBRANCH   1  15
BRANCH   3  19
ATOM     19  C   UNL     1       2.617   7.161  18.362  0.00  0.00    +0.000 A 
ATOM     20  C   UNL     1       2.314   5.801  18.233  0.00  0.00    +0.000 A 
ATOM     21  C   UNL     1       3.200   4.920  17.598  0.00  0.00    +0.000 A 
ATOM     22  C   UNL     1       4.405   5.386  17.071  0.00  0.00    +0.000 A 
ATOM     23  C   UNL     1       4.684   6.749  17.167  0.00  0.00    +0.000 A 
ATOM     24  F   UNL     1       5.831   7.239  16.669  0.00  0.00    +0.000 F 
ATOM     25  C   UNL     1       3.801   7.637  17.793  0.00  0.00    +0.000 A 
BRANCH  22  26
ATOM     26  C   UNL     1       5.318   4.398  16.441  0.00  0.00    +0.000 C 
ATOM     27  O   UNL     1       5.155   3.995  15.301  0.00  0.00    +0.000 OA
BRANCH  26  28
ATOM     28  O   UNL     1       6.332   3.960  17.216  0.00  0.00    +0.000 OA
ATOM     29  H   UNL     1       6.228   4.101  18.177  0.00  0.00    +0.000 HD
ENDBRANCH  26  28
ENDBRANCH  22  26
ENDBRANCH   3  19
TORSDOF 4
ENDMDL
MODEL 9
REMARK VINA RESULT:      -8.2      1.948      2.190
REMARK  Name = 
REMARK  8 active torsions:
REMARK  status: ('A' for Active; 'I' for Inactive)
REMARK    1  A    between atoms: C_1  and  C_2
REMARK    2  A    between atoms: C_2  and  C_3
REMARK    3  A    between atoms: C_6  and  C_7
REMARK    4  A    between atoms: C_6  and  C_8
REMARK    5  A    between atoms: C_11  and  C_12
REMARK    6  A    between atoms: N_14  and  C_15
REMARK    7  A    between atoms: C_18  and  C_19
REMARK    8  A    between atoms: C_19  and  O_21
REMARK                            x       y       z     vdW  Elec       q    Type
REMARK                         _______ _______ _______ _____ _____    ______ ____
ROOT
ATOM      1  C   UNL     1       1.462   7.941  20.451  0.00  0.00    +0.000 C 
ATOM      2  O   UNL     1       1.837   7.076  21.235  0.00  0.00    +0.000 OA
ATOM      3  N   UNL     1       1.810   8.035  19.112  0.00  0.00    +0.000 N 
ATOM      4  H   UNL     1       1.583   8.897  18.631  0.00  0.00    +0.000 HD
ENDROOT
BRANCH   1  15
ATOM      5  C   UNL     1      -0.884  13.394  23.102  0.00  0.00    +0.000 C 
ATOM      6  C   UNL     1      -1.817  12.375  22.410  0.00  0.00    +0.000 C 
ATOM      7  C   UNL     1      -2.852  11.874  23.447  0.00  0.00    +0.000 C 
ATOM      8  C   UNL     1      -2.637  13.071  21.297  0.00  0.00    +0.000 C 
ATOM      9  C   UNL     1      -1.847  13.306  20.024  0.00  0.00    +0.000 C 
ATOM     10  C   UNL     1      -1.246  12.015  19.422  0.00  0.00    +0.000 C 
ATOM     11  C   UNL     1      -2.309  11.291  18.566  0.00  0.00    +0.000 C 
ATOM     12  C   UNL     1      -0.100  12.476  18.487  0.00  0.00    +0.000 C 
ATOM     13  C   UNL     1      -0.723  11.049  20.493  0.00  0.00    +0.000 A 
ATOM     14  C   UNL     1       0.042   9.931  20.083  0.00  0.00    +0.000 A 
ATOM     15  C   UNL     1       0.610   9.032  20.994  0.00  0.00    +0.000 A 
ATOM     16  C   UNL     1       0.423   9.237  22.355  0.00  0.00    +0.000 A 
ATOM     17  C   UNL     1      -0.360  10.317  22.779  0.00  0.00    +0.000 A 
ATOM     18  C   UNL     1      -0.967  11.218  21.869  0.00  0.00    +0.000 A 
ENDBRANCH   1  15
BRANCH   3  19
ATOM     19  C   UNL     1       2.654   7.124  18.424  0.00  0.00    +0.000 A 
ATOM     20  C   UNL     1       3.858   7.506  17.823  0.00  0.00    +0.000 A 
ATOM     21  C   UNL     1       4.626   6.587  17.095  0.00  0.00    +0.000 A 
ATOM     22  C   UNL     1       4.206   5.263  16.961  0.00  0.00    +0.000 A 
ATOM     23  C   UNL     1       3.026   4.878  17.595  0.00  0.00    +0.000 A 
ATOM     24  F   UNL     1       2.587   3.612  17.495  0.00  0.00    +0.000 F 
ATOM     25  C   UNL     1       2.257   5.788  18.332  0.00  0.00    +0.000 A 
BRANCH  22  26
ATOM     26  C   UNL     1       5.044   4.345  16.147  0.00  0.00    +0.000 C 
ATOM     27  O   UNL     1       5.240   4.525  14.957  0.00  0.00    +0.000 OA
BRANCH  26  28
ATOM     28  O   UNL     1       5.563   3.288  16.806  0.00  0.00    +0.000 OA
ATOM     29  H   UNL     1       5.611   3.370  17.778  0.00  0.00    +0.000 HD
ENDBRANCH  26  28
ENDBRANCH  22  26
ENDBRANCH   3  19
TORSDOF 4
ENDMDL
