MODEL 1
REMARK VINA RESULT:      -8.1      0.000      0.000
REMARK  Name = 
REMARK  7 active torsions:
REMARK  status: ('A' for Active; 'I' for Inactive)
REMARK    1  A    between atoms: C_1  and  C_2
REMARK    2  A    between atoms: C_5  and  C_6
REMARK    3  A    between atoms: C_7  and  C_8
REMARK    4  A    between atoms: C_10  and  N_11
REMARK    5  A    between atoms: C_12  and  C_13
REMARK    6  A    between atoms: C_13  and  C_15
REMARK    7  A    between atoms: C_22  and  C_23
REMARK                            x       y       z     vdW  Elec       q    Type
REMARK                         _______ _______ _______ _____ _____    ______ ____
ROOT
ATOM      1  C   UNL     1       3.195   5.732  19.644  0.00  0.00    +0.000 A 
ATOM      2  S   UNL     1       3.117   4.143  20.243  0.00  0.00    +0.000 S 
ATOM      3  C   UNL     1       4.530   3.668  19.410  0.00  0.00    +0.000 A 
ATOM      4  C   UNL     1       5.075   4.700  18.655  0.00  0.00    +0.000 A 
ATOM      5  C   UNL     1       4.258   5.910  18.768  0.00  0.00    +0.000 A 
ATOM      6  C   UNL     1       4.488   7.213  18.062  0.00  0.00    +0.000 C 
ENDROOT
BRANCH   3   7
ATOM      7  N   UNL     1       5.013   2.406  19.543  0.00  0.00    +0.000 N 
ATOM      8  H   UNL     1       4.388   1.660  19.840  0.00  0.00    +0.000 HD
ATOM      9  H   UNL     1       5.738   2.091  18.892  0.00  0.00    +0.000 HD
ENDBRANCH   3   7
BRANCH   1  11
ATOM     10  C   UNL     1       1.571   7.685  20.350  0.00  0.00    +0.000 C 
ATOM     11  C   UNL     1       2.266   6.772  20.004  0.00  0.00    +0.000 C 
BRANCH  10  16
ATOM     12  C   UNL     1      -1.379  12.216  22.356  0.00  0.00    +0.000 C 
ATOM     13  C   UNL     1      -0.688  10.994  21.816  0.00  0.00    +0.000 A 
ATOM     14  C   UNL     1      -0.342   9.934  22.656  0.00  0.00    +0.000 A 
ATOM     15  C   UNL     1       0.377   8.834  22.164  0.00  0.00    +0.000 A 
ATOM     16  C   UNL     1       0.762   8.775  20.824  0.00  0.00    +0.000 A 
ATOM     17  C   UNL     1       0.369   9.812  19.965  0.00  0.00    +0.000 A 
ATOM     18  C   UNL     1      -0.348  10.915  20.458  0.00  0.00    +0.000 A 
ENDBRANCH  10  16
ENDBRANCH   1  11
BRANCH   4  19
ATOM     19  C   UNL     1       6.303   4.488  17.862  0.00  0.00    +0.000 C 
ATOM     20  O   UNL     1       7.414   4.392  18.387  0.00  0.00    +0.000 OA
BRANCH  19  21
ATOM     21  C   UNL     1       6.260   4.478  16.374  0.00  0.00    +0.000 A 
ATOM     22  C   UNL     1       5.210   3.806  15.726  0.00  0.00    +0.000 A 
ATOM     23  C   UNL     1       5.246   3.619  14.340  0.00  0.00    +0.000 A 
ATOM     24  C   UNL     1       6.321   4.113  13.604  0.00  0.00    +0.000 A 
ATOM     25 CL   UNL     1       6.436   3.778  11.921  0.00  0.00    +0.000 Cl
ATOM     26  C   UNL     1       7.336   4.835  14.231  0.00  0.00    +0.000 A 
ATOM     27  C   UNL     1       7.315   5.002  15.617  0.00  0.00    +0.000 A 
ENDBRANCH  19  21
ENDBRANCH   4  19
TORSDOF 5
ENDMDL
MODEL 2
REMARK VINA RESULT:      -7.8      0.808      1.345
REMARK  Name = 
REMARK  7 active torsions:
REMARK  status: ('A' for Active; 'I' for Inactive)
REMARK    1  A    between atoms: C_1  and  C_2
REMARK    2  A    between atoms: C_5  and  C_6
REMARK    3  A    between atoms: C_7  and  C_8
REMARK    4  A    between atoms: C_10  and  N_11
REMARK    5  A    between atoms: C_12  and  C_13
REMARK    6  A    between atoms: C_13  and  C_15
REMARK    7  A    between atoms: C_22  and  C_23
REMARK                            x       y       z     vdW  Elec       q    Type
REMARK                         _______ _______ _______ _____ _____    ______ ____
ROOT
ATOM      1  C   UNL     1       3.261   6.088  19.190  0.00  0.00    +0.000 A 
ATOM      2  S   UNL     1       3.166   4.615  20.032  0.00  0.00    +0.000 S 
ATOM      3  C   UNL     1       4.582   4.006  19.297  0.00  0.00    +0.000 A 
ATOM      4  C   UNL     1       5.141   4.902  18.394  0.00  0.00    +0.000 A 
ATOM      5  C   UNL     1       4.332   6.120  18.307  0.00  0.00    +0.000 A 
ATOM      6  C   UNL     1       4.577   7.294  17.406  0.00  0.00    +0.000 C 
ENDROOT
BRANCH   3   7
ATOM      7  N   UNL     1       5.055   2.778  19.632  0.00  0.00    +0.000 N 
ATOM      8  H   UNL     1       4.891   1.992  19.007  0.00  0.00    +0.000 HD
ATOM      9  H   UNL     1       5.946   2.719  20.133  0.00  0.00    +0.000 HD
ENDBRANCH   3   7
BRANCH   1  11
ATOM     10  C   UNL     1       1.646   8.148  19.512  0.00  0.00    +0.000 C 
ATOM     11  C   UNL     1       2.336   7.178  19.372  0.00  0.00    +0.000 C 
BRANCH  10  16
ATOM     12  C   UNL     1      -1.782  12.713  20.322  0.00  0.00    +0.000 C 
ATOM     13  C   UNL     1      -0.818  11.579  20.110  0.00  0.00    +0.000 A 
ATOM     14  C   UNL     1      -0.472  11.162  18.824  0.00  0.00    +0.000 A 
ATOM     15  C   UNL     1       0.362  10.049  18.631  0.00  0.00    +0.000 A 
ATOM     16  C   UNL     1       0.863   9.336  19.721  0.00  0.00    +0.000 A 
ATOM     17  C   UNL     1       0.562   9.785  21.015  0.00  0.00    +0.000 A 
ATOM     18  C   UNL     1      -0.276  10.897  21.209  0.00  0.00    +0.000 A 
ENDBRANCH  10  16
ENDBRANCH   1  11
BRANCH   4  19
ATOM     19  C   UNL     1       6.374   4.561  17.656  0.00  0.00    +0.000 C 
ATOM     20  O   UNL     1       7.446   4.357  18.229  0.00  0.00    +0.000 OA
BRANCH  19  21
ATOM     21  C   UNL     1       6.394   4.543  16.167  0.00  0.00    +0.000 A 
ATOM     22  C   UNL     1       5.424   3.794  15.481  0.00  0.00    +0.000 A 
ATOM     23  C   UNL     1       5.531   3.604  14.099  0.00  0.00    +0.000 A 
ATOM     24  C   UNL     1       6.596   4.174  13.404  0.00  0.00    +0.000 A 
ATOM     25 CL   UNL     1       6.806   3.842  11.730  0.00  0.00    +0.000 Cl
ATOM     26  C   UNL     1       7.529   4.970  14.068  0.00  0.00    +0.000 A 
ATOM     27  C   UNL     1       7.438   5.140  15.451  0.00  0.00    +0.000 A 
ENDBRANCH  19  21
ENDBRANCH   4  19
TORSDOF 5
ENDMDL
MODEL 3
REMARK VINA RESULT:      -7.7      4.862      7.288
REMARK  Name = 
REMARK  7 active torsions:
REMARK  status: ('A' for Active; 'I' for Inactive)
REMARK    1  A    between atoms: C_1  and  C_2
REMARK    2  A    between atoms: C_5  and  C_6
REMARK    3  A    between atoms: C_7  and  C_8
REMARK    4  A    between atoms: C_10  and  N_11
REMARK    5  A    between atoms: C_12  and  C_13
REMARK    6  A    between atoms: C_13  and  C_15
REMARK    7  A    between atoms: C_22  and  C_23
REMARK                            x       y       z     vdW  Elec       q    Type
REMARK                         _______ _______ _______ _____ _____    ______ ____
ROOT
ATOM      1  C   UNL     1       6.504   6.383  17.123  0.00  0.00    +0.000 A 
ATOM      2  S   UNL     1       7.267   5.178  16.199  0.00  0.00    +0.000 S 
ATOM      3  C   UNL     1       5.901   4.155  16.249  0.00  0.00    +0.000 A 
ATOM      4  C   UNL     1       4.852   4.703  16.977  0.00  0.00    +0.000 A 
ATOM      5  C   UNL     1       5.228   6.008  17.524  0.00  0.00    +0.000 A 
ATOM      6  C   UNL     1       4.389   6.883  18.406  0.00  0.00    +0.000 C 
ENDROOT
BRANCH   3   7
ATOM      7  N   UNL     1       5.915   2.961  15.602  0.00  0.00    +0.000 N 
ATOM      8  H   UNL     1       6.649   2.288  15.811  0.00  0.00    +0.000 HD
ATOM      9  H   UNL     1       5.019   2.524  15.368  0.00  0.00    +0.000 HD
ENDBRANCH   3   7
BRANCH   1  11
ATOM     10  C   UNL     1       7.698   8.647  17.759  0.00  0.00    +0.000 C 
ATOM     11  C   UNL     1       7.111   7.648  17.453  0.00  0.00    +0.000 C 
BRANCH  10  16
ATOM     12  C   UNL     1      10.855  13.231  19.266  0.00  0.00    +0.000 C 
ATOM     13  C   UNL     1       9.968  12.064  18.929  0.00  0.00    +0.000 A 
ATOM     14  C   UNL     1      10.048  10.871  19.649  0.00  0.00    +0.000 A 
ATOM     15  C   UNL     1       9.278   9.757  19.277  0.00  0.00    +0.000 A 
ATOM     16  C   UNL     1       8.417   9.818  18.182  0.00  0.00    +0.000 A 
ATOM     17  C   UNL     1       8.294  11.032  17.490  0.00  0.00    +0.000 A 
ATOM     18  C   UNL     1       9.066  12.146  17.858  0.00  0.00    +0.000 A 
ENDBRANCH  10  16
ENDBRANCH   1  11
BRANCH   4  19
ATOM     19  C   UNL     1       3.579   3.971  17.134  0.00  0.00    +0.000 C 
ATOM     20  O   UNL     1       2.914   3.595  16.167  0.00  0.00    +0.000 OA
BRANCH  19  21
ATOM     21  C   UNL     1       2.993   3.738  18.483  0.00  0.00    +0.000 A 
ATOM     22  C   UNL     1       3.774   3.113  19.469  0.00  0.00    +0.000 A 
ATOM     23  C   UNL     1       3.194   2.712  20.677  0.00  0.00    +0.000 A 
ATOM     24  C   UNL     1       1.839   2.948  20.903  0.00  0.00    +0.000 A 
ATOM     25 CL   UNL     1       1.089   2.346  22.329  0.00  0.00    +0.000 Cl
ATOM     26  C   UNL     1       1.070   3.623  19.956  0.00  0.00    +0.000 A 
ATOM     27  C   UNL     1       1.642   4.002  18.740  0.00  0.00    +0.000 A 
ENDBRANCH  19  21
ENDBRANCH   4  19
TORSDOF 5
ENDMDL
MODEL 4
REMARK VINA RESULT:      -7.6      5.598      9.964
REMARK  Name = 
REMARK  7 active torsions:
REMARK  status: ('A' for Active; 'I' for Inactive)
REMARK    1  A    between atoms: C_1  and  C_2
REMARK    2  A    between atoms: C_5  and  C_6
REMARK    3  A    between atoms: C_7  and  C_8
REMARK    4  A    between atoms: C_10  and  N_11
REMARK    5  A    between atoms: C_12  and  C_13
REMARK    6  A    between atoms: C_13  and  C_15
REMARK    7  A    between atoms: C_22  and  C_23
REMARK                            x       y       z     vdW  Elec       q    Type
REMARK                         _______ _______ _______ _____ _____    ______ ____
ROOT
ATOM      1  C   UNL     1       0.503   9.057  21.211  0.00  0.00    +0.000 A 
ATOM      2  S   UNL     1       0.079   9.541  22.784  0.00  0.00    +0.000 S 
ATOM      3  C   UNL     1      -0.652  10.984  22.234  0.00  0.00    +0.000 A 
ATOM      4  C   UNL     1      -0.574  11.128  20.855  0.00  0.00    +0.000 A 
ATOM      5  C   UNL     1       0.144  10.001  20.256  0.00  0.00    +0.000 A 
ATOM      6  C   UNL     1       0.477   9.821  18.806  0.00  0.00    +0.000 C 
ENDROOT
BRANCH   3   7
ATOM      7  N   UNL     1      -1.241  11.833  23.116  0.00  0.00    +0.000 N 
ATOM      8  H   UNL     1      -2.081  12.335  22.841  0.00  0.00    +0.000 HD
ATOM      9  H   UNL     1      -1.219  11.593  24.111  0.00  0.00    +0.000 HD
ENDBRANCH   3   7
BRANCH   1  11
ATOM     10  C   UNL     1       1.627   6.756  20.582  0.00  0.00    +0.000 C 
ATOM     11  C   UNL     1       1.158   7.811  20.903  0.00  0.00    +0.000 C 
BRANCH  10  16
ATOM     12  C   UNL     1       3.500   1.617  18.758  0.00  0.00    +0.000 C 
ATOM     13  C   UNL     1       3.043   2.937  19.315  0.00  0.00    +0.000 A 
ATOM     14  C   UNL     1       1.769   3.081  19.865  0.00  0.00    +0.000 A 
ATOM     15  C   UNL     1       1.316   4.334  20.306  0.00  0.00    +0.000 A 
ATOM     16  C   UNL     1       2.130   5.463  20.206  0.00  0.00    +0.000 A 
ATOM     17  C   UNL     1       3.431   5.311  19.705  0.00  0.00    +0.000 A 
ATOM     18  C   UNL     1       3.884   4.057  19.259  0.00  0.00    +0.000 A 
ENDBRANCH  10  16
ENDBRANCH   1  11
BRANCH   4  19
ATOM     19  C   UNL     1      -1.153  12.311  20.185  0.00  0.00    +0.000 C 
ATOM     20  O   UNL     1      -0.596  13.410  20.199  0.00  0.00    +0.000 OA
BRANCH  19  21
ATOM     21  C   UNL     1      -2.493  12.245  19.540  0.00  0.00    +0.000 A 
ATOM     22  C   UNL     1      -3.618  12.687  20.255  0.00  0.00    +0.000 A 
ATOM     23  C   UNL     1      -4.904  12.462  19.752  0.00  0.00    +0.000 A 
ATOM     24  C   UNL     1      -5.063  11.810  18.531  0.00  0.00    +0.000 A 
ATOM     25 CL   UNL     1      -6.639  11.417  17.966  0.00  0.00    +0.000 Cl
ATOM     26  C   UNL     1      -3.950  11.423  17.785  0.00  0.00    +0.000 A 
ATOM     27  C   UNL     1      -2.667  11.624  18.297  0.00  0.00    +0.000 A 
ENDBRANCH  19  21
ENDBRANCH   4  19
TORSDOF 5
ENDMDL
MODEL 5
REMARK VINA RESULT:      -7.6      4.752      9.579
REMARK  Name = 
REMARK  7 active torsions:
REMARK  status: ('A' for Active; 'I' for Inactive)
REMARK    1  A    between atoms: C_1  and  C_2
REMARK    2  A    between atoms: C_5  and  C_6
REMARK    3  A    between atoms: C_7  and  C_8
REMARK    4  A    between atoms: C_10  and  N_11
REMARK    5  A    between atoms: C_12  and  C_13
REMARK    6  A    between atoms: C_13  and  C_15
REMARK    7  A    between atoms: C_22  and  C_23
REMARK                            x       y       z     vdW  Elec       q    Type
REMARK                         _______ _______ _______ _____ _____    ______ ____
ROOT
ATOM      1  C   UNL     1       1.751   8.226  19.693  0.00  0.00    +0.000 A 
ATOM      2  S   UNL     1       1.174   7.794  21.232  0.00  0.00    +0.000 S 
ATOM      3  C   UNL     1       0.240   9.216  21.376  0.00  0.00    +0.000 A 
ATOM      4  C   UNL     1       0.361  10.046  20.268  0.00  0.00    +0.000 A 
ATOM      5  C   UNL     1       1.287   9.471  19.290  0.00  0.00    +0.000 A 
ATOM      6  C   UNL     1       1.717  10.092  17.994  0.00  0.00    +0.000 C 
ENDROOT
BRANCH   3   7
ATOM      7  N   UNL     1      -0.526   9.425  22.477  0.00  0.00    +0.000 N 
ATOM      8  H   UNL     1      -0.089   9.441  23.395  0.00  0.00    +0.000 HD
ATOM      9  H   UNL     1      -1.328  10.056  22.399  0.00  0.00    +0.000 HD
ENDBRANCH   3   7
BRANCH   1  11
ATOM     10  C   UNL     1       3.321   6.765  18.159  0.00  0.00    +0.000 C 
ATOM     11  C   UNL     1       2.621   7.396  18.899  0.00  0.00    +0.000 C 
BRANCH  10  16
ATOM     12  C   UNL     1       6.213   3.710  14.216  0.00  0.00    +0.000 C 
ATOM     13  C   UNL     1       5.530   4.501  15.297  0.00  0.00    +0.000 A 
ATOM     14  C   UNL     1       4.774   3.865  16.283  0.00  0.00    +0.000 A 
ATOM     15  C   UNL     1       4.070   4.613  17.240  0.00  0.00    +0.000 A 
ATOM     16  C   UNL     1       4.112   6.008  17.227  0.00  0.00    +0.000 A 
ATOM     17  C   UNL     1       4.915   6.648  16.272  0.00  0.00    +0.000 A 
ATOM     18  C   UNL     1       5.616   5.900  15.311  0.00  0.00    +0.000 A 
ENDBRANCH  10  16
ENDBRANCH   1  11
BRANCH   4  19
ATOM     19  C   UNL     1      -0.374  11.326  20.199  0.00  0.00    +0.000 C 
ATOM     20  O   UNL     1      -0.009  12.325  20.821  0.00  0.00    +0.000 OA
BRANCH  19  21
ATOM     21  C   UNL     1      -1.652  11.434  19.443  0.00  0.00    +0.000 A 
ATOM     22  C   UNL     1      -2.649  12.306  19.908  0.00  0.00    +0.000 A 
ATOM     23  C   UNL     1      -3.924  12.288  19.331  0.00  0.00    +0.000 A 
ATOM     24  C   UNL     1      -4.194  11.411  18.283  0.00  0.00    +0.000 A 
ATOM     25 CL   UNL     1      -5.790  11.292  17.653  0.00  0.00    +0.000 Cl
ATOM     26  C   UNL     1      -3.192  10.586  17.774  0.00  0.00    +0.000 A 
ATOM     27  C   UNL     1      -1.927  10.584  18.364  0.00  0.00    +0.000 A 
ENDBRANCH  19  21
ENDBRANCH   4  19
TORSDOF 5
ENDMDL
MODEL 6
REMARK VINA RESULT:      -7.6      4.831      7.221
REMARK  Name = 
REMARK  7 active torsions:
REMARK  status: ('A' for Active; 'I' for Inactive)
REMARK    1  A    between atoms: C_1  and  C_2
REMARK    2  A    between atoms: C_5  and  C_6
REMARK    3  A    between atoms: C_7  and  C_8
REMARK    4  A    between atoms: C_10  and  N_11
REMARK    5  A    between atoms: C_12  and  C_13
REMARK    6  A    between atoms: C_13  and  C_15
REMARK    7  A    between atoms: C_22  and  C_23
REMARK                            x       y       z     vdW  Elec       q    Type
REMARK                         _______ _______ _______ _____ _____    ______ ____
ROOT
ATOM      1  C   UNL     1       6.647   6.239  17.117  0.00  0.00    +0.000 A 
ATOM      2  S   UNL     1       7.330   4.965  16.223  0.00  0.00    +0.000 S 
ATOM      3  C   UNL     1       5.899   4.037  16.290  0.00  0.00    +0.000 A 
ATOM      4  C   UNL     1       4.886   4.669  17.001  0.00  0.00    +0.000 A 
ATOM      5  C   UNL     1       5.347   5.958  17.521  0.00  0.00    +0.000 A 
ATOM      6  C   UNL     1       4.566   6.907  18.379  0.00  0.00    +0.000 C 
ENDROOT
BRANCH   3   7
ATOM      7  N   UNL     1       5.835   2.830  15.670  0.00  0.00    +0.000 N 
ATOM      8  H   UNL     1       5.245   2.098  16.059  0.00  0.00    +0.000 HD
ATOM      9  H   UNL     1       5.892   2.805  14.648  0.00  0.00    +0.000 HD
ENDBRANCH   3   7
BRANCH   1  11
ATOM     10  C   UNL     1       7.874   8.480  17.770  0.00  0.00    +0.000 C 
ATOM     11  C   UNL     1       7.335   7.467  17.421  0.00  0.00    +0.000 C 
BRANCH  10  16
ATOM     12  C   UNL     1       9.941  13.494  19.726  0.00  0.00    +0.000 C 
ATOM     13  C   UNL     1       9.478  12.176  19.169  0.00  0.00    +0.000 A 
ATOM     14  C   UNL     1       8.760  12.115  17.974  0.00  0.00    +0.000 A 
ATOM     15  C   UNL     1       8.257  10.892  17.502  0.00  0.00    +0.000 A 
ATOM     16  C   UNL     1       8.464   9.712  18.217  0.00  0.00    +0.000 A 
ATOM     17  C   UNL     1       9.232   9.762  19.390  0.00  0.00    +0.000 A 
ATOM     18  C   UNL     1       9.733  10.986  19.865  0.00  0.00    +0.000 A 
ENDBRANCH  10  16
ENDBRANCH   1  11
BRANCH   4  19
ATOM     19  C   UNL     1       3.567   4.027  17.169  0.00  0.00    +0.000 C 
ATOM     20  O   UNL     1       2.853   3.733  16.208  0.00  0.00    +0.000 OA
BRANCH  19  21
ATOM     21  C   UNL     1       2.998   3.794  18.525  0.00  0.00    +0.000 A 
ATOM     22  C   UNL     1       3.751   3.074  19.467  0.00  0.00    +0.000 A 
ATOM     23  C   UNL     1       3.170   2.677  20.676  0.00  0.00    +0.000 A 
ATOM     24  C   UNL     1       1.844   3.012  20.948  0.00  0.00    +0.000 A 
ATOM     25 CL   UNL     1       1.085   2.421  22.373  0.00  0.00    +0.000 Cl
ATOM     26  C   UNL     1       1.109   3.780  20.045  0.00  0.00    +0.000 A 
ATOM     27  C   UNL     1       1.679   4.155  18.827  0.00  0.00    +0.000 A 
ENDBRANCH  19  21
ENDBRANCH   4  19
TORSDOF 5
ENDMDL
MODEL 7
REMARK VINA RESULT:      -7.6      1.012      1.801
REMARK  Name = 
REMARK  7 active torsions:
REMARK  status: ('A' for Active; 'I' for Inactive)
REMARK    1  A    between atoms: C_1  and  C_2
REMARK    2  A    between atoms: C_5  and  C_6
REMARK    3  A    between atoms: C_7  and  C_8
REMARK    4  A    between atoms: C_10  and  N_11
REMARK    5  A    between atoms: C_12  and  C_13
REMARK    6  A    between atoms: C_13  and  C_15
REMARK    7  A    between atoms: C_22  and  C_23
REMARK                            x       y       z     vdW  Elec       q    Type
REMARK                         _______ _______ _______ _____ _____    ______ ____
ROOT
ATOM      1  C   UNL     1       3.378   6.182  18.889  0.00  0.00    +0.000 A 
ATOM      2  S   UNL     1       3.230   4.764  19.813  0.00  0.00    +0.000 S 
ATOM      3  C   UNL     1       4.681   4.108  19.196  0.00  0.00    +0.000 A 
ATOM      4  C   UNL     1       5.292   4.946  18.271  0.00  0.00    +0.000 A 
ATOM      5  C   UNL     1       4.496   6.157  18.065  0.00  0.00    +0.000 A 
ATOM      6  C   UNL     1       4.795   7.272  17.108  0.00  0.00    +0.000 C 
ENDROOT
BRANCH   3   7
ATOM      7  N   UNL     1       5.128   2.902  19.632  0.00  0.00    +0.000 N 
ATOM      8  H   UNL     1       5.692   2.325  19.013  0.00  0.00    +0.000 HD
ATOM      9  H   UNL     1       5.381   2.805  20.620  0.00  0.00    +0.000 HD
ENDBRANCH   3   7
BRANCH   1  11
ATOM     10  C   UNL     1       1.732   8.233  19.084  0.00  0.00    +0.000 C 
ATOM     11  C   UNL     1       2.450   7.283  18.952  0.00  0.00    +0.000 C 
BRANCH  10  16
ATOM     12  C   UNL     1      -1.997  12.533  20.007  0.00  0.00    +0.000 C 
ATOM     13  C   UNL     1      -0.961  11.473  19.751  0.00  0.00    +0.000 A 
ATOM     14  C   UNL     1      -0.754  10.967  18.467  0.00  0.00    +0.000 A 
ATOM     15  C   UNL     1       0.153   9.919  18.247  0.00  0.00    +0.000 A 
ATOM     16  C   UNL     1       0.869   9.361  19.306  0.00  0.00    +0.000 A 
ATOM     17  C   UNL     1       0.704   9.904  20.589  0.00  0.00    +0.000 A 
ATOM     18  C   UNL     1      -0.207  10.950  20.811  0.00  0.00    +0.000 A 
ENDBRANCH  10  16
ENDBRANCH   1  11
BRANCH   4  19
ATOM     19  C   UNL     1       6.562   4.558  17.625  0.00  0.00    +0.000 C 
ATOM     20  O   UNL     1       7.623   4.491  18.249  0.00  0.00    +0.000 OA
BRANCH  19  21
ATOM     21  C   UNL     1       6.631   4.321  16.156  0.00  0.00    +0.000 A 
ATOM     22  C   UNL     1       7.544   5.061  15.387  0.00  0.00    +0.000 A 
ATOM     23  C   UNL     1       7.500   4.999  13.991  0.00  0.00    +0.000 A 
ATOM     24  C   UNL     1       6.554   4.188  13.366  0.00  0.00    +0.000 A 
ATOM     25 CL   UNL     1       6.409   4.202  11.653  0.00  0.00    +0.000 Cl
ATOM     26  C   UNL     1       5.685   3.402  14.122  0.00  0.00    +0.000 A 
ATOM     27  C   UNL     1       5.711   3.482  15.516  0.00  0.00    +0.000 A 
ENDBRANCH  19  21
ENDBRANCH   4  19
TORSDOF 5
ENDMDL
MODEL 8
REMARK VINA RESULT:      -7.5      1.570      1.826
REMARK  Name = 
REMARK  7 active torsions:
REMARK  status: ('A' for Active; 'I' for Inactive)
REMARK    1  A    between atoms: C_1  and  C_2
REMARK    2  A    between atoms: C_5  and  C_6
REMARK    3  A    between atoms: C_7  and  C_8
REMARK    4  A    between atoms: C_10  and  N_11
REMARK    5  A    between atoms: C_12  and  C_13
REMARK    6  A    between atoms: C_13  and  C_15
REMARK    7  A    between atoms: C_22  and  C_23
REMARK                            x       y       z     vdW  Elec       q    Type
REMARK                         _______ _______ _______ _____ _____    ______ ____
ROOT
ATOM      1  C   UNL     1       2.134   5.584  20.286  0.00  0.00    +0.000 A 
ATOM      2  S   UNL     1       2.411   4.359  21.430  0.00  0.00    +0.000 S 
ATOM      3  C   UNL     1       3.211   3.363  20.297  0.00  0.00    +0.000 A 
ATOM      4  C   UNL     1       3.269   3.936  19.033  0.00  0.00    +0.000 A 
ATOM      5  C   UNL     1       2.596   5.236  19.023  0.00  0.00    +0.000 A 
ATOM      6  C   UNL     1       2.401   6.134  17.837  0.00  0.00    +0.000 C 
ENDROOT
BRANCH   3   7
ATOM      7  N   UNL     1       3.724   2.165  20.679  0.00  0.00    +0.000 N 
ATOM      8  H   UNL     1       4.709   2.098  20.926  0.00  0.00    +0.000 HD
ATOM      9  H   UNL     1       3.128   1.529  21.216  0.00  0.00    +0.000 HD
ENDBRANCH   3   7
BRANCH   1  11
ATOM     10  C   UNL     1       1.006   7.877  20.936  0.00  0.00    +0.000 C 
ATOM     11  C   UNL     1       1.493   6.838  20.591  0.00  0.00    +0.000 C 
BRANCH  10  16
ATOM     12  C   UNL     1      -1.130  12.807  23.029  0.00  0.00    +0.000 C 
ATOM     13  C   UNL     1      -0.650  11.510  22.438  0.00  0.00    +0.000 A 
ATOM     14  C   UNL     1      -0.866  10.299  23.097  0.00  0.00    +0.000 A 
ATOM     15  C   UNL     1      -0.343   9.101  22.585  0.00  0.00    +0.000 A 
ATOM     16  C   UNL     1       0.403   9.094  21.407  0.00  0.00    +0.000 A 
ATOM     17  C   UNL     1       0.576  10.302  20.714  0.00  0.00    +0.000 A 
ATOM     18  C   UNL     1       0.056  11.502  21.228  0.00  0.00    +0.000 A 
ENDBRANCH  10  16
ENDBRANCH   1  11
BRANCH   4  19
ATOM     19  C   UNL     1       3.925   3.230  17.913  0.00  0.00    +0.000 C 
ATOM     20  O   UNL     1       3.791   2.019  17.732  0.00  0.00    +0.000 OA
BRANCH  19  21
ATOM     21  C   UNL     1       4.863   3.946  17.004  0.00  0.00    +0.000 A 
ATOM     22  C   UNL     1       4.540   4.058  15.641  0.00  0.00    +0.000 A 
ATOM     23  C   UNL     1       5.482   4.553  14.734  0.00  0.00    +0.000 A 
ATOM     24  C   UNL     1       6.739   4.948  15.190  0.00  0.00    +0.000 A 
ATOM     25 CL   UNL     1       7.945   5.438  14.068  0.00  0.00    +0.000 Cl
ATOM     26  C   UNL     1       7.045   4.898  16.550  0.00  0.00    +0.000 A 
ATOM     27  C   UNL     1       6.115   4.381  17.453  0.00  0.00    +0.000 A 
ENDBRANCH  19  21
ENDBRANCH   4  19
TORSDOF 5
ENDMDL
MODEL 9
REMARK VINA RESULT:      -7.5      5.000      9.837
REMARK  Name = 
REMARK  7 active torsions:
REMARK  status: ('A' for Active; 'I' for Inactive)
REMARK    1  A    between atoms: C_1  and  C_2
REMARK    2  A    between atoms: C_5  and  C_6
REMARK    3  A    between atoms: C_7  and  C_8
REMARK    4  A    between atoms: C_10  and  N_11
REMARK    5  A    between atoms: C_12  and  C_13
REMARK    6  A    between atoms: C_13  and  C_15
REMARK    7  A    between atoms: C_22  and  C_23
REMARK                            x       y       z     vdW  Elec       q    Type
REMARK                         _______ _______ _______ _____ _____    ______ ____
ROOT
ATOM      1  C   UNL     1       1.353   8.710  19.991  0.00  0.00    +0.000 A 
ATOM      2  S   UNL     1       0.856   8.457  21.597  0.00  0.00    +0.000 S 
ATOM      3  C   UNL     1      -0.031   9.916  21.642  0.00  0.00    +0.000 A 
ATOM      4  C   UNL     1       0.046  10.622  20.448  0.00  0.00    +0.000 A 
ATOM      5  C   UNL     1       0.898   9.921  19.486  0.00  0.00    +0.000 A 
ATOM      6  C   UNL     1       1.268  10.391  18.111  0.00  0.00    +0.000 C 
ENDROOT
BRANCH   3   7
ATOM      7  N   UNL     1      -0.726  10.261  22.756  0.00  0.00    +0.000 N 
ATOM      8  H   UNL     1      -0.246  10.735  23.517  0.00  0.00    +0.000 HD
ATOM      9  H   UNL     1      -1.703  10.548  22.651  0.00  0.00    +0.000 HD
ENDBRANCH   3   7
BRANCH   1  11
ATOM     10  C   UNL     1       2.826   7.070  18.544  0.00  0.00    +0.000 C 
ATOM     11  C   UNL     1       2.153   7.776  19.241  0.00  0.00    +0.000 C 
BRANCH  10  16
ATOM     12  C   UNL     1       6.161   3.730  15.232  0.00  0.00    +0.000 C 
ATOM     13  C   UNL     1       5.233   4.606  16.027  0.00  0.00    +0.000 A 
ATOM     14  C   UNL     1       5.362   5.996  16.004  0.00  0.00    +0.000 A 
ATOM     15  C   UNL     1       4.550   6.805  16.813  0.00  0.00    +0.000 A 
ATOM     16  C   UNL     1       3.594   6.239  17.658  0.00  0.00    +0.000 A 
ATOM     17  C   UNL     1       3.424   4.846  17.643  0.00  0.00    +0.000 A 
ATOM     18  C   UNL     1       4.240   4.035  16.836  0.00  0.00    +0.000 A 
ENDBRANCH  10  16
ENDBRANCH   1  11
BRANCH   4  19
ATOM     19  C   UNL     1      -0.658  11.911  20.287  0.00  0.00    +0.000 C 
ATOM     20  O   UNL     1      -0.225  12.960  20.767  0.00  0.00    +0.000 OA
BRANCH  19  21
ATOM     21  C   UNL     1      -1.984  11.978  19.612  0.00  0.00    +0.000 A 
ATOM     22  C   UNL     1      -3.066  12.563  20.289  0.00  0.00    +0.000 A 
ATOM     23  C   UNL     1      -4.358  12.470  19.761  0.00  0.00    +0.000 A 
ATOM     24  C   UNL     1      -4.564  11.807  18.552  0.00  0.00    +0.000 A 
ATOM     25 CL   UNL     1      -6.162  11.579  17.960  0.00  0.00    +0.000 Cl
ATOM     26  C   UNL     1      -3.487  11.279  17.843  0.00  0.00    +0.000 A 
ATOM     27  C   UNL     1      -2.200  11.348  18.380  0.00  0.00    +0.000 A 
ENDBRANCH  19  21
ENDBRANCH   4  19
TORSDOF 5
ENDMDL
