MODEL 1
REMARK VINA RESULT:      -7.0      0.000      0.000
REMARK  Name = 
REMARK  8 active torsions:
REMARK  status: ('A' for Active; 'I' for Inactive)
REMARK    1  A    between atoms: C_1  and  O_2
REMARK    2  A    between atoms: O_2  and  C_3
REMARK    3  A    between atoms: C_3  and  C_4
REMARK    4  A    between atoms: C_9  and  N_10
REMARK    5  A    between atoms: C_11  and  C_13
REMARK    6  A    between atoms: C_13  and  C_14
REMARK    7  A    between atoms: C_14  and  N_15
REMARK    8  A    between atoms: C_16  and  C_18
REMARK                            x       y       z     vdW  Elec       q    Type
REMARK                         _______ _______ _______ _____ _____    ______ ____
ROOT
ATOM      1  N   UNL     1       5.215   3.841  18.101  0.00  0.00    +0.000 N 
ATOM      2  C   UNL     1       5.887   4.866  18.747  0.00  0.00    +0.000 C 
ATOM      3  O   UNL     1       5.416   5.630  19.588  0.00  0.00    +0.000 OA
ATOM      4  H   UNL     1       5.772   3.151  17.597  0.00  0.00    +0.000 HD
ENDROOT
BRANCH   1  10
ATOM      5  C   UNL     1       3.539   2.386  19.130  0.00  0.00    +0.000 A 
ATOM      6  C   UNL     1       2.177   2.084  19.358  0.00  0.00    +0.000 A 
ATOM      7  C   UNL     1       1.156   2.829  18.772  0.00  0.00    +0.000 A 
ATOM      8  C   UNL     1       1.479   3.875  17.924  0.00  0.00    +0.000 A 
ATOM      9  C   UNL     1       2.817   4.191  17.687  0.00  0.00    +0.000 A 
ATOM     10  C   UNL     1       3.860   3.477  18.299  0.00  0.00    +0.000 A 
BRANCH   5  11
ATOM     11  C   UNL     1       4.534   1.428  19.758  0.00  0.00    +0.000 C 
BRANCH  11  13
ATOM     12  C   UNL     1       5.697   0.726  21.665  0.00  0.00    +0.000 C 
ATOM     13  O   UNL     1       4.981   1.806  21.062  0.00  0.00    +0.000 OA
ENDBRANCH  11  13
ENDBRANCH   5  11
ENDBRANCH   1  10
BRANCH   2  14
ATOM     14  C   UNL     1       7.323   5.030  18.306  0.00  0.00    +0.000 C 
BRANCH  14  15
ATOM     15  C   UNL     1       7.386   6.085  17.203  0.00  0.00    +0.000 C 
BRANCH  15  16
ATOM     16  N   UNL     1       7.423   5.519  15.872  0.00  0.00    +0.000 N 
ATOM     17  C   UNL     1       6.277   5.322  15.135  0.00  0.00    +0.000 C 
ATOM     18  O   UNL     1       5.171   5.695  15.512  0.00  0.00    +0.000 OA
ATOM     19  H   UNL     1       8.303   5.165  15.531  0.00  0.00    +0.000 HD
BRANCH  17  20
ATOM     20  C   UNL     1       6.475   4.656  13.862  0.00  0.00    +0.000 A 
ATOM     21  C   UNL     1       5.761   3.595  13.227  0.00  0.00    +0.000 A 
ATOM     22  C   UNL     1       6.382   3.369  12.019  0.00  0.00    +0.000 A 
ATOM     23  O   UNL     1       7.432   4.215  11.863  0.00  0.00    +0.000 OA
ATOM     24  C   UNL     1       7.480   4.990  12.976  0.00  0.00    +0.000 A 
ENDBRANCH  17  20
ENDBRANCH  15  16
ENDBRANCH  14  15
ENDBRANCH   2  14
TORSDOF 7
ENDMDL
MODEL 2
REMARK VINA RESULT:      -6.9      2.219      3.528
REMARK  Name = 
REMARK  8 active torsions:
REMARK  status: ('A' for Active; 'I' for Inactive)
REMARK    1  A    between atoms: C_1  and  O_2
REMARK    2  A    between atoms: O_2  and  C_3
REMARK    3  A    between atoms: C_3  and  C_4
REMARK    4  A    between atoms: C_9  and  N_10
REMARK    5  A    between atoms: C_11  and  C_13
REMARK    6  A    between atoms: C_13  and  C_14
REMARK    7  A    between atoms: C_14  and  N_15
REMARK    8  A    between atoms: C_16  and  C_18
REMARK                            x       y       z     vdW  Elec       q    Type
REMARK                         _______ _______ _______ _____ _____    ______ ____
ROOT
ATOM      1  N   UNL     1       4.567   5.092  18.791  0.00  0.00    +0.000 N 
ATOM      2  C   UNL     1       4.796   4.860  17.444  0.00  0.00    +0.000 C 
ATOM      3  O   UNL     1       4.133   4.132  16.707  0.00  0.00    +0.000 OA
ATOM      4  H   UNL     1       5.051   5.877  19.226  0.00  0.00    +0.000 HD
ENDROOT
BRANCH   1  10
ATOM      5  C   UNL     1       2.392   5.324  19.887  0.00  0.00    +0.000 A 
ATOM      6  C   UNL     1       1.334   4.728  20.609  0.00  0.00    +0.000 A 
ATOM      7  C   UNL     1       1.387   3.398  21.018  0.00  0.00    +0.000 A 
ATOM      8  C   UNL     1       2.513   2.644  20.734  0.00  0.00    +0.000 A 
ATOM      9  C   UNL     1       3.569   3.213  20.020  0.00  0.00    +0.000 A 
ATOM     10  C   UNL     1       3.517   4.540  19.566  0.00  0.00    +0.000 A 
BRANCH   5  11
ATOM     11  C   UNL     1       2.232   6.805  19.597  0.00  0.00    +0.000 C 
BRANCH  11  13
ATOM     12  C   UNL     1       2.336   8.578  18.072  0.00  0.00    +0.000 C 
ATOM     13  O   UNL     1       2.363   7.157  18.217  0.00  0.00    +0.000 OA
ENDBRANCH  11  13
ENDBRANCH   5  11
ENDBRANCH   1  10
BRANCH   2  14
ATOM     14  C   UNL     1       6.012   5.572  16.897  0.00  0.00    +0.000 C 
BRANCH  14  15
ATOM     15  C   UNL     1       6.970   4.538  16.309  0.00  0.00    +0.000 C 
BRANCH  15  16
ATOM     16  N   UNL     1       6.438   3.865  15.144  0.00  0.00    +0.000 N 
ATOM     17  C   UNL     1       6.652   4.342  13.870  0.00  0.00    +0.000 C 
ATOM     18  O   UNL     1       7.376   5.302  13.631  0.00  0.00    +0.000 OA
ATOM     19  H   UNL     1       5.809   3.091  15.289  0.00  0.00    +0.000 HD
BRANCH  17  20
ATOM     20  C   UNL     1       5.972   3.608  12.820  0.00  0.00    +0.000 A 
ATOM     21  C   UNL     1       4.655   3.729  12.281  0.00  0.00    +0.000 A 
ATOM     22  C   UNL     1       4.546   2.780  11.289  0.00  0.00    +0.000 A 
ATOM     23  O   UNL     1       5.703   2.079  11.178  0.00  0.00    +0.000 OA
ATOM     24  C   UNL     1       6.558   2.585  12.102  0.00  0.00    +0.000 A 
ENDBRANCH  17  20
ENDBRANCH  15  16
ENDBRANCH  14  15
ENDBRANCH   2  14
TORSDOF 7
ENDMDL
MODEL 3
REMARK VINA RESULT:      -6.9      2.067      2.777
REMARK  Name = 
REMARK  8 active torsions:
REMARK  status: ('A' for Active; 'I' for Inactive)
REMARK    1  A    between atoms: C_1  and  O_2
REMARK    2  A    between atoms: O_2  and  C_3
REMARK    3  A    between atoms: C_3  and  C_4
REMARK    4  A    between atoms: C_9  and  N_10
REMARK    5  A    between atoms: C_11  and  C_13
REMARK    6  A    between atoms: C_13  and  C_14
REMARK    7  A    between atoms: C_14  and  N_15
REMARK    8  A    between atoms: C_16  and  C_18
REMARK                            x       y       z     vdW  Elec       q    Type
REMARK                         _______ _______ _______ _____ _____    ______ ____
ROOT
ATOM      1  N   UNL     1       4.557   4.140  19.247  0.00  0.00    +0.000 N 
ATOM      2  C   UNL     1       5.040   5.105  18.377  0.00  0.00    +0.000 C 
ATOM      3  O   UNL     1       4.446   5.578  17.410  0.00  0.00    +0.000 OA
ATOM      4  H   UNL     1       5.057   3.998  20.124  0.00  0.00    +0.000 HD
ENDROOT
BRANCH   1  10
ATOM      5  C   UNL     1       2.215   4.048  19.948  0.00  0.00    +0.000 A 
ATOM      6  C   UNL     1       0.939   3.455  19.823  0.00  0.00    +0.000 A 
ATOM      7  C   UNL     1       0.718   2.368  18.980  0.00  0.00    +0.000 A 
ATOM      8  C   UNL     1       1.778   1.838  18.264  0.00  0.00    +0.000 A 
ATOM      9  C   UNL     1       3.046   2.410  18.373  0.00  0.00    +0.000 A 
ATOM     10  C   UNL     1       3.280   3.529  19.188  0.00  0.00    +0.000 A 
BRANCH   5  11
ATOM     11  C   UNL     1       2.320   5.159  20.977  0.00  0.00    +0.000 C 
BRANCH  11  13
ATOM     12  C   UNL     1       2.241   7.127  19.710  0.00  0.00    +0.000 C 
ATOM     13  O   UNL     1       1.552   6.326  20.672  0.00  0.00    +0.000 OA
ENDBRANCH  11  13
ENDBRANCH   5  11
ENDBRANCH   1  10
BRANCH   2  14
ATOM     14  C   UNL     1       6.453   5.550  18.680  0.00  0.00    +0.000 C 
BRANCH  14  15
ATOM     15  C   UNL     1       7.430   4.640  17.940  0.00  0.00    +0.000 C 
BRANCH  15  16
ATOM     16  N   UNL     1       6.931   4.189  16.659  0.00  0.00    +0.000 N 
ATOM     17  C   UNL     1       7.108   4.927  15.510  0.00  0.00    +0.000 C 
ATOM     18  O   UNL     1       7.772   5.957  15.476  0.00  0.00    +0.000 OA
ATOM     19  H   UNL     1       6.349   3.366  16.640  0.00  0.00    +0.000 HD
BRANCH  17  20
ATOM     20  C   UNL     1       6.464   4.384  14.329  0.00  0.00    +0.000 A 
ATOM     21  C   UNL     1       6.982   4.021  13.049  0.00  0.00    +0.000 A 
ATOM     22  C   UNL     1       5.920   3.547  12.313  0.00  0.00    +0.000 A 
ATOM     23  O   UNL     1       4.779   3.593  13.047  0.00  0.00    +0.000 OA
ATOM     24  C   UNL     1       5.115   4.096  14.261  0.00  0.00    +0.000 A 
ENDBRANCH  17  20
ENDBRANCH  15  16
ENDBRANCH  14  15
ENDBRANCH   2  14
TORSDOF 7
ENDMDL
MODEL 4
REMARK VINA RESULT:      -6.9      2.247      3.268
REMARK  Name = 
REMARK  8 active torsions:
REMARK  status: ('A' for Active; 'I' for Inactive)
REMARK    1  A    between atoms: C_1  and  O_2
REMARK    2  A    between atoms: O_2  and  C_3
REMARK    3  A    between atoms: C_3  and  C_4
REMARK    4  A    between atoms: C_9  and  N_10
REMARK    5  A    between atoms: C_11  and  C_13
REMARK    6  A    between atoms: C_13  and  C_14
REMARK    7  A    between atoms: C_14  and  N_15
REMARK    8  A    between atoms: C_16  and  C_18
REMARK                            x       y       z     vdW  Elec       q    Type
REMARK                         _______ _______ _______ _____ _____    ______ ____
ROOT
ATOM      1  N   UNL     1       4.614   4.854  19.383  0.00  0.00    +0.000 N 
ATOM      2  C   UNL     1       4.940   5.200  18.081  0.00  0.00    +0.000 C 
ATOM      3  O   UNL     1       4.216   5.085  17.094  0.00  0.00    +0.000 OA
ATOM      4  H   UNL     1       5.214   5.201  20.132  0.00  0.00    +0.000 HD
ENDROOT
BRANCH   1  10
ATOM      5  C   UNL     1       2.273   5.161  20.026  0.00  0.00    +0.000 A 
ATOM      6  C   UNL     1       1.038   4.586  20.401  0.00  0.00    +0.000 A 
ATOM      7  C   UNL     1       0.897   3.212  20.580  0.00  0.00    +0.000 A 
ATOM      8  C   UNL     1       1.997   2.388  20.412  0.00  0.00    +0.000 A 
ATOM      9  C   UNL     1       3.226   2.936  20.041  0.00  0.00    +0.000 A 
ATOM     10  C   UNL     1       3.379   4.313  19.818  0.00  0.00    +0.000 A 
BRANCH   5  11
ATOM     11  C   UNL     1       2.296   6.677  19.965  0.00  0.00    +0.000 C 
BRANCH  11  13
ATOM     12  C   UNL     1       1.185   8.658  20.536  0.00  0.00    +0.000 C 
ATOM     13  O   UNL     1       1.486   7.323  20.950  0.00  0.00    +0.000 OA
ENDBRANCH  11  13
ENDBRANCH   5  11
ENDBRANCH   1  10
BRANCH   2  14
ATOM     14  C   UNL     1       6.347   5.731  17.923  0.00  0.00    +0.000 C 
BRANCH  14  15
ATOM     15  C   UNL     1       7.231   4.628  17.346  0.00  0.00    +0.000 C 
BRANCH  15  16
ATOM     16  N   UNL     1       6.751   4.115  16.080  0.00  0.00    +0.000 N 
ATOM     17  C   UNL     1       7.063   4.724  14.885  0.00  0.00    +0.000 C 
ATOM     18  O   UNL     1       7.835   5.673  14.803  0.00  0.00    +0.000 OA
ATOM     19  H   UNL     1       6.087   3.357  16.097  0.00  0.00    +0.000 HD
BRANCH  17  20
ATOM     20  C   UNL     1       6.425   4.144  13.719  0.00  0.00    +0.000 A 
ATOM     21  C   UNL     1       5.076   3.742  13.478  0.00  0.00    +0.000 A 
ATOM     22  C   UNL     1       5.031   3.267  12.187  0.00  0.00    +0.000 A 
ATOM     23  O   UNL     1       6.257   3.345  11.612  0.00  0.00    +0.000 OA
ATOM     24  C   UNL     1       7.092   3.877  12.540  0.00  0.00    +0.000 A 
ENDBRANCH  17  20
ENDBRANCH  15  16
ENDBRANCH  14  15
ENDBRANCH   2  14
TORSDOF 7
ENDMDL
MODEL 5
REMARK VINA RESULT:      -6.8      1.768      3.176
REMARK  Name = 
REMARK  8 active torsions:
REMARK  status: ('A' for Active; 'I' for Inactive)
REMARK    1  A    between atoms: C_1  and  O_2
REMARK    2  A    between atoms: O_2  and  C_3
REMARK    3  A    between atoms: C_3  and  C_4
REMARK    4  A    between atoms: C_9  and  N_10
REMARK    5  A    between atoms: C_11  and  C_13
REMARK    6  A    between atoms: C_13  and  C_14
REMARK    7  A    between atoms: C_14  and  N_15
REMARK    8  A    between atoms: C_16  and  C_18
REMARK                            x       y       z     vdW  Elec       q    Type
REMARK                         _______ _______ _______ _____ _____    ______ ____
ROOT
ATOM      1  N   UNL     1       5.253   4.221  18.470  0.00  0.00    +0.000 N 
ATOM      2  C   UNL     1       6.434   4.822  18.877  0.00  0.00    +0.000 C 
ATOM      3  O   UNL     1       6.636   5.374  19.957  0.00  0.00    +0.000 OA
ATOM      4  H   UNL     1       5.287   3.615  17.650  0.00  0.00    +0.000 HD
ENDROOT
BRANCH   1  10
ATOM      5  C   UNL     1       3.081   5.127  19.136  0.00  0.00    +0.000 A 
ATOM      6  C   UNL     1       1.878   4.971  19.861  0.00  0.00    +0.000 A 
ATOM      7  C   UNL     1       1.651   3.860  20.670  0.00  0.00    +0.000 A 
ATOM      8  C   UNL     1       2.636   2.894  20.789  0.00  0.00    +0.000 A 
ATOM      9  C   UNL     1       3.831   3.029  20.081  0.00  0.00    +0.000 A 
ATOM     10  C   UNL     1       4.062   4.122  19.231  0.00  0.00    +0.000 A 
BRANCH   5  11
ATOM     11  C   UNL     1       3.221   6.434  18.378  0.00  0.00    +0.000 C 
BRANCH  11  13
ATOM     12  C   UNL     1       2.276   8.516  17.875  0.00  0.00    +0.000 C 
ATOM     13  O   UNL     1       2.400   7.497  18.869  0.00  0.00    +0.000 OA
ENDBRANCH  11  13
ENDBRANCH   5  11
ENDBRANCH   1  10
BRANCH   2  14
ATOM     14  C   UNL     1       7.527   4.793  17.834  0.00  0.00    +0.000 C 
BRANCH  14  15
ATOM     15  C   UNL     1       7.235   5.857  16.778  0.00  0.00    +0.000 C 
BRANCH  15  16
ATOM     16  N   UNL     1       7.147   5.321  15.436  0.00  0.00    +0.000 N 
ATOM     17  C   UNL     1       6.003   4.713  14.970  0.00  0.00    +0.000 C 
ATOM     18  O   UNL     1       4.963   4.668  15.618  0.00  0.00    +0.000 OA
ATOM     19  H   UNL     1       7.986   5.303  14.877  0.00  0.00    +0.000 HD
BRANCH  17  20
ATOM     20  C   UNL     1       6.111   4.143  13.641  0.00  0.00    +0.000 A 
ATOM     21  C   UNL     1       7.198   4.093  12.717  0.00  0.00    +0.000 A 
ATOM     22  C   UNL     1       6.742   3.417  11.607  0.00  0.00    +0.000 A 
ATOM     23  O   UNL     1       5.447   3.048  11.779  0.00  0.00    +0.000 OA
ATOM     24  C   UNL     1       5.074   3.486  13.008  0.00  0.00    +0.000 A 
ENDBRANCH  17  20
ENDBRANCH  15  16
ENDBRANCH  14  15
ENDBRANCH   2  14
TORSDOF 7
ENDMDL
MODEL 6
REMARK VINA RESULT:      -6.8      1.462      2.786
REMARK  Name = 
REMARK  8 active torsions:
REMARK  status: ('A' for Active; 'I' for Inactive)
REMARK    1  A    between atoms: C_1  and  O_2
REMARK    2  A    between atoms: O_2  and  C_3
REMARK    3  A    between atoms: C_3  and  C_4
REMARK    4  A    between atoms: C_9  and  N_10
REMARK    5  A    between atoms: C_11  and  C_13
REMARK    6  A    between atoms: C_13  and  C_14
REMARK    7  A    between atoms: C_14  and  N_15
REMARK    8  A    between atoms: C_16  and  C_18
REMARK                            x       y       z     vdW  Elec       q    Type
REMARK                         _______ _______ _______ _____ _____    ______ ____
ROOT
ATOM      1  N   UNL     1       5.163   3.900  18.604  0.00  0.00    +0.000 N 
ATOM      2  C   UNL     1       6.273   4.628  19.002  0.00  0.00    +0.000 C 
ATOM      3  O   UNL     1       6.394   5.256  20.053  0.00  0.00    +0.000 OA
ATOM      4  H   UNL     1       5.273   3.254  17.823  0.00  0.00    +0.000 HD
ENDROOT
BRANCH   1  10
ATOM      5  C   UNL     1       2.839   4.527  19.046  0.00  0.00    +0.000 A 
ATOM      6  C   UNL     1       1.641   4.299  19.759  0.00  0.00    +0.000 A 
ATOM      7  C   UNL     1       1.555   3.323  20.749  0.00  0.00    +0.000 A 
ATOM      8  C   UNL     1       2.677   2.574  21.064  0.00  0.00    +0.000 A 
ATOM      9  C   UNL     1       3.869   2.784  20.371  0.00  0.00    +0.000 A 
ATOM     10  C   UNL     1       3.965   3.735  19.343  0.00  0.00    +0.000 A 
BRANCH   5  11
ATOM     11  C   UNL     1       2.806   5.687  18.067  0.00  0.00    +0.000 C 
BRANCH  11  13
ATOM     12  C   UNL     1       3.895   7.509  17.079  0.00  0.00    +0.000 C 
ATOM     13  O   UNL     1       3.923   6.574  18.160  0.00  0.00    +0.000 OA
ENDBRANCH  11  13
ENDBRANCH   5  11
ENDBRANCH   1  10
BRANCH   2  14
ATOM     14  C   UNL     1       7.392   4.641  17.987  0.00  0.00    +0.000 C 
BRANCH  14  15
ATOM     15  C   UNL     1       7.171   5.800  17.017  0.00  0.00    +0.000 C 
BRANCH  15  16
ATOM     16  N   UNL     1       7.194   5.394  15.628  0.00  0.00    +0.000 N 
ATOM     17  C   UNL     1       6.151   4.700  15.058  0.00  0.00    +0.000 C 
ATOM     18  O   UNL     1       5.105   4.462  15.652  0.00  0.00    +0.000 OA
ATOM     19  H   UNL     1       8.045   5.536  15.107  0.00  0.00    +0.000 HD
BRANCH  17  20
ATOM     20  C   UNL     1       6.371   4.283  13.686  0.00  0.00    +0.000 A 
ATOM     21  C   UNL     1       5.683   3.345  12.858  0.00  0.00    +0.000 A 
ATOM     22  C   UNL     1       6.317   3.357  11.636  0.00  0.00    +0.000 A 
ATOM     23  O   UNL     1       7.351   4.237  11.650  0.00  0.00    +0.000 OA
ATOM     24  C   UNL     1       7.376   4.793  12.887  0.00  0.00    +0.000 A 
ENDBRANCH  17  20
ENDBRANCH  15  16
ENDBRANCH  14  15
ENDBRANCH   2  14
TORSDOF 7
ENDMDL
MODEL 7
REMARK VINA RESULT:      -6.7      3.863      5.503
REMARK  Name = 
REMARK  8 active torsions:
REMARK  status: ('A' for Active; 'I' for Inactive)
REMARK    1  A    between atoms: C_1  and  O_2
REMARK    2  A    between atoms: O_2  and  C_3
REMARK    3  A    between atoms: C_3  and  C_4
REMARK    4  A    between atoms: C_9  and  N_10
REMARK    5  A    between atoms: C_11  and  C_13
REMARK    6  A    between atoms: C_13  and  C_14
REMARK    7  A    between atoms: C_14  and  N_15
REMARK    8  A    between atoms: C_16  and  C_18
REMARK                            x       y       z     vdW  Elec       q    Type
REMARK                         _______ _______ _______ _____ _____    ______ ____
ROOT
ATOM      1  N   UNL     1       2.586   5.973  20.152  0.00  0.00    +0.000 N 
ATOM      2  C   UNL     1       2.221   4.703  19.732  0.00  0.00    +0.000 C 
ATOM      3  O   UNL     1       1.529   4.430  18.753  0.00  0.00    +0.000 OA
ATOM      4  H   UNL     1       3.334   6.049  20.840  0.00  0.00    +0.000 HD
ENDROOT
BRANCH   1  10
ATOM      5  C   UNL     1       1.485   8.157  20.219  0.00  0.00    +0.000 A 
ATOM      6  C   UNL     1       1.203   9.388  19.584  0.00  0.00    +0.000 A 
ATOM      7  C   UNL     1       1.638   9.658  18.289  0.00  0.00    +0.000 A 
ATOM      8  C   UNL     1       2.342   8.689  17.593  0.00  0.00    +0.000 A 
ATOM      9  C   UNL     1       2.632   7.468  18.202  0.00  0.00    +0.000 A 
ATOM     10  C   UNL     1       2.236   7.192  19.520  0.00  0.00    +0.000 A 
BRANCH   5  11
ATOM     11  C   UNL     1       0.863   7.972  21.591  0.00  0.00    +0.000 C 
BRANCH  11  13
ATOM     12  C   UNL     1      -0.137   9.498  23.058  0.00  0.00    +0.000 C 
ATOM     13  O   UNL     1      -0.292   8.779  21.833  0.00  0.00    +0.000 OA
ENDBRANCH  11  13
ENDBRANCH   5  11
ENDBRANCH   1  10
BRANCH   2  14
ATOM     14  C   UNL     1       2.725   3.594  20.627  0.00  0.00    +0.000 C 
BRANCH  14  15
ATOM     15  C   UNL     1       4.053   3.077  20.077  0.00  0.00    +0.000 C 
BRANCH  15  16
ATOM     16  N   UNL     1       4.340   3.551  18.740  0.00  0.00    +0.000 N 
ATOM     17  C   UNL     1       5.469   4.286  18.458  0.00  0.00    +0.000 C 
ATOM     18  O   UNL     1       6.344   4.509  19.288  0.00  0.00    +0.000 OA
ATOM     19  H   UNL     1       3.635   3.423  18.031  0.00  0.00    +0.000 HD
BRANCH  17  20
ATOM     20  C   UNL     1       5.560   4.767  17.092  0.00  0.00    +0.000 A 
ATOM     21  C   UNL     1       5.443   4.091  15.840  0.00  0.00    +0.000 A 
ATOM     22  C   UNL     1       5.606   5.045  14.860  0.00  0.00    +0.000 A 
ATOM     23  O   UNL     1       5.817   6.263  15.418  0.00  0.00    +0.000 OA
ATOM     24  C   UNL     1       5.786   6.089  16.764  0.00  0.00    +0.000 A 
ENDBRANCH  17  20
ENDBRANCH  15  16
ENDBRANCH  14  15
ENDBRANCH   2  14
TORSDOF 7
ENDMDL
MODEL 8
REMARK VINA RESULT:      -6.7      5.382      7.455
REMARK  Name = 
REMARK  8 active torsions:
REMARK  status: ('A' for Active; 'I' for Inactive)
REMARK    1  A    between atoms: C_1  and  O_2
REMARK    2  A    between atoms: O_2  and  C_3
REMARK    3  A    between atoms: C_3  and  C_4
REMARK    4  A    between atoms: C_9  and  N_10
REMARK    5  A    between atoms: C_11  and  C_13
REMARK    6  A    between atoms: C_13  and  C_14
REMARK    7  A    between atoms: C_14  and  N_15
REMARK    8  A    between atoms: C_16  and  C_18
REMARK                            x       y       z     vdW  Elec       q    Type
REMARK                         _______ _______ _______ _____ _____    ______ ____
ROOT
ATOM      1  N   UNL     1       2.655   6.158  17.804  0.00  0.00    +0.000 N 
ATOM      2  C   UNL     1       2.393   7.274  18.583  0.00  0.00    +0.000 C 
ATOM      3  O   UNL     1       2.098   7.277  19.777  0.00  0.00    +0.000 OA
ATOM      4  H   UNL     1       3.098   6.305  16.897  0.00  0.00    +0.000 HD
ENDROOT
BRANCH   1  10
ATOM      5  C   UNL     1       3.760   4.278  18.914  0.00  0.00    +0.000 A 
ATOM      6  C   UNL     1       3.694   2.951  19.395  0.00  0.00    +0.000 A 
ATOM      7  C   UNL     1       2.560   2.163  19.212  0.00  0.00    +0.000 A 
ATOM      8  C   UNL     1       1.478   2.680  18.519  0.00  0.00    +0.000 A 
ATOM      9  C   UNL     1       1.522   3.989  18.036  0.00  0.00    +0.000 A 
ATOM     10  C   UNL     1       2.641   4.812  18.245  0.00  0.00    +0.000 A 
BRANCH   5  11
ATOM     11  C   UNL     1       5.094   4.976  19.104  0.00  0.00    +0.000 C 
BRANCH  11  13
ATOM     12  C   UNL     1       6.839   4.740  17.561  0.00  0.00    +0.000 C 
ATOM     13  O   UNL     1       5.672   5.490  17.901  0.00  0.00    +0.000 OA
ENDBRANCH  11  13
ENDBRANCH   5  11
ENDBRANCH   1  10
BRANCH   2  14
ATOM     14  C   UNL     1       2.460   8.580  17.824  0.00  0.00    +0.000 C 
BRANCH  14  15
ATOM     15  C   UNL     1       1.601   9.617  18.544  0.00  0.00    +0.000 C 
BRANCH  15  16
ATOM     16  N   UNL     1       0.405   9.975  17.812  0.00  0.00    +0.000 N 
ATOM     17  C   UNL     1      -0.776  10.275  18.453  0.00  0.00    +0.000 C 
ATOM     18  O   UNL     1      -0.871  10.349  19.673  0.00  0.00    +0.000 OA
ATOM     19  H   UNL     1       0.422   9.896  16.807  0.00  0.00    +0.000 HD
BRANCH  17  20
ATOM     20  C   UNL     1      -1.905  10.517  17.575  0.00  0.00    +0.000 A 
ATOM     21  C   UNL     1      -2.312   9.889  16.359  0.00  0.00    +0.000 A 
ATOM     22  C   UNL     1      -3.469  10.518  15.958  0.00  0.00    +0.000 A 
ATOM     23  O   UNL     1      -3.805  11.493  16.839  0.00  0.00    +0.000 OA
ATOM     24  C   UNL     1      -2.860  11.486  17.812  0.00  0.00    +0.000 A 
ENDBRANCH  17  20
ENDBRANCH  15  16
ENDBRANCH  14  15
ENDBRANCH   2  14
TORSDOF 7
ENDMDL
MODEL 9
REMARK VINA RESULT:      -6.7      5.277      7.371
REMARK  Name = 
REMARK  8 active torsions:
REMARK  status: ('A' for Active; 'I' for Inactive)
REMARK    1  A    between atoms: C_1  and  O_2
REMARK    2  A    between atoms: O_2  and  C_3
REMARK    3  A    between atoms: C_3  and  C_4
REMARK    4  A    between atoms: C_9  and  N_10
REMARK    5  A    between atoms: C_11  and  C_13
REMARK    6  A    between atoms: C_13  and  C_14
REMARK    7  A    between atoms: C_14  and  N_15
REMARK    8  A    between atoms: C_16  and  C_18
REMARK                            x       y       z     vdW  Elec       q    Type
REMARK                         _______ _______ _______ _____ _____    ______ ____
ROOT
ATOM      1  N   UNL     1       2.598   5.811  18.438  0.00  0.00    +0.000 N 
ATOM      2  C   UNL     1       2.450   7.148  18.771  0.00  0.00    +0.000 C 
ATOM      3  O   UNL     1       2.186   7.597  19.885  0.00  0.00    +0.000 OA
ATOM      4  H   UNL     1       3.028   5.590  17.540  0.00  0.00    +0.000 HD
ENDROOT
BRANCH   1  10
ATOM      5  C   UNL     1       3.563   3.824  19.489  0.00  0.00    +0.000 A 
ATOM      6  C   UNL     1       3.442   2.773  20.427  0.00  0.00    +0.000 A 
ATOM      7  C   UNL     1       2.281   2.593  21.175  0.00  0.00    +0.000 A 
ATOM      8  C   UNL     1       1.208   3.447  20.982  0.00  0.00    +0.000 A 
ATOM      9  C   UNL     1       1.308   4.492  20.062  0.00  0.00    +0.000 A 
ATOM     10  C   UNL     1       2.483   4.713  19.326  0.00  0.00    +0.000 A 
BRANCH   5  11
ATOM     11  C   UNL     1       4.847   3.833  18.681  0.00  0.00    +0.000 C 
BRANCH  11  13
ATOM     12  C   UNL     1       6.464   5.524  18.759  0.00  0.00    +0.000 C 
ATOM     13  O   UNL     1       5.988   4.331  19.384  0.00  0.00    +0.000 OA
ENDBRANCH  11  13
ENDBRANCH   5  11
ENDBRANCH   1  10
BRANCH   2  14
ATOM     14  C   UNL     1       2.605   8.091  17.600  0.00  0.00    +0.000 C 
BRANCH  14  15
ATOM     15  C   UNL     1       2.180   9.493  18.032  0.00  0.00    +0.000 C 
BRANCH  15  16
ATOM     16  N   UNL     1       0.800   9.794  17.715  0.00  0.00    +0.000 N 
ATOM     17  C   UNL     1      -0.039  10.399  18.624  0.00  0.00    +0.000 C 
ATOM     18  O   UNL     1       0.344  10.803  19.716  0.00  0.00    +0.000 OA
ATOM     19  H   UNL     1       0.428   9.451  16.842  0.00  0.00    +0.000 HD
BRANCH  17  20
ATOM     20  C   UNL     1      -1.414  10.542  18.186  0.00  0.00    +0.000 A 
ATOM     21  C   UNL     1      -2.148   9.901  17.143  0.00  0.00    +0.000 A 
ATOM     22  C   UNL     1      -3.425  10.415  17.185  0.00  0.00    +0.000 A 
ATOM     23  O   UNL     1      -3.531  11.332  18.180  0.00  0.00    +0.000 OA
ATOM     24  C   UNL     1      -2.317  11.401  18.781  0.00  0.00    +0.000 A 
ENDBRANCH  17  20
ENDBRANCH  15  16
ENDBRANCH  14  15
ENDBRANCH   2  14
TORSDOF 7
ENDMDL
