MODEL 1
REMARK VINA RESULT:      -8.5      0.000      0.000
REMARK  Name = 
REMARK  7 active torsions:
REMARK  status: ('A' for Active; 'I' for Inactive)
REMARK    1  A    between atoms: C_1  and  C_2
REMARK    2  A    between atoms: C_2  and  C_3
REMARK    3  A    between atoms: C_8  and  C_9
REMARK    4  A    between atoms: C_9  and  C_10
REMARK    5  A    between atoms: N_12  and  C_13
REMARK    6  A    between atoms: C_16  and  C_17
REMARK    7  A    between atoms: C_17  and  C_18
REMARK                            x       y       z     vdW  Elec       q    Type
REMARK                         _______ _______ _______ _____ _____    ______ ____
ROOT
ATOM      1  C   UNL     1       2.439   7.506  18.947  0.00  0.00    +0.000 A 
ATOM      2  C   UNL     1       2.244   8.538  18.029  0.00  0.00    +0.000 A 
ATOM      3  C   UNL     1       1.475   9.665  18.350  0.00  0.00    +0.000 A 
ATOM      4  C   UNL     1       0.880   9.795  19.608  0.00  0.00    +0.000 A 
ATOM      5  C   UNL     1       1.070   8.765  20.537  0.00  0.00    +0.000 A 
ATOM      6  C   UNL     1       1.842   7.634  20.209  0.00  0.00    +0.000 A 
ENDROOT
BRANCH   1   9
ATOM      7  C   UNL     1       2.723   5.155  18.107  0.00  0.00    +0.000 C 
ATOM      8  O   UNL     1       1.573   4.957  17.711  0.00  0.00    +0.000 OA
ATOM      9  N   UNL     1       3.197   6.333  18.671  0.00  0.00    +0.000 N 
ATOM     10  H   UNL     1       4.177   6.372  18.904  0.00  0.00    +0.000 HD
BRANCH   7  11
ATOM     11  C   UNL     1       3.754   4.028  18.024  0.00  0.00    +0.000 C 
BRANCH  11  17
ATOM     12  C   UNL     1       6.167   4.841  17.581  0.00  0.00    +0.000 A 
ATOM     13  C   UNL     1       7.205   5.074  16.654  0.00  0.00    +0.000 A 
ATOM     14  C   UNL     1       7.061   4.759  15.305  0.00  0.00    +0.000 A 
ATOM     15  C   UNL     1       5.873   4.200  14.858  0.00  0.00    +0.000 A 
ATOM     16  C   UNL     1       4.826   3.985  15.755  0.00  0.00    +0.000 A 
ATOM     17  C   UNL     1       4.938   4.323  17.120  0.00  0.00    +0.000 A 
BRANCH  12  19
ATOM     18  C   UNL     1       7.831   5.808  19.206  0.00  0.00    +0.000 C 
ATOM     19  C   UNL     1       6.465   5.166  19.027  0.00  0.00    +0.000 C 
ENDBRANCH  12  19
ENDBRANCH  11  17
ENDBRANCH   7  11
ENDBRANCH   1   9
BRANCH   4  20
ATOM     20  C   UNL     1       0.095  11.043  19.953  0.00  0.00    +0.000 C 
BRANCH  20  21
ATOM     21  C   UNL     1      -1.219  11.268  19.207  0.00  0.00    +0.000 C 
ATOM     22  N   UNL     1      -1.720  10.129  18.478  0.00  0.00    +0.000 N 
ATOM     23  C   UNL     1      -2.037  10.459  17.180  0.00  0.00    +0.000 C 
ATOM     24  O   UNL     1      -2.572   9.711  16.382  0.00  0.00    +0.000 OA
ATOM     25  N   UNL     1      -1.676  11.745  16.961  0.00  0.00    +0.000 N 
ATOM     26  C   UNL     1      -1.153  12.305  18.087  0.00  0.00    +0.000 C 
ATOM     27  O   UNL     1      -0.759  13.455  18.191  0.00  0.00    +0.000 OA
ATOM     28  H   UNL     1      -2.019   9.247  18.873  0.00  0.00    +0.000 HD
ATOM     29  H   UNL     1      -1.789  12.220  16.081  0.00  0.00    +0.000 HD
ENDBRANCH  20  21
ENDBRANCH   4  20
TORSDOF 6
ENDMDL
MODEL 2
REMARK VINA RESULT:      -8.3      3.108      9.134
REMARK  Name = 
REMARK  7 active torsions:
REMARK  status: ('A' for Active; 'I' for Inactive)
REMARK    1  A    between atoms: C_1  and  C_2
REMARK    2  A    between atoms: C_2  and  C_3
REMARK    3  A    between atoms: C_8  and  C_9
REMARK    4  A    between atoms: C_9  and  C_10
REMARK    5  A    between atoms: N_12  and  C_13
REMARK    6  A    between atoms: C_16  and  C_17
REMARK    7  A    between atoms: C_17  and  C_18
REMARK                            x       y       z     vdW  Elec       q    Type
REMARK                         _______ _______ _______ _____ _____    ______ ____
ROOT
ATOM      1  C   UNL     1       1.760   7.171  20.351  0.00  0.00    +0.000 A 
ATOM      2  C   UNL     1       1.551   5.839  20.709  0.00  0.00    +0.000 A 
ATOM      3  C   UNL     1       1.755   4.797  19.794  0.00  0.00    +0.000 A 
ATOM      4  C   UNL     1       2.184   5.058  18.490  0.00  0.00    +0.000 A 
ATOM      5  C   UNL     1       2.398   6.391  18.121  0.00  0.00    +0.000 A 
ATOM      6  C   UNL     1       2.189   7.435  19.042  0.00  0.00    +0.000 A 
ENDROOT
BRANCH   1   9
ATOM      7  C   UNL     1       0.351   8.653  21.811  0.00  0.00    +0.000 C 
ATOM      8  O   UNL     1      -0.726   8.067  21.687  0.00  0.00    +0.000 OA
ATOM      9  N   UNL     1       1.555   8.270  21.232  0.00  0.00    +0.000 N 
ATOM     10  H   UNL     1       2.371   8.815  21.461  0.00  0.00    +0.000 HD
BRANCH   7  11
ATOM     11  C   UNL     1       0.421   9.937  22.637  0.00  0.00    +0.000 C 
BRANCH  11  17
ATOM     12  C   UNL     1      -0.731  11.605  21.033  0.00  0.00    +0.000 A 
ATOM     13  C   UNL     1      -1.760  12.546  20.815  0.00  0.00    +0.000 A 
ATOM     14  C   UNL     1      -2.712  12.823  21.792  0.00  0.00    +0.000 A 
ATOM     15  C   UNL     1      -2.656  12.159  23.009  0.00  0.00    +0.000 A 
ATOM     16  C   UNL     1      -1.632  11.243  23.253  0.00  0.00    +0.000 A 
ATOM     17  C   UNL     1      -0.638  10.968  22.289  0.00  0.00    +0.000 A 
BRANCH  12  19
ATOM     18  C   UNL     1      -0.459  10.551  18.762  0.00  0.00    +0.000 C 
ATOM     19  C   UNL     1       0.205  11.344  19.875  0.00  0.00    +0.000 C 
ENDBRANCH  12  19
ENDBRANCH  11  17
ENDBRANCH   7  11
ENDBRANCH   1   9
BRANCH   4  20
ATOM     20  C   UNL     1       2.447   3.915  17.533  0.00  0.00    +0.000 C 
BRANCH  20  21
ATOM     21  C   UNL     1       3.678   3.051  17.799  0.00  0.00    +0.000 C 
ATOM     22  N   UNL     1       3.609   2.219  18.975  0.00  0.00    +0.000 N 
ATOM     23  C   UNL     1       4.725   2.366  19.765  0.00  0.00    +0.000 C 
ATOM     24  O   UNL     1       4.965   1.708  20.761  0.00  0.00    +0.000 OA
ATOM     25  N   UNL     1       5.505   3.339  19.236  0.00  0.00    +0.000 N 
ATOM     26  C   UNL     1       4.960   3.831  18.089  0.00  0.00    +0.000 C 
ATOM     27  O   UNL     1       5.450   4.701  17.387  0.00  0.00    +0.000 OA
ATOM     28  H   UNL     1       2.960   1.460  19.136  0.00  0.00    +0.000 HD
ATOM     29  H   UNL     1       6.373   3.647  19.640  0.00  0.00    +0.000 HD
ENDBRANCH  20  21
ENDBRANCH   4  20
TORSDOF 6
ENDMDL
MODEL 3
REMARK VINA RESULT:      -8.2      0.642      1.913
REMARK  Name = 
REMARK  7 active torsions:
REMARK  status: ('A' for Active; 'I' for Inactive)
REMARK    1  A    between atoms: C_1  and  C_2
REMARK    2  A    between atoms: C_2  and  C_3
REMARK    3  A    between atoms: C_8  and  C_9
REMARK    4  A    between atoms: C_9  and  C_10
REMARK    5  A    between atoms: N_12  and  C_13
REMARK    6  A    between atoms: C_16  and  C_17
REMARK    7  A    between atoms: C_17  and  C_18
REMARK                            x       y       z     vdW  Elec       q    Type
REMARK                         _______ _______ _______ _____ _____    ______ ____
ROOT
ATOM      1  C   UNL     1       2.345   7.729  18.638  0.00  0.00    +0.000 A 
ATOM      2  C   UNL     1       1.982   8.780  17.795  0.00  0.00    +0.000 A 
ATOM      3  C   UNL     1       1.159   9.823  18.241  0.00  0.00    +0.000 A 
ATOM      4  C   UNL     1       0.678   9.848  19.553  0.00  0.00    +0.000 A 
ATOM      5  C   UNL     1       1.037   8.799  20.407  0.00  0.00    +0.000 A 
ATOM      6  C   UNL     1       1.862   7.752  19.954  0.00  0.00    +0.000 A 
ENDROOT
BRANCH   1   9
ATOM      7  C   UNL     1       2.740   5.347  17.944  0.00  0.00    +0.000 C 
ATOM      8  O   UNL     1       1.571   4.956  17.943  0.00  0.00    +0.000 OA
ATOM      9  N   UNL     1       3.165   6.637  18.236  0.00  0.00    +0.000 N 
ATOM     10  H   UNL     1       4.150   6.830  18.147  0.00  0.00    +0.000 HD
BRANCH   7  11
ATOM     11  C   UNL     1       3.865   4.359  17.635  0.00  0.00    +0.000 C 
BRANCH  11  17
ATOM     12  C   UNL     1       6.040   5.456  16.770  0.00  0.00    +0.000 A 
ATOM     13  C   UNL     1       7.329   5.956  17.055  0.00  0.00    +0.000 A 
ATOM     14  C   UNL     1       7.830   5.979  18.353  0.00  0.00    +0.000 A 
ATOM     15  C   UNL     1       7.048   5.503  19.396  0.00  0.00    +0.000 A 
ATOM     16  C   UNL     1       5.781   4.982  19.132  0.00  0.00    +0.000 A 
ATOM     17  C   UNL     1       5.264   4.921  17.820  0.00  0.00    +0.000 A 
BRANCH  12  19
ATOM     18  C   UNL     1       5.972   4.312  14.527  0.00  0.00    +0.000 C 
ATOM     19  C   UNL     1       5.583   5.541  15.331  0.00  0.00    +0.000 C 
ENDBRANCH  12  19
ENDBRANCH  11  17
ENDBRANCH   7  11
ENDBRANCH   1   9
BRANCH   4  20
ATOM     20  C   UNL     1      -0.168  11.010  20.031  0.00  0.00    +0.000 C 
BRANCH  20  21
ATOM     21  C   UNL     1      -1.413  11.347  19.213  0.00  0.00    +0.000 C 
ATOM     22  N   UNL     1      -1.982  10.250  18.469  0.00  0.00    +0.000 N 
ATOM     23  C   UNL     1      -2.198  10.589  17.154  0.00  0.00    +0.000 C 
ATOM     24  O   UNL     1      -2.759   9.883  16.336  0.00  0.00    +0.000 OA
ATOM     25  N   UNL     1      -1.705  11.833  16.941  0.00  0.00    +0.000 N 
ATOM     26  C   UNL     1      -1.190  12.357  18.089  0.00  0.00    +0.000 C 
ATOM     27  O   UNL     1      -0.695  13.466  18.202  0.00  0.00    +0.000 OA
ATOM     28  H   UNL     1      -2.383   9.406  18.856  0.00  0.00    +0.000 HD
ATOM     29  H   UNL     1      -1.726  12.303  16.052  0.00  0.00    +0.000 HD
ENDBRANCH  20  21
ENDBRANCH   4  20
TORSDOF 6
ENDMDL
MODEL 4
REMARK VINA RESULT:      -8.2      0.997      1.020
REMARK  Name = 
REMARK  7 active torsions:
REMARK  status: ('A' for Active; 'I' for Inactive)
REMARK    1  A    between atoms: C_1  and  C_2
REMARK    2  A    between atoms: C_2  and  C_3
REMARK    3  A    between atoms: C_8  and  C_9
REMARK    4  A    between atoms: C_9  and  C_10
REMARK    5  A    between atoms: N_12  and  C_13
REMARK    6  A    between atoms: C_16  and  C_17
REMARK    7  A    between atoms: C_17  and  C_18
REMARK                            x       y       z     vdW  Elec       q    Type
REMARK                         _______ _______ _______ _____ _____    ______ ____
ROOT
ATOM      1  C   UNL     1       2.498   7.264  18.448  0.00  0.00    +0.000 A 
ATOM      2  C   UNL     1       2.374   8.355  17.589  0.00  0.00    +0.000 A 
ATOM      3  C   UNL     1       1.754   9.542  18.001  0.00  0.00    +0.000 A 
ATOM      4  C   UNL     1       1.242   9.674  19.296  0.00  0.00    +0.000 A 
ATOM      5  C   UNL     1       1.362   8.584  20.165  0.00  0.00    +0.000 A 
ATOM      6  C   UNL     1       1.984   7.393  19.746  0.00  0.00    +0.000 A 
ENDROOT
BRANCH   1   9
ATOM      7  C   UNL     1       4.102   5.357  18.776  0.00  0.00    +0.000 C 
ATOM      8  O   UNL     1       4.587   5.704  19.854  0.00  0.00    +0.000 OA
ATOM      9  N   UNL     1       3.105   6.030  18.079  0.00  0.00    +0.000 N 
ATOM     10  H   UNL     1       2.765   5.603  17.232  0.00  0.00    +0.000 HD
BRANCH   7  11
ATOM     11  C   UNL     1       4.628   4.100  18.081  0.00  0.00    +0.000 C 
BRANCH  11  17
ATOM     12  C   UNL     1       6.813   4.767  16.873  0.00  0.00    +0.000 A 
ATOM     13  C   UNL     1       7.494   4.986  15.657  0.00  0.00    +0.000 A 
ATOM     14  C   UNL     1       6.878   4.770  14.427  0.00  0.00    +0.000 A 
ATOM     15  C   UNL     1       5.564   4.327  14.391  0.00  0.00    +0.000 A 
ATOM     16  C   UNL     1       4.865   4.128  15.583  0.00  0.00    +0.000 A 
ATOM     17  C   UNL     1       5.459   4.369  16.839  0.00  0.00    +0.000 A 
BRANCH  12  19
ATOM     18  C   UNL     1       7.812   6.447  18.461  0.00  0.00    +0.000 C 
ATOM     19  C   UNL     1       7.608   4.976  18.142  0.00  0.00    +0.000 C 
ENDBRANCH  12  19
ENDBRANCH  11  17
ENDBRANCH   7  11
ENDBRANCH   1   9
BRANCH   4  20
ATOM     20  C   UNL     1       0.620  10.982  19.738  0.00  0.00    +0.000 C 
BRANCH  20  21
ATOM     21  C   UNL     1      -0.801  11.274  19.263  0.00  0.00    +0.000 C 
ATOM     22  N   UNL     1      -1.460  10.190  18.577  0.00  0.00    +0.000 N 
ATOM     23  C   UNL     1      -2.002  10.602  17.382  0.00  0.00    +0.000 C 
ATOM     24  O   UNL     1      -2.695   9.912  16.656  0.00  0.00    +0.000 OA
ATOM     25  N   UNL     1      -1.651  11.893  17.171  0.00  0.00    +0.000 N 
ATOM     26  C   UNL     1      -0.914  12.375  18.209  0.00  0.00    +0.000 C 
ATOM     27  O   UNL     1      -0.476  13.510  18.302  0.00  0.00    +0.000 OA
ATOM     28  H   UNL     1      -1.705   9.291  18.971  0.00  0.00    +0.000 HD
ATOM     29  H   UNL     1      -1.911  12.421  16.355  0.00  0.00    +0.000 HD
ENDBRANCH  20  21
ENDBRANCH   4  20
TORSDOF 6
ENDMDL
MODEL 5
REMARK VINA RESULT:      -8.1      0.637      2.112
REMARK  Name = 
REMARK  7 active torsions:
REMARK  status: ('A' for Active; 'I' for Inactive)
REMARK    1  A    between atoms: C_1  and  C_2
REMARK    2  A    between atoms: C_2  and  C_3
REMARK    3  A    between atoms: C_8  and  C_9
REMARK    4  A    between atoms: C_9  and  C_10
REMARK    5  A    between atoms: N_12  and  C_13
REMARK    6  A    between atoms: C_16  and  C_17
REMARK    7  A    between atoms: C_17  and  C_18
REMARK                            x       y       z     vdW  Elec       q    Type
REMARK                         _______ _______ _______ _____ _____    ______ ____
ROOT
ATOM      1  C   UNL     1       2.288   7.701  18.571  0.00  0.00    +0.000 A 
ATOM      2  C   UNL     1       1.811   7.759  19.881  0.00  0.00    +0.000 A 
ATOM      3  C   UNL     1       1.173   8.904  20.375  0.00  0.00    +0.000 A 
ATOM      4  C   UNL     1       0.987  10.029  19.567  0.00  0.00    +0.000 A 
ATOM      5  C   UNL     1       1.461   9.981  18.251  0.00  0.00    +0.000 A 
ATOM      6  C   UNL     1       2.104   8.829  17.759  0.00  0.00    +0.000 A 
ENDROOT
BRANCH   1   9
ATOM      7  C   UNL     1       2.678   5.235  18.284  0.00  0.00    +0.000 C 
ATOM      8  O   UNL     1       1.771   4.817  19.007  0.00  0.00    +0.000 OA
ATOM      9  N   UNL     1       2.956   6.571  18.020  0.00  0.00    +0.000 N 
ATOM     10  H   UNL     1       3.698   6.768  17.368  0.00  0.00    +0.000 HD
BRANCH   7  11
ATOM     11  C   UNL     1       3.631   4.242  17.619  0.00  0.00    +0.000 C 
BRANCH  11  17
ATOM     12  C   UNL     1       6.085   4.409  16.825  0.00  0.00    +0.000 A 
ATOM     13  C   UNL     1       7.427   4.723  17.128  0.00  0.00    +0.000 A 
ATOM     14  C   UNL     1       7.796   5.210  18.379  0.00  0.00    +0.000 A 
ATOM     15  C   UNL     1       6.826   5.396  19.353  0.00  0.00    +0.000 A 
ATOM     16  C   UNL     1       5.497   5.068  19.080  0.00  0.00    +0.000 A 
ATOM     17  C   UNL     1       5.104   4.545  17.830  0.00  0.00    +0.000 A 
BRANCH  12  19
ATOM     18  C   UNL     1       6.743   4.572  14.399  0.00  0.00    +0.000 C 
ATOM     19  C   UNL     1       5.799   3.948  15.413  0.00  0.00    +0.000 C 
ENDBRANCH  12  19
ENDBRANCH  11  17
ENDBRANCH   7  11
ENDBRANCH   1   9
BRANCH   4  20
ATOM     20  C   UNL     1       0.250  11.239  20.104  0.00  0.00    +0.000 C 
BRANCH  20  21
ATOM     21  C   UNL     1      -1.072  11.605  19.434  0.00  0.00    +0.000 C 
ATOM     22  N   UNL     1      -1.728  10.531  18.729  0.00  0.00    +0.000 N 
ATOM     23  C   UNL     1      -2.080  10.904  17.453  0.00  0.00    +0.000 C 
ATOM     24  O   UNL     1      -2.732  10.223  16.683  0.00  0.00    +0.000 OA
ATOM     25  N   UNL     1      -1.600  12.148  17.218  0.00  0.00    +0.000 N 
ATOM     26  C   UNL     1      -0.960  12.640  18.316  0.00  0.00    +0.000 C 
ATOM     27  O   UNL     1      -0.445  13.743  18.402  0.00  0.00    +0.000 OA
ATOM     28  H   UNL     1      -2.094   9.681  19.137  0.00  0.00    +0.000 HD
ATOM     29  H   UNL     1      -1.711  12.640  16.348  0.00  0.00    +0.000 HD
ENDBRANCH  20  21
ENDBRANCH   4  20
TORSDOF 6
ENDMDL
MODEL 6
REMARK VINA RESULT:      -8.1      1.020      1.047
REMARK  Name = 
REMARK  7 active torsions:
REMARK  status: ('A' for Active; 'I' for Inactive)
REMARK    1  A    between atoms: C_1  and  C_2
REMARK    2  A    between atoms: C_2  and  C_3
REMARK    3  A    between atoms: C_8  and  C_9
REMARK    4  A    between atoms: C_9  and  C_10
REMARK    5  A    between atoms: N_12  and  C_13
REMARK    6  A    between atoms: C_16  and  C_17
REMARK    7  A    between atoms: C_17  and  C_18
REMARK                            x       y       z     vdW  Elec       q    Type
REMARK                         _______ _______ _______ _____ _____    ______ ____
ROOT
ATOM      1  C   UNL     1       2.797   7.378  18.502  0.00  0.00    +0.000 A 
ATOM      2  C   UNL     1       2.583   8.422  17.602  0.00  0.00    +0.000 A 
ATOM      3  C   UNL     1       1.750   9.502  17.922  0.00  0.00    +0.000 A 
ATOM      4  C   UNL     1       1.108   9.573  19.162  0.00  0.00    +0.000 A 
ATOM      5  C   UNL     1       1.317   8.530  20.072  0.00  0.00    +0.000 A 
ATOM      6  C   UNL     1       2.152   7.446  19.746  0.00  0.00    +0.000 A 
ENDROOT
BRANCH   1   9
ATOM      7  C   UNL     1       3.189   4.952  17.975  0.00  0.00    +0.000 C 
ATOM      8  O   UNL     1       2.015   4.584  17.905  0.00  0.00    +0.000 OA
ATOM      9  N   UNL     1       3.620   6.249  18.226  0.00  0.00    +0.000 N 
ATOM     10  H   UNL     1       4.613   6.418  18.204  0.00  0.00    +0.000 HD
BRANCH   7  11
ATOM     11  C   UNL     1       4.312   3.928  17.810  0.00  0.00    +0.000 C 
BRANCH  11  17
ATOM     12  C   UNL     1       6.603   4.763  16.951  0.00  0.00    +0.000 A 
ATOM     13  C   UNL     1       7.449   5.029  15.854  0.00  0.00    +0.000 A 
ATOM     14  C   UNL     1       7.056   4.757  14.547  0.00  0.00    +0.000 A 
ATOM     15  C   UNL     1       5.803   4.209  14.311  0.00  0.00    +0.000 A 
ATOM     16  C   UNL     1       4.942   3.961  15.381  0.00  0.00    +0.000 A 
ATOM     17  C   UNL     1       5.308   4.256  16.711  0.00  0.00    +0.000 A 
BRANCH  12  19
ATOM     18  C   UNL     1       7.711   6.456  18.451  0.00  0.00    +0.000 C 
ATOM     19  C   UNL     1       7.166   5.042  18.326  0.00  0.00    +0.000 C 
ENDBRANCH  12  19
ENDBRANCH  11  17
ENDBRANCH   7  11
ENDBRANCH   1   9
BRANCH   4  20
ATOM     20  C   UNL     1       0.252  10.773  19.507  0.00  0.00    +0.000 C 
BRANCH  20  21
ATOM     21  C   UNL     1      -1.250  10.653  19.258  0.00  0.00    +0.000 C 
ATOM     22  N   UNL     1      -1.635  10.427  17.886  0.00  0.00    +0.000 N 
ATOM     23  C   UNL     1      -2.610  11.310  17.483  0.00  0.00    +0.000 C 
ATOM     24  O   UNL     1      -3.180  11.274  16.408  0.00  0.00    +0.000 OA
ATOM     25  N   UNL     1      -2.832  12.195  18.483  0.00  0.00    +0.000 N 
ATOM     26  C   UNL     1      -2.056  11.913  19.567  0.00  0.00    +0.000 C 
ATOM     27  O   UNL     1      -2.057  12.530  20.620  0.00  0.00    +0.000 OA
ATOM     28  H   UNL     1      -1.409   9.617  17.325  0.00  0.00    +0.000 HD
ATOM     29  H   UNL     1      -3.491  12.954  18.428  0.00  0.00    +0.000 HD
ENDBRANCH  20  21
ENDBRANCH   4  20
TORSDOF 6
ENDMDL
MODEL 7
REMARK VINA RESULT:      -8.0      2.853      8.971
REMARK  Name = 
REMARK  7 active torsions:
REMARK  status: ('A' for Active; 'I' for Inactive)
REMARK    1  A    between atoms: C_1  and  C_2
REMARK    2  A    between atoms: C_2  and  C_3
REMARK    3  A    between atoms: C_8  and  C_9
REMARK    4  A    between atoms: C_9  and  C_10
REMARK    5  A    between atoms: N_12  and  C_13
REMARK    6  A    between atoms: C_16  and  C_17
REMARK    7  A    between atoms: C_17  and  C_18
REMARK                            x       y       z     vdW  Elec       q    Type
REMARK                         _______ _______ _______ _____ _____    ______ ____
ROOT
ATOM      1  C   UNL     1       1.953   7.039  20.365  0.00  0.00    +0.000 A 
ATOM      2  C   UNL     1       1.782   5.683  20.649  0.00  0.00    +0.000 A 
ATOM      3  C   UNL     1       2.062   4.697  19.694  0.00  0.00    +0.000 A 
ATOM      4  C   UNL     1       2.531   5.039  18.422  0.00  0.00    +0.000 A 
ATOM      5  C   UNL     1       2.706   6.397  18.128  0.00  0.00    +0.000 A 
ATOM      6  C   UNL     1       2.421   7.384  19.090  0.00  0.00    +0.000 A 
ENDROOT
BRANCH   1   9
ATOM      7  C   UNL     1       0.417   8.461  21.755  0.00  0.00    +0.000 C 
ATOM      8  O   UNL     1      -0.651   7.916  21.471  0.00  0.00    +0.000 OA
ATOM      9  N   UNL     1       1.671   8.084  21.290  0.00  0.00    +0.000 N 
ATOM     10  H   UNL     1       2.467   8.589  21.646  0.00  0.00    +0.000 HD
BRANCH   7  11
ATOM     11  C   UNL     1       0.419   9.687  22.669  0.00  0.00    +0.000 C 
BRANCH  11  17
ATOM     12  C   UNL     1      -0.617  11.367  21.000  0.00  0.00    +0.000 A 
ATOM     13  C   UNL     1      -1.587  12.359  20.741  0.00  0.00    +0.000 A 
ATOM     14  C   UNL     1      -2.531  12.722  21.697  0.00  0.00    +0.000 A 
ATOM     15  C   UNL     1      -2.525  12.096  22.935  0.00  0.00    +0.000 A 
ATOM     16  C   UNL     1      -1.559  11.130  23.219  0.00  0.00    +0.000 A 
ATOM     17  C   UNL     1      -0.574  10.767  22.277  0.00  0.00    +0.000 A 
BRANCH  12  19
ATOM     18  C   UNL     1      -0.427  10.438  18.667  0.00  0.00    +0.000 C 
ATOM     19  C   UNL     1       0.314  11.015  19.862  0.00  0.00    +0.000 C 
ENDBRANCH  12  19
ENDBRANCH  11  17
ENDBRANCH   7  11
ENDBRANCH   1   9
BRANCH   4  20
ATOM     20  C   UNL     1       2.875   3.956  17.421  0.00  0.00    +0.000 C 
BRANCH  20  21
ATOM     21  C   UNL     1       4.342   3.547  17.314  0.00  0.00    +0.000 C 
ATOM     22  N   UNL     1       5.143   3.799  18.487  0.00  0.00    +0.000 N 
ATOM     23  C   UNL     1       6.302   4.472  18.173  0.00  0.00    +0.000 C 
ATOM     24  O   UNL     1       7.198   4.719  18.959  0.00  0.00    +0.000 OA
ATOM     25  N   UNL     1       6.277   4.783  16.855  0.00  0.00    +0.000 N 
ATOM     26  C   UNL     1       5.146   4.309  16.262  0.00  0.00    +0.000 C 
ATOM     27  O   UNL     1       4.863   4.425  15.080  0.00  0.00    +0.000 OA
ATOM     28  H   UNL     1       5.023   3.376  19.397  0.00  0.00    +0.000 HD
ATOM     29  H   UNL     1       7.005   5.292  16.383  0.00  0.00    +0.000 HD
ENDBRANCH  20  21
ENDBRANCH   4  20
TORSDOF 6
ENDMDL
MODEL 8
REMARK VINA RESULT:      -8.0      1.962      2.587
REMARK  Name = 
REMARK  7 active torsions:
REMARK  status: ('A' for Active; 'I' for Inactive)
REMARK    1  A    between atoms: C_1  and  C_2
REMARK    2  A    between atoms: C_2  and  C_3
REMARK    3  A    between atoms: C_8  and  C_9
REMARK    4  A    between atoms: C_9  and  C_10
REMARK    5  A    between atoms: N_12  and  C_13
REMARK    6  A    between atoms: C_16  and  C_17
REMARK    7  A    between atoms: C_17  and  C_18
REMARK                            x       y       z     vdW  Elec       q    Type
REMARK                         _______ _______ _______ _____ _____    ______ ____
ROOT
ATOM      1  C   UNL     1       2.587   7.517  18.816  0.00  0.00    +0.000 A 
ATOM      2  C   UNL     1       1.944   7.758  20.030  0.00  0.00    +0.000 A 
ATOM      3  C   UNL     1       1.001   8.786  20.165  0.00  0.00    +0.000 A 
ATOM      4  C   UNL     1       0.666   9.601  19.080  0.00  0.00    +0.000 A 
ATOM      5  C   UNL     1       1.305   9.366  17.857  0.00  0.00    +0.000 A 
ATOM      6  C   UNL     1       2.254   8.335  17.727  0.00  0.00    +0.000 A 
ENDROOT
BRANCH   1   9
ATOM      7  C   UNL     1       3.318   5.145  18.419  0.00  0.00    +0.000 C 
ATOM      8  O   UNL     1       2.207   4.621  18.323  0.00  0.00    +0.000 OA
ATOM      9  N   UNL     1       3.563   6.498  18.625  0.00  0.00    +0.000 N 
ATOM     10  H   UNL     1       4.525   6.797  18.632  0.00  0.00    +0.000 HD
BRANCH   7  11
ATOM     11  C   UNL     1       4.573   4.275  18.346  0.00  0.00    +0.000 C 
BRANCH  11  17
ATOM     12  C   UNL     1       6.754   4.832  17.076  0.00  0.00    +0.000 A 
ATOM     13  C   UNL     1       7.423   4.969  15.841  0.00  0.00    +0.000 A 
ATOM     14  C   UNL     1       6.786   4.696  14.633  0.00  0.00    +0.000 A 
ATOM     15  C   UNL     1       5.464   4.276  14.638  0.00  0.00    +0.000 A 
ATOM     16  C   UNL     1       4.778   4.158  15.847  0.00  0.00    +0.000 A 
ATOM     17  C   UNL     1       5.393   4.457  17.081  0.00  0.00    +0.000 A 
BRANCH  12  19
ATOM     18  C   UNL     1       7.842   6.577  18.529  0.00  0.00    +0.000 C 
ATOM     19  C   UNL     1       7.569   5.097  18.321  0.00  0.00    +0.000 C 
ENDBRANCH  12  19
ENDBRANCH  11  17
ENDBRANCH   7  11
ENDBRANCH   1   9
BRANCH   4  20
ATOM     20  C   UNL     1      -0.392  10.674  19.233  0.00  0.00    +0.000 C 
BRANCH  20  21
ATOM     21  C   UNL     1       0.092  12.115  19.379  0.00  0.00    +0.000 C 
ATOM     22  N   UNL     1       0.794  12.651  18.240  0.00  0.00    +0.000 N 
ATOM     23  C   UNL     1       1.990  13.225  18.608  0.00  0.00    +0.000 C 
ATOM     24  O   UNL     1       2.728  13.837  17.858  0.00  0.00    +0.000 OA
ATOM     25  N   UNL     1       2.183  13.011  19.931  0.00  0.00    +0.000 N 
ATOM     26  C   UNL     1       1.133  12.335  20.475  0.00  0.00    +0.000 C 
ATOM     27  O   UNL     1       1.024  12.019  21.649  0.00  0.00    +0.000 OA
ATOM     28  H   UNL     1       0.413  12.804  17.316  0.00  0.00    +0.000 HD
ATOM     29  H   UNL     1       2.995  13.319  20.438  0.00  0.00    +0.000 HD
ENDBRANCH  20  21
ENDBRANCH   4  20
TORSDOF 6
ENDMDL
MODEL 9
REMARK VINA RESULT:      -8.0      2.843      9.597
REMARK  Name = 
REMARK  7 active torsions:
REMARK  status: ('A' for Active; 'I' for Inactive)
REMARK    1  A    between atoms: C_1  and  C_2
REMARK    2  A    between atoms: C_2  and  C_3
REMARK    3  A    between atoms: C_8  and  C_9
REMARK    4  A    between atoms: C_9  and  C_10
REMARK    5  A    between atoms: N_12  and  C_13
REMARK    6  A    between atoms: C_16  and  C_17
REMARK    7  A    between atoms: C_17  and  C_18
REMARK                            x       y       z     vdW  Elec       q    Type
REMARK                         _______ _______ _______ _____ _____    ______ ____
ROOT
ATOM      1  C   UNL     1       1.287   9.348  19.434  0.00  0.00    +0.000 A 
ATOM      2  C   UNL     1       1.464   8.325  20.366  0.00  0.00    +0.000 A 
ATOM      3  C   UNL     1       2.103   7.126  20.021  0.00  0.00    +0.000 A 
ATOM      4  C   UNL     1       2.591   6.918  18.728  0.00  0.00    +0.000 A 
ATOM      5  C   UNL     1       2.419   7.939  17.786  0.00  0.00    +0.000 A 
ATOM      6  C   UNL     1       1.775   9.140  18.136  0.00  0.00    +0.000 A 
ENDROOT
BRANCH   1   9
ATOM      7  C   UNL     1      -0.686  10.903  19.436  0.00  0.00    +0.000 C 
ATOM      8  O   UNL     1      -1.517  10.152  18.923  0.00  0.00    +0.000 OA
ATOM      9  N   UNL     1       0.634  10.579  19.724  0.00  0.00    +0.000 N 
ATOM     10  H   UNL     1       1.190  11.278  20.192  0.00  0.00    +0.000 HD
BRANCH   7  11
ATOM     11  C   UNL     1      -1.079  12.341  19.778  0.00  0.00    +0.000 C 
BRANCH  11  17
ATOM     12  C   UNL     1      -2.320  12.329  22.045  0.00  0.00    +0.000 A 
ATOM     13  C   UNL     1      -3.535  12.470  22.750  0.00  0.00    +0.000 A 
ATOM     14  C   UNL     1      -4.722  12.789  22.097  0.00  0.00    +0.000 A 
ATOM     15  C   UNL     1      -4.718  12.978  20.723  0.00  0.00    +0.000 A 
ATOM     16  C   UNL     1      -3.532  12.819  20.005  0.00  0.00    +0.000 A 
ATOM     17  C   UNL     1      -2.322  12.466  20.640  0.00  0.00    +0.000 A 
BRANCH  12  19
ATOM     18  C   UNL     1      -0.857  10.555  23.070  0.00  0.00    +0.000 C 
ATOM     19  C   UNL     1      -1.087  12.044  22.871  0.00  0.00    +0.000 C 
ENDBRANCH  12  19
ENDBRANCH  11  17
ENDBRANCH   7  11
ENDBRANCH   1   9
BRANCH   4  20
ATOM     20  C   UNL     1       3.323   5.636  18.388  0.00  0.00    +0.000 C 
BRANCH  20  21
ATOM     21  C   UNL     1       4.819   5.587  18.687  0.00  0.00    +0.000 C 
ATOM     22  N   UNL     1       5.676   6.096  17.644  0.00  0.00    +0.000 N 
ATOM     23  C   UNL     1       6.683   5.209  17.339  0.00  0.00    +0.000 C 
ATOM     24  O   UNL     1       7.598   5.433  16.568  0.00  0.00    +0.000 OA
ATOM     25  N   UNL     1       6.490   4.074  18.051  0.00  0.00    +0.000 N 
ATOM     26  C   UNL     1       5.396   4.182  18.856  0.00  0.00    +0.000 C 
ATOM     27  O   UNL     1       4.991   3.323  19.623  0.00  0.00    +0.000 OA
ATOM     28  H   UNL     1       5.707   7.048  17.304  0.00  0.00    +0.000 HD
ATOM     29  H   UNL     1       7.084   3.264  17.993  0.00  0.00    +0.000 HD
ENDBRANCH  20  21
ENDBRANCH   4  20
TORSDOF 6
ENDMDL
