MODEL 1
REMARK VINA RESULT:      -7.8      0.000      0.000
REMARK  Name = 
REMARK  10 active torsions:
REMARK  status: ('A' for Active; 'I' for Inactive)
REMARK    1  A    between atoms: C_1  and  C_2
REMARK    2  A    between atoms: C_2  and  C_3
REMARK    3  A    between atoms: C_2  and  C_4
REMARK    4  A    between atoms: C_7  and  C_8
REMARK    5  A    between atoms: C_8  and  O_9
REMARK    6  A    between atoms: C_8  and  C_10
REMARK    7  A    between atoms: C_13  and  C_14
REMARK    8  A    between atoms: C_14  and  C_15
REMARK    9  A    between atoms: C_14  and  C_16
REMARK   10  A    between atoms: N_17  and  C_18
REMARK                            x       y       z     vdW  Elec       q    Type
REMARK                         _______ _______ _______ _____ _____    ______ ____
ROOT
ATOM      1  C   UNL     1       5.815   4.667  18.705  0.00  0.00    +0.000 C 
ENDROOT
BRANCH   1   5
ATOM      2  C   UNL     1       6.243   4.132  14.408  0.00  0.00    +0.000 A 
ATOM      3  C   UNL     1       7.308   4.613  15.184  0.00  0.00    +0.000 A 
ATOM      4  C   UNL     1       7.153   4.833  16.559  0.00  0.00    +0.000 A 
ATOM      5  C   UNL     1       5.927   4.580  17.191  0.00  0.00    +0.000 A 
ATOM      6  C   UNL     1       4.846   4.168  16.397  0.00  0.00    +0.000 A 
ATOM      7  C   UNL     1       5.006   3.931  15.030  0.00  0.00    +0.000 A 
BRANCH   2   9
ATOM      8  C   UNL     1       5.151   3.476  12.266  0.00  0.00    +0.000 C 
ATOM      9  C   UNL     1       6.491   3.755  12.956  0.00  0.00    +0.000 C 
ATOM     10  C   UNL     1       7.286   4.794  12.161  0.00  0.00    +0.000 C 
ENDBRANCH   2   9
ENDBRANCH   1   5
BRANCH   1  11
ATOM     11  C   UNL     1       4.412   4.830  19.210  0.00  0.00    +0.000 A 
ATOM     12  C   UNL     1       3.602   5.944  19.320  0.00  0.00    +0.000 A 
ATOM     13  N   UNL     1       2.353   5.612  19.751  0.00  0.00    +0.000 NA
ATOM     14  C   UNL     1       2.349   4.302  19.890  0.00  0.00    +0.000 A 
ATOM     15  N   UNL     1       3.611   3.793  19.655  0.00  0.00    +0.000 N 
ATOM     16  C   UNL     1       4.054   2.431  19.845  0.00  0.00    +0.000 C 
BRANCH  14  17
ATOM     17  C   UNL     1       1.124   3.495  20.229  0.00  0.00    +0.000 C 
ATOM     18  C   UNL     1       0.750   2.566  19.077  0.00  0.00    +0.000 C 
ATOM     19  C   UNL     1       1.361   2.678  21.506  0.00  0.00    +0.000 C 
ENDBRANCH  14  17
ENDBRANCH   1  11
BRANCH   1  20
ATOM     20  O   UNL     1       6.564   5.759  19.225  0.00  0.00    +0.000 OA
ATOM     21  H   UNL     1       6.251   5.926  20.128  0.00  0.00    +0.000 HD
ENDBRANCH   1  20
TORSDOF 5
ENDMDL
MODEL 2
REMARK VINA RESULT:      -7.6      0.373      1.373
REMARK  Name = 
REMARK  10 active torsions:
REMARK  status: ('A' for Active; 'I' for Inactive)
REMARK    1  A    between atoms: C_1  and  C_2
REMARK    2  A    between atoms: C_2  and  C_3
REMARK    3  A    between atoms: C_2  and  C_4
REMARK    4  A    between atoms: C_7  and  C_8
REMARK    5  A    between atoms: C_8  and  O_9
REMARK    6  A    between atoms: C_8  and  C_10
REMARK    7  A    between atoms: C_13  and  C_14
REMARK    8  A    between atoms: C_14  and  C_15
REMARK    9  A    between atoms: C_14  and  C_16
REMARK   10  A    between atoms: N_17  and  C_18
REMARK                            x       y       z     vdW  Elec       q    Type
REMARK                         _______ _______ _______ _____ _____    ______ ____
ROOT
ATOM      1  C   UNL     1       5.881   4.576  18.885  0.00  0.00    +0.000 C 
ENDROOT
BRANCH   1   5
ATOM      2  C   UNL     1       6.343   4.417  14.561  0.00  0.00    +0.000 A 
ATOM      3  C   UNL     1       5.201   3.893  15.184  0.00  0.00    +0.000 A 
ATOM      4  C   UNL     1       5.077   3.899  16.579  0.00  0.00    +0.000 A 
ATOM      5  C   UNL     1       6.094   4.427  17.386  0.00  0.00    +0.000 A 
ATOM      6  C   UNL     1       7.265   4.884  16.762  0.00  0.00    +0.000 A 
ATOM      7  C   UNL     1       7.380   4.896  15.370  0.00  0.00    +0.000 A 
BRANCH   2   9
ATOM      8  C   UNL     1       7.745   5.069  12.606  0.00  0.00    +0.000 C 
ATOM      9  C   UNL     1       6.376   4.540  13.046  0.00  0.00    +0.000 C 
ATOM     10  C   UNL     1       6.049   3.243  12.301  0.00  0.00    +0.000 C 
ENDBRANCH   2   9
ENDBRANCH   1   5
BRANCH   1  11
ATOM     11  C   UNL     1       4.449   4.769  19.287  0.00  0.00    +0.000 A 
ATOM     12  C   UNL     1       3.634   5.885  19.267  0.00  0.00    +0.000 A 
ATOM     13  N   UNL     1       2.360   5.581  19.640  0.00  0.00    +0.000 NA
ATOM     14  C   UNL     1       2.346   4.283  19.869  0.00  0.00    +0.000 A 
ATOM     15  N   UNL     1       3.620   3.763  19.751  0.00  0.00    +0.000 N 
ATOM     16  C   UNL     1       4.048   2.419  20.063  0.00  0.00    +0.000 C 
BRANCH  14  17
ATOM     17  C   UNL     1       1.101   3.499  20.186  0.00  0.00    +0.000 C 
ATOM     18  C   UNL     1       0.778   2.517  19.061  0.00  0.00    +0.000 C 
ATOM     19  C   UNL     1       1.270   2.741  21.509  0.00  0.00    +0.000 C 
ENDBRANCH  14  17
ENDBRANCH   1  11
BRANCH   1  20
ATOM     20  O   UNL     1       6.604   5.683  19.410  0.00  0.00    +0.000 OA
ATOM     21  H   UNL     1       5.956   6.338  19.714  0.00  0.00    +0.000 HD
ENDBRANCH   1  20
TORSDOF 5
ENDMDL
MODEL 3
REMARK VINA RESULT:      -7.5      1.898      6.650
REMARK  Name = 
REMARK  10 active torsions:
REMARK  status: ('A' for Active; 'I' for Inactive)
REMARK    1  A    between atoms: C_1  and  C_2
REMARK    2  A    between atoms: C_2  and  C_3
REMARK    3  A    between atoms: C_2  and  C_4
REMARK    4  A    between atoms: C_7  and  C_8
REMARK    5  A    between atoms: C_8  and  O_9
REMARK    6  A    between atoms: C_8  and  C_10
REMARK    7  A    between atoms: C_13  and  C_14
REMARK    8  A    between atoms: C_14  and  C_15
REMARK    9  A    between atoms: C_14  and  C_16
REMARK   10  A    between atoms: N_17  and  C_18
REMARK                            x       y       z     vdW  Elec       q    Type
REMARK                         _______ _______ _______ _____ _____    ______ ____
ROOT
ATOM      1  C   UNL     1       6.048   5.785  18.898  0.00  0.00    +0.000 C 
ENDROOT
BRANCH   1   5
ATOM      2  C   UNL     1       2.271   3.970  20.071  0.00  0.00    +0.000 A 
ATOM      3  C   UNL     1       3.383   3.177  19.752  0.00  0.00    +0.000 A 
ATOM      4  C   UNL     1       4.583   3.761  19.326  0.00  0.00    +0.000 A 
ATOM      5  C   UNL     1       4.698   5.153  19.205  0.00  0.00    +0.000 A 
ATOM      6  C   UNL     1       3.561   5.936  19.456  0.00  0.00    +0.000 A 
ATOM      7  C   UNL     1       2.371   5.355  19.900  0.00  0.00    +0.000 A 
BRANCH   2   9
ATOM      8  C   UNL     1       0.325   2.482  19.614  0.00  0.00    +0.000 C 
ATOM      9  C   UNL     1       1.041   3.316  20.681  0.00  0.00    +0.000 C 
ATOM     10  C   UNL     1       1.330   2.457  21.915  0.00  0.00    +0.000 C 
ENDBRANCH   2   9
ENDBRANCH   1   5
BRANCH   1  11
ATOM     11  C   UNL     1       6.644   5.357  17.590  0.00  0.00    +0.000 A 
ATOM     12  C   UNL     1       7.697   4.513  17.295  0.00  0.00    +0.000 A 
ATOM     13  N   UNL     1       7.836   4.337  15.952  0.00  0.00    +0.000 NA
ATOM     14  C   UNL     1       6.870   5.034  15.389  0.00  0.00    +0.000 A 
ATOM     15  N   UNL     1       6.172   5.743  16.347  0.00  0.00    +0.000 N 
ATOM     16  C   UNL     1       5.141   6.730  16.126  0.00  0.00    +0.000 C 
BRANCH  14  17
ATOM     17  C   UNL     1       6.572   5.021  13.914  0.00  0.00    +0.000 C 
ATOM     18  C   UNL     1       7.844   5.258  13.102  0.00  0.00    +0.000 C 
ATOM     19  C   UNL     1       5.936   3.684  13.511  0.00  0.00    +0.000 C 
ENDBRANCH  14  17
ENDBRANCH   1  11
BRANCH   1  20
ATOM     20  O   UNL     1       7.009   5.481  19.902  0.00  0.00    +0.000 OA
ATOM     21  H   UNL     1       7.009   6.213  20.539  0.00  0.00    +0.000 HD
ENDBRANCH   1  20
TORSDOF 5
ENDMDL
MODEL 4
REMARK VINA RESULT:      -7.4      1.682      2.700
REMARK  Name = 
REMARK  10 active torsions:
REMARK  status: ('A' for Active; 'I' for Inactive)
REMARK    1  A    between atoms: C_1  and  C_2
REMARK    2  A    between atoms: C_2  and  C_3
REMARK    3  A    between atoms: C_2  and  C_4
REMARK    4  A    between atoms: C_7  and  C_8
REMARK    5  A    between atoms: C_8  and  O_9
REMARK    6  A    between atoms: C_8  and  C_10
REMARK    7  A    between atoms: C_13  and  C_14
REMARK    8  A    between atoms: C_14  and  C_15
REMARK    9  A    between atoms: C_14  and  C_16
REMARK   10  A    between atoms: N_17  and  C_18
REMARK                            x       y       z     vdW  Elec       q    Type
REMARK                         _______ _______ _______ _____ _____    ______ ____
ROOT
ATOM      1  C   UNL     1       6.771   5.657  16.715  0.00  0.00    +0.000 C 
ENDROOT
BRANCH   1   5
ATOM      2  C   UNL     1       5.995   3.688  12.912  0.00  0.00    +0.000 A 
ATOM      3  C   UNL     1       5.184   3.442  14.030  0.00  0.00    +0.000 A 
ATOM      4  C   UNL     1       5.465   4.037  15.267  0.00  0.00    +0.000 A 
ATOM      5  C   UNL     1       6.567   4.891  15.416  0.00  0.00    +0.000 A 
ATOM      6  C   UNL     1       7.415   5.076  14.313  0.00  0.00    +0.000 A 
ATOM      7  C   UNL     1       7.124   4.498  13.076  0.00  0.00    +0.000 A 
BRANCH   2   9
ATOM      8  C   UNL     1       6.051   1.708  11.399  0.00  0.00    +0.000 C 
ATOM      9  C   UNL     1       5.570   3.156  11.553  0.00  0.00    +0.000 C 
ATOM     10  C   UNL     1       4.065   3.241  11.283  0.00  0.00    +0.000 C 
ENDBRANCH   2   9
ENDBRANCH   1   5
BRANCH   1  11
ATOM     11  C   UNL     1       5.497   6.039  17.409  0.00  0.00    +0.000 A 
ATOM     12  C   UNL     1       4.608   7.074  17.188  0.00  0.00    +0.000 A 
ATOM     13  N   UNL     1       3.524   6.985  18.009  0.00  0.00    +0.000 NA
ATOM     14  C   UNL     1       3.699   5.895  18.729  0.00  0.00    +0.000 A 
ATOM     15  N   UNL     1       4.932   5.335  18.458  0.00  0.00    +0.000 N 
ATOM     16  C   UNL     1       5.555   4.223  19.137  0.00  0.00    +0.000 C 
BRANCH  14  17
ATOM     17  C   UNL     1       2.673   5.345  19.684  0.00  0.00    +0.000 C 
ATOM     18  C   UNL     1       1.877   6.475  20.334  0.00  0.00    +0.000 C 
ATOM     19  C   UNL     1       1.723   4.389  18.952  0.00  0.00    +0.000 C 
ENDBRANCH  14  17
ENDBRANCH   1  11
BRANCH   1  20
ATOM     20  O   UNL     1       7.497   6.862  16.505  0.00  0.00    +0.000 OA
ATOM     21  H   UNL     1       7.744   6.895  15.567  0.00  0.00    +0.000 HD
ENDBRANCH   1  20
TORSDOF 5
ENDMDL
MODEL 5
REMARK VINA RESULT:      -7.1      0.596      1.204
REMARK  Name = 
REMARK  10 active torsions:
REMARK  status: ('A' for Active; 'I' for Inactive)
REMARK    1  A    between atoms: C_1  and  C_2
REMARK    2  A    between atoms: C_2  and  C_3
REMARK    3  A    between atoms: C_2  and  C_4
REMARK    4  A    between atoms: C_7  and  C_8
REMARK    5  A    between atoms: C_8  and  O_9
REMARK    6  A    between atoms: C_8  and  C_10
REMARK    7  A    between atoms: C_13  and  C_14
REMARK    8  A    between atoms: C_14  and  C_15
REMARK    9  A    between atoms: C_14  and  C_16
REMARK   10  A    between atoms: N_17  and  C_18
REMARK                            x       y       z     vdW  Elec       q    Type
REMARK                         _______ _______ _______ _____ _____    ______ ____
ROOT
ATOM      1  C   UNL     1       5.817   5.141  18.275  0.00  0.00    +0.000 C 
ENDROOT
BRANCH   1   5
ATOM      2  C   UNL     1       6.316   3.906  14.132  0.00  0.00    +0.000 A 
ATOM      3  C   UNL     1       5.270   3.396  14.915  0.00  0.00    +0.000 A 
ATOM      4  C   UNL     1       5.140   3.756  16.263  0.00  0.00    +0.000 A 
ATOM      5  C   UNL     1       6.057   4.632  16.861  0.00  0.00    +0.000 A 
ATOM      6  C   UNL     1       7.141   5.081  16.093  0.00  0.00    +0.000 A 
ATOM      7  C   UNL     1       7.259   4.739  14.744  0.00  0.00    +0.000 A 
BRANCH   2   9
ATOM      8  C   UNL     1       4.899   3.632  12.100  0.00  0.00    +0.000 C 
ATOM      9  C   UNL     1       6.334   3.623  12.638  0.00  0.00    +0.000 C 
ATOM     10  C   UNL     1       7.207   4.583  11.825  0.00  0.00    +0.000 C 
ENDBRANCH   2   9
ENDBRANCH   1   5
BRANCH   1  11
ATOM     11  C   UNL     1       4.370   5.218  18.664  0.00  0.00    +0.000 A 
ATOM     12  C   UNL     1       3.433   6.223  18.514  0.00  0.00    +0.000 A 
ATOM     13  N   UNL     1       2.200   5.823  18.934  0.00  0.00    +0.000 NA
ATOM     14  C   UNL     1       2.334   4.570  19.322  0.00  0.00    +0.000 A 
ATOM     15  N   UNL     1       3.660   4.189  19.256  0.00  0.00    +0.000 N 
ATOM     16  C   UNL     1       4.237   2.951  19.727  0.00  0.00    +0.000 C 
BRANCH  14  17
ATOM     17  C   UNL     1       1.186   3.694  19.744  0.00  0.00    +0.000 C 
ATOM     18  C   UNL     1       1.023   2.515  18.787  0.00  0.00    +0.000 C 
ATOM     19  C   UNL     1       1.404   3.181  21.173  0.00  0.00    +0.000 C 
ENDBRANCH  14  17
ENDBRANCH   1  11
BRANCH   1  20
ATOM     20  O   UNL     1       6.358   6.444  18.462  0.00  0.00    +0.000 OA
ATOM     21  H   UNL     1       6.113   6.976  17.689  0.00  0.00    +0.000 HD
ENDBRANCH   1  20
TORSDOF 5
ENDMDL
MODEL 6
REMARK VINA RESULT:      -7.1      0.723      1.294
REMARK  Name = 
REMARK  10 active torsions:
REMARK  status: ('A' for Active; 'I' for Inactive)
REMARK    1  A    between atoms: C_1  and  C_2
REMARK    2  A    between atoms: C_2  and  C_3
REMARK    3  A    between atoms: C_2  and  C_4
REMARK    4  A    between atoms: C_7  and  C_8
REMARK    5  A    between atoms: C_8  and  O_9
REMARK    6  A    between atoms: C_8  and  C_10
REMARK    7  A    between atoms: C_13  and  C_14
REMARK    8  A    between atoms: C_14  and  C_15
REMARK    9  A    between atoms: C_14  and  C_16
REMARK   10  A    between atoms: N_17  and  C_18
REMARK                            x       y       z     vdW  Elec       q    Type
REMARK                         _______ _______ _______ _____ _____    ______ ____
ROOT
ATOM      1  C   UNL     1       6.126   4.450  18.330  0.00  0.00    +0.000 C 
ENDROOT
BRANCH   1   5
ATOM      2  C   UNL     1       5.910   4.285  13.987  0.00  0.00    +0.000 A 
ATOM      3  C   UNL     1       7.087   4.686  14.635  0.00  0.00    +0.000 A 
ATOM      4  C   UNL     1       7.140   4.788  16.032  0.00  0.00    +0.000 A 
ATOM      5  C   UNL     1       6.014   4.493  16.814  0.00  0.00    +0.000 A 
ATOM      6  C   UNL     1       4.820   4.162  16.156  0.00  0.00    +0.000 A 
ATOM      7  C   UNL     1       4.773   4.042  14.765  0.00  0.00    +0.000 A 
BRANCH   2   9
ATOM      8  C   UNL     1       7.205   3.254  12.123  0.00  0.00    +0.000 C 
ATOM      9  C   UNL     1       5.935   4.032  12.488  0.00  0.00    +0.000 C 
ATOM     10  C   UNL     1       4.700   3.304  11.951  0.00  0.00    +0.000 C 
ENDBRANCH   2   9
ENDBRANCH   1   5
BRANCH   1  11
ATOM     11  C   UNL     1       4.807   4.411  19.044  0.00  0.00    +0.000 A 
ATOM     12  C   UNL     1       3.960   5.421  19.459  0.00  0.00    +0.000 A 
ATOM     13  N   UNL     1       2.811   4.922  19.992  0.00  0.00    +0.000 NA
ATOM     14  C   UNL     1       2.902   3.611  19.896  0.00  0.00    +0.000 A 
ATOM     15  N   UNL     1       4.142   3.253  19.404  0.00  0.00    +0.000 N 
ATOM     16  C   UNL     1       4.684   1.919  19.288  0.00  0.00    +0.000 C 
BRANCH  14  17
ATOM     17  C   UNL     1       1.790   2.662  20.253  0.00  0.00    +0.000 C 
ATOM     18  C   UNL     1       1.370   2.843  21.710  0.00  0.00    +0.000 C 
ATOM     19  C   UNL     1       0.585   2.882  19.330  0.00  0.00    +0.000 C 
ENDBRANCH  14  17
ENDBRANCH   1  11
BRANCH   1  20
ATOM     20  O   UNL     1       6.830   5.578  18.836  0.00  0.00    +0.000 OA
ATOM     21  H   UNL     1       6.203   6.316  18.885  0.00  0.00    +0.000 HD
ENDBRANCH   1  20
TORSDOF 5
ENDMDL
MODEL 7
REMARK VINA RESULT:      -7.0      1.141      1.881
REMARK  Name = 
REMARK  10 active torsions:
REMARK  status: ('A' for Active; 'I' for Inactive)
REMARK    1  A    between atoms: C_1  and  C_2
REMARK    2  A    between atoms: C_2  and  C_3
REMARK    3  A    between atoms: C_2  and  C_4
REMARK    4  A    between atoms: C_7  and  C_8
REMARK    5  A    between atoms: C_8  and  O_9
REMARK    6  A    between atoms: C_8  and  C_10
REMARK    7  A    between atoms: C_13  and  C_14
REMARK    8  A    between atoms: C_14  and  C_15
REMARK    9  A    between atoms: C_14  and  C_16
REMARK   10  A    between atoms: N_17  and  C_18
REMARK                            x       y       z     vdW  Elec       q    Type
REMARK                         _______ _______ _______ _____ _____    ______ ____
ROOT
ATOM      1  C   UNL     1       6.089   5.316  17.624  0.00  0.00    +0.000 C 
ENDROOT
BRANCH   1   5
ATOM      2  C   UNL     1       6.171   3.953  13.492  0.00  0.00    +0.000 A 
ATOM      3  C   UNL     1       5.221   3.457  14.396  0.00  0.00    +0.000 A 
ATOM      4  C   UNL     1       5.227   3.858  15.738  0.00  0.00    +0.000 A 
ATOM      5  C   UNL     1       6.188   4.764  16.210  0.00  0.00    +0.000 A 
ATOM      6  C   UNL     1       7.179   5.201  15.318  0.00  0.00    +0.000 A 
ATOM      7  C   UNL     1       7.161   4.816  13.976  0.00  0.00    +0.000 A 
BRANCH   2   9
ATOM      8  C   UNL     1       7.002   2.485  11.657  0.00  0.00    +0.000 C 
ATOM      9  C   UNL     1       6.038   3.622  12.014  0.00  0.00    +0.000 C 
ATOM     10  C   UNL     1       4.616   3.263  11.574  0.00  0.00    +0.000 C 
ENDBRANCH   2   9
ENDBRANCH   1   5
BRANCH   1  11
ATOM     11  C   UNL     1       4.697   5.329  18.183  0.00  0.00    +0.000 A 
ATOM     12  C   UNL     1       3.681   6.260  18.089  0.00  0.00    +0.000 A 
ATOM     13  N   UNL     1       2.538   5.815  18.682  0.00  0.00    +0.000 NA
ATOM     14  C   UNL     1       2.805   4.603  19.127  0.00  0.00    +0.000 A 
ATOM     15  N   UNL     1       4.137   4.302  18.922  0.00  0.00    +0.000 N 
ATOM     16  C   UNL     1       4.853   3.139  19.394  0.00  0.00    +0.000 C 
BRANCH  14  17
ATOM     17  C   UNL     1       1.781   3.689  19.743  0.00  0.00    +0.000 C 
ATOM     18  C   UNL     1       0.774   4.483  20.573  0.00  0.00    +0.000 C 
ATOM     19  C   UNL     1       1.050   2.896  18.652  0.00  0.00    +0.000 C 
ENDBRANCH  14  17
ENDBRANCH   1  11
BRANCH   1  20
ATOM     20  O   UNL     1       6.571   6.653  17.700  0.00  0.00    +0.000 OA
ATOM     21  H   UNL     1       6.893   6.898  16.819  0.00  0.00    +0.000 HD
ENDBRANCH   1  20
TORSDOF 5
ENDMDL
MODEL 8
REMARK VINA RESULT:      -6.9      0.763      1.098
REMARK  Name = 
REMARK  10 active torsions:
REMARK  status: ('A' for Active; 'I' for Inactive)
REMARK    1  A    between atoms: C_1  and  C_2
REMARK    2  A    between atoms: C_2  and  C_3
REMARK    3  A    between atoms: C_2  and  C_4
REMARK    4  A    between atoms: C_7  and  C_8
REMARK    5  A    between atoms: C_8  and  O_9
REMARK    6  A    between atoms: C_8  and  C_10
REMARK    7  A    between atoms: C_13  and  C_14
REMARK    8  A    between atoms: C_14  and  C_15
REMARK    9  A    between atoms: C_14  and  C_16
REMARK   10  A    between atoms: N_17  and  C_18
REMARK                            x       y       z     vdW  Elec       q    Type
REMARK                         _______ _______ _______ _____ _____    ______ ____
ROOT
ATOM      1  C   UNL     1       5.558   5.562  18.095  0.00  0.00    +0.000 C 
ENDROOT
BRANCH   1   5
ATOM      2  C   UNL     1       6.092   4.156  14.012  0.00  0.00    +0.000 A 
ATOM      3  C   UNL     1       7.100   4.884  14.661  0.00  0.00    +0.000 A 
ATOM      4  C   UNL     1       6.907   5.380  15.957  0.00  0.00    +0.000 A 
ATOM      5  C   UNL     1       5.699   5.162  16.635  0.00  0.00    +0.000 A 
ATOM      6  C   UNL     1       4.669   4.495  15.953  0.00  0.00    +0.000 A 
ATOM      7  C   UNL     1       4.868   3.984  14.669  0.00  0.00    +0.000 A 
BRANCH   2   9
ATOM      8  C   UNL     1       5.077   3.194  11.949  0.00  0.00    +0.000 C 
ATOM      9  C   UNL     1       6.393   3.498  12.675  0.00  0.00    +0.000 C 
ATOM     10  C   UNL     1       7.319   4.311  11.766  0.00  0.00    +0.000 C 
ENDBRANCH   2   9
ENDBRANCH   1   5
BRANCH   1  11
ATOM     11  C   UNL     1       4.238   5.199  18.709  0.00  0.00    +0.000 A 
ATOM     12  C   UNL     1       3.077   5.927  18.882  0.00  0.00    +0.000 A 
ATOM     13  N   UNL     1       2.081   5.162  19.409  0.00  0.00    +0.000 NA
ATOM     14  C   UNL     1       2.583   3.952  19.547  0.00  0.00    +0.000 A 
ATOM     15  N   UNL     1       3.923   3.949  19.213  0.00  0.00    +0.000 N 
ATOM     16  C   UNL     1       4.860   2.861  19.367  0.00  0.00    +0.000 C 
BRANCH  14  17
ATOM     17  C   UNL     1       1.782   2.753  19.980  0.00  0.00    +0.000 C 
ATOM     18  C   UNL     1       1.277   2.928  21.411  0.00  0.00    +0.000 C 
ATOM     19  C   UNL     1       0.598   2.531  19.031  0.00  0.00    +0.000 C 
ENDBRANCH  14  17
ENDBRANCH   1  11
BRANCH   1  20
ATOM     20  O   UNL     1       5.716   6.965  18.272  0.00  0.00    +0.000 OA
ATOM     21  H   UNL     1       4.833   7.346  18.397  0.00  0.00    +0.000 HD
ENDBRANCH   1  20
TORSDOF 5
ENDMDL
MODEL 9
REMARK VINA RESULT:      -6.9      1.340      2.051
REMARK  Name = 
REMARK  10 active torsions:
REMARK  status: ('A' for Active; 'I' for Inactive)
REMARK    1  A    between atoms: C_1  and  C_2
REMARK    2  A    between atoms: C_2  and  C_3
REMARK    3  A    between atoms: C_2  and  C_4
REMARK    4  A    between atoms: C_7  and  C_8
REMARK    5  A    between atoms: C_8  and  O_9
REMARK    6  A    between atoms: C_8  and  C_10
REMARK    7  A    between atoms: C_13  and  C_14
REMARK    8  A    between atoms: C_14  and  C_15
REMARK    9  A    between atoms: C_14  and  C_16
REMARK   10  A    between atoms: N_17  and  C_18
REMARK                            x       y       z     vdW  Elec       q    Type
REMARK                         _______ _______ _______ _____ _____    ______ ____
ROOT
ATOM      1  C   UNL     1       6.314   5.522  17.308  0.00  0.00    +0.000 C 
ENDROOT
BRANCH   1   5
ATOM      2  C   UNL     1       6.109   3.847  13.297  0.00  0.00    +0.000 A 
ATOM      3  C   UNL     1       5.185   3.471  14.283  0.00  0.00    +0.000 A 
ATOM      4  C   UNL     1       5.282   3.972  15.588  0.00  0.00    +0.000 A 
ATOM      5  C   UNL     1       6.310   4.860  15.939  0.00  0.00    +0.000 A 
ATOM      6  C   UNL     1       7.272   5.175  14.967  0.00  0.00    +0.000 A 
ATOM      7  C   UNL     1       7.164   4.691  13.662  0.00  0.00    +0.000 A 
BRANCH   2   9
ATOM      8  C   UNL     1       6.652   2.115  11.589  0.00  0.00    +0.000 C 
ATOM      9  C   UNL     1       5.880   3.411  11.858  0.00  0.00    +0.000 C 
ATOM     10  C   UNL     1       4.408   3.235  11.479  0.00  0.00    +0.000 C 
ENDBRANCH   2   9
ENDBRANCH   1   5
BRANCH   1  11
ATOM     11  C   UNL     1       4.947   5.822  17.851  0.00  0.00    +0.000 A 
ATOM     12  C   UNL     1       4.093   6.888  17.643  0.00  0.00    +0.000 A 
ATOM     13  N   UNL     1       2.899   6.702  18.273  0.00  0.00    +0.000 NA
ATOM     14  C   UNL     1       2.972   5.521  18.853  0.00  0.00    +0.000 A 
ATOM     15  N   UNL     1       4.236   4.987  18.695  0.00  0.00    +0.000 N 
ATOM     16  C   UNL     1       4.760   3.785  19.301  0.00  0.00    +0.000 C 
BRANCH  14  17
ATOM     17  C   UNL     1       1.820   4.858  19.558  0.00  0.00    +0.000 C 
ATOM     18  C   UNL     1       1.432   3.556  18.859  0.00  0.00    +0.000 C 
ATOM     19  C   UNL     1       2.181   4.578  21.023  0.00  0.00    +0.000 C 
ENDBRANCH  14  17
ENDBRANCH   1  11
BRANCH   1  20
ATOM     20  O   UNL     1       7.024   6.755  17.293  0.00  0.00    +0.000 OA
ATOM     21  H   UNL     1       7.917   6.582  17.629  0.00  0.00    +0.000 HD
ENDBRANCH   1  20
TORSDOF 5
ENDMDL
