MODEL 1
REMARK VINA RESULT:      -8.1      0.000      0.000
REMARK  Name = 
REMARK  9 active torsions:
REMARK  status: ('A' for Active; 'I' for Inactive)
REMARK    1  A    between atoms: C_1  and  N_2
REMARK    2  A    between atoms: C_3  and  C_4
REMARK    3  A    between atoms: C_9  and  C_10
REMARK    4  A    between atoms: C_16  and  C_17
REMARK    5  A    between atoms: C_20  and  C_21
REMARK    6  A    between atoms: C_21  and  C_22
REMARK    7  A    between atoms: C_22  and  C_23
REMARK    8  A    between atoms: C_23  and  C_24
REMARK    9  A    between atoms: C_24  and  C_25
REMARK                            x       y       z     vdW  Elec       q    Type
REMARK                         _______ _______ _______ _____ _____    ______ ____
ROOT
ATOM      1  C   UNL     1       2.198   8.925  17.627  0.00  0.00    +0.000 C 
ATOM      2  N   UNL     1       2.114   8.073  18.790  0.00  0.00    +0.000 N 
ATOM      3  C   UNL     1       2.699   6.829  18.951  0.00  0.00    +0.000 A 
ATOM      4  N   UNL     1       2.401   6.395  20.156  0.00  0.00    +0.000 NA
ATOM      5  N   UNL     1       1.616   7.322  20.778  0.00  0.00    +0.000 NA
ATOM      6  C   UNL     1       1.458   8.358  19.977  0.00  0.00    +0.000 A 
ENDROOT
BRANCH   6   7
ATOM      7  C   UNL     1       0.778   9.647  20.400  0.00  0.00    +0.000 C 
ATOM      8  C   UNL     1      -0.496   9.861  19.529  0.00  0.00    +0.000 C 
ATOM      9  C   UNL     1      -1.254  11.128  19.933  0.00  0.00    +0.000 C 
ATOM     10  C   UNL     1      -0.559  11.829  21.120  0.00  0.00    +0.000 C 
ATOM     11  C   UNL     1       0.873  12.179  20.655  0.00  0.00    +0.000 C 
ATOM     12  C   UNL     1       1.641  10.916  20.235  0.00  0.00    +0.000 C 
ATOM     13  C   UNL     1      -0.446  10.817  22.288  0.00  0.00    +0.000 C 
ATOM     14  C   UNL     1       0.309   9.553  21.867  0.00  0.00    +0.000 C 
BRANCH  10  15
ATOM     15  C   UNL     1      -1.302  13.118  21.549  0.00  0.00    +0.000 C 
BRANCH  15  16
ATOM     16  C   UNL     1      -1.318  13.339  23.064  0.00  0.00    +0.000 C 
BRANCH  16  17
ATOM     17  C   UNL     1      -2.692  13.718  23.611  0.00  0.00    +0.000 C 
BRANCH  17  18
ATOM     18  C   UNL     1      -3.587  12.482  23.632  0.00  0.00    +0.000 C 
ATOM     19  C   UNL     1      -4.604  12.489  24.749  0.00  0.00    +0.000 C 
ATOM     20  F   UNL     1      -4.244  12.376  22.448  0.00  0.00    +0.000 F 
ATOM     21  F   UNL     1      -2.818  11.369  23.753  0.00  0.00    +0.000 F 
ENDBRANCH  17  18
ENDBRANCH  16  17
ENDBRANCH  15  16
ENDBRANCH  10  15
ENDBRANCH   6   7
BRANCH   3  22
ATOM     22  C   UNL     1       3.549   6.115  17.990  0.00  0.00    +0.000 A 
ATOM     23  C   UNL     1       4.745   6.730  17.560  0.00  0.00    +0.000 A 
ATOM     24  C   UNL     1       5.579   6.147  16.608  0.00  0.00    +0.000 A 
ATOM     25  C   UNL     1       5.275   4.897  16.106  0.00  0.00    +0.000 A 
ATOM     26  C   UNL     1       4.135   4.236  16.562  0.00  0.00    +0.000 A 
ATOM     27  C   UNL     1       3.248   4.830  17.499  0.00  0.00    +0.000 A 
BRANCH  27  28
ATOM     28  C   UNL     1       2.052   3.976  17.879  0.00  0.00    +0.000 C 
ATOM     29  F   UNL     1       1.829   3.746  19.194  0.00  0.00    +0.000 F 
ATOM     30  F   UNL     1       0.890   4.549  17.434  0.00  0.00    +0.000 F 
ATOM     31  F   UNL     1       2.090   2.752  17.274  0.00  0.00    +0.000 F 
ENDBRANCH  27  28
ENDBRANCH   3  22
TORSDOF 7
ENDMDL
MODEL 2
REMARK VINA RESULT:      -8.0      2.796     10.008
REMARK  Name = 
REMARK  9 active torsions:
REMARK  status: ('A' for Active; 'I' for Inactive)
REMARK    1  A    between atoms: C_1  and  N_2
REMARK    2  A    between atoms: C_3  and  C_4
REMARK    3  A    between atoms: C_9  and  C_10
REMARK    4  A    between atoms: C_16  and  C_17
REMARK    5  A    between atoms: C_20  and  C_21
REMARK    6  A    between atoms: C_21  and  C_22
REMARK    7  A    between atoms: C_22  and  C_23
REMARK    8  A    between atoms: C_23  and  C_24
REMARK    9  A    between atoms: C_24  and  C_25
REMARK                            x       y       z     vdW  Elec       q    Type
REMARK                         _______ _______ _______ _____ _____    ______ ____
ROOT
ATOM      1  C   UNL     1       2.193   9.186  17.846  0.00  0.00    +0.000 C 
ATOM      2  N   UNL     1       1.938   8.409  19.036  0.00  0.00    +0.000 N 
ATOM      3  C   UNL     1       1.083   8.737  20.074  0.00  0.00    +0.000 A 
ATOM      4  N   UNL     1       1.119   7.758  20.952  0.00  0.00    +0.000 NA
ATOM      5  N   UNL     1       1.997   6.808  20.518  0.00  0.00    +0.000 NA
ATOM      6  C   UNL     1       2.479   7.170  19.345  0.00  0.00    +0.000 A 
ENDROOT
BRANCH   6   7
ATOM      7  C   UNL     1       3.359   6.279  18.489  0.00  0.00    +0.000 C 
ATOM      8  C   UNL     1       2.486   5.152  17.862  0.00  0.00    +0.000 C 
ATOM      9  C   UNL     1       3.309   4.238  16.950  0.00  0.00    +0.000 C 
ATOM     10  C   UNL     1       4.777   4.709  16.880  0.00  0.00    +0.000 C 
ATOM     11  C   UNL     1       5.326   4.671  18.324  0.00  0.00    +0.000 C 
ATOM     12  C   UNL     1       4.502   5.576  19.252  0.00  0.00    +0.000 C 
ATOM     13  C   UNL     1       4.796   6.181  16.402  0.00  0.00    +0.000 C 
ATOM     14  C   UNL     1       3.965   7.083  17.320  0.00  0.00    +0.000 C 
BRANCH  10  15
ATOM     15  C   UNL     1       5.635   3.799  15.967  0.00  0.00    +0.000 C 
BRANCH  15  16
ATOM     16  C   UNL     1       5.568   4.181  14.486  0.00  0.00    +0.000 C 
BRANCH  16  17
ATOM     17  C   UNL     1       6.839   3.843  13.710  0.00  0.00    +0.000 C 
BRANCH  17  18
ATOM     18  C   UNL     1       6.484   3.579  12.250  0.00  0.00    +0.000 C 
ATOM     19  C   UNL     1       5.002   3.434  12.002  0.00  0.00    +0.000 C 
ATOM     20  F   UNL     1       6.956   4.591  11.476  0.00  0.00    +0.000 F 
ATOM     21  F   UNL     1       7.107   2.446  11.831  0.00  0.00    +0.000 F 
ENDBRANCH  17  18
ENDBRANCH  16  17
ENDBRANCH  15  16
ENDBRANCH  10  15
ENDBRANCH   6   7
BRANCH   3  22
ATOM     22  C   UNL     1       0.233   9.928  20.183  0.00  0.00    +0.000 A 
ATOM     23  C   UNL     1      -0.025  10.683  19.017  0.00  0.00    +0.000 A 
ATOM     24  C   UNL     1      -0.773  11.858  19.044  0.00  0.00    +0.000 A 
ATOM     25  C   UNL     1      -1.345  12.278  20.228  0.00  0.00    +0.000 A 
ATOM     26  C   UNL     1      -1.164  11.517  21.383  0.00  0.00    +0.000 A 
ATOM     27  C   UNL     1      -0.368  10.341  21.388  0.00  0.00    +0.000 A 
BRANCH  27  28
ATOM     28  C   UNL     1      -0.270   9.640  22.731  0.00  0.00    +0.000 C 
ATOM     29  F   UNL     1       0.963   9.408  23.237  0.00  0.00    +0.000 F 
ATOM     30  F   UNL     1      -0.902  10.370  23.702  0.00  0.00    +0.000 F 
ATOM     31  F   UNL     1      -0.917   8.437  22.724  0.00  0.00    +0.000 F 
ENDBRANCH  27  28
ENDBRANCH   3  22
TORSDOF 7
ENDMDL
MODEL 3
REMARK VINA RESULT:      -8.0      0.757      1.513
REMARK  Name = 
REMARK  9 active torsions:
REMARK  status: ('A' for Active; 'I' for Inactive)
REMARK    1  A    between atoms: C_1  and  N_2
REMARK    2  A    between atoms: C_3  and  C_4
REMARK    3  A    between atoms: C_9  and  C_10
REMARK    4  A    between atoms: C_16  and  C_17
REMARK    5  A    between atoms: C_20  and  C_21
REMARK    6  A    between atoms: C_21  and  C_22
REMARK    7  A    between atoms: C_22  and  C_23
REMARK    8  A    between atoms: C_23  and  C_24
REMARK    9  A    between atoms: C_24  and  C_25
REMARK                            x       y       z     vdW  Elec       q    Type
REMARK                         _______ _______ _______ _____ _____    ______ ____
ROOT
ATOM      1  C   UNL     1       2.126   8.964  17.638  0.00  0.00    +0.000 C 
ATOM      2  N   UNL     1       2.082   8.084  18.783  0.00  0.00    +0.000 N 
ATOM      3  C   UNL     1       2.742   6.876  18.925  0.00  0.00    +0.000 A 
ATOM      4  N   UNL     1       2.458   6.398  20.118  0.00  0.00    +0.000 NA
ATOM      5  N   UNL     1       1.610   7.262  20.748  0.00  0.00    +0.000 NA
ATOM      6  C   UNL     1       1.396   8.302  19.967  0.00  0.00    +0.000 A 
ENDROOT
BRANCH   6   7
ATOM      7  C   UNL     1       0.632   9.537  20.407  0.00  0.00    +0.000 C 
ATOM      8  C   UNL     1       0.132   9.333  21.868  0.00  0.00    +0.000 C 
ATOM      9  C   UNL     1      -0.614  10.564  22.390  0.00  0.00    +0.000 C 
ATOM     10  C   UNL     1      -0.637  11.684  21.328  0.00  0.00    +0.000 C 
ATOM     11  C   UNL     1      -1.350  11.104  20.085  0.00  0.00    +0.000 C 
ATOM     12  C   UNL     1      -0.616   9.861  19.558  0.00  0.00    +0.000 C 
ATOM     13  C   UNL     1       0.823  12.011  20.930  0.00  0.00    +0.000 C 
ATOM     14  C   UNL     1       1.559  10.770  20.415  0.00  0.00    +0.000 C 
BRANCH  10  15
ATOM     15  C   UNL     1      -1.391  12.941  21.826  0.00  0.00    +0.000 C 
BRANCH  15  16
ATOM     16  C   UNL     1      -2.048  12.756  23.196  0.00  0.00    +0.000 C 
BRANCH  16  17
ATOM     17  C   UNL     1      -3.566  12.605  23.130  0.00  0.00    +0.000 C 
BRANCH  17  18
ATOM     18  C   UNL     1      -4.194  13.256  24.359  0.00  0.00    +0.000 C 
ATOM     19  C   UNL     1      -3.401  14.423  24.898  0.00  0.00    +0.000 C 
ATOM     20  F   UNL     1      -5.447  13.686  24.057  0.00  0.00    +0.000 F 
ATOM     21  F   UNL     1      -4.326  12.329  25.343  0.00  0.00    +0.000 F 
ENDBRANCH  17  18
ENDBRANCH  16  17
ENDBRANCH  15  16
ENDBRANCH  10  15
ENDBRANCH   6   7
BRANCH   3  22
ATOM     22  C   UNL     1       3.646   6.237  17.961  0.00  0.00    +0.000 A 
ATOM     23  C   UNL     1       4.817   6.925  17.575  0.00  0.00    +0.000 A 
ATOM     24  C   UNL     1       5.698   6.415  16.623  0.00  0.00    +0.000 A 
ATOM     25  C   UNL     1       5.469   5.169  16.077  0.00  0.00    +0.000 A 
ATOM     26  C   UNL     1       4.355   4.436  16.488  0.00  0.00    +0.000 A 
ATOM     27  C   UNL     1       3.420   4.955  17.423  0.00  0.00    +0.000 A 
BRANCH  27  28
ATOM     28  C   UNL     1       2.263   4.030  17.752  0.00  0.00    +0.000 C 
ATOM     29  F   UNL     1       1.007   4.486  17.544  0.00  0.00    +0.000 F 
ATOM     30  F   UNL     1       2.335   2.884  17.004  0.00  0.00    +0.000 F 
ATOM     31  F   UNL     1       2.309   3.601  19.049  0.00  0.00    +0.000 F 
ENDBRANCH  27  28
ENDBRANCH   3  22
TORSDOF 7
ENDMDL
MODEL 4
REMARK VINA RESULT:      -8.0      0.187      1.296
REMARK  Name = 
REMARK  9 active torsions:
REMARK  status: ('A' for Active; 'I' for Inactive)
REMARK    1  A    between atoms: C_1  and  N_2
REMARK    2  A    between atoms: C_3  and  C_4
REMARK    3  A    between atoms: C_9  and  C_10
REMARK    4  A    between atoms: C_16  and  C_17
REMARK    5  A    between atoms: C_20  and  C_21
REMARK    6  A    between atoms: C_21  and  C_22
REMARK    7  A    between atoms: C_22  and  C_23
REMARK    8  A    between atoms: C_23  and  C_24
REMARK    9  A    between atoms: C_24  and  C_25
REMARK                            x       y       z     vdW  Elec       q    Type
REMARK                         _______ _______ _______ _____ _____    ______ ____
ROOT
ATOM      1  C   UNL     1       2.166   8.971  17.676  0.00  0.00    +0.000 C 
ATOM      2  N   UNL     1       2.114   8.079  18.811  0.00  0.00    +0.000 N 
ATOM      3  C   UNL     1       2.747   6.855  18.934  0.00  0.00    +0.000 A 
ATOM      4  N   UNL     1       2.464   6.370  20.124  0.00  0.00    +0.000 NA
ATOM      5  N   UNL     1       1.642   7.246  20.773  0.00  0.00    +0.000 NA
ATOM      6  C   UNL     1       1.443   8.299  20.005  0.00  0.00    +0.000 A 
ENDROOT
BRANCH   6   7
ATOM      7  C   UNL     1       0.712   9.546  20.466  0.00  0.00    +0.000 C 
ATOM      8  C   UNL     1       1.674  10.767  20.369  0.00  0.00    +0.000 C 
ATOM      9  C   UNL     1       0.982  12.069  20.782  0.00  0.00    +0.000 C 
ATOM     10  C   UNL     1      -0.494  11.813  21.152  0.00  0.00    +0.000 C 
ATOM     11  C   UNL     1      -0.492  10.805  22.324  0.00  0.00    +0.000 C 
ATOM     12  C   UNL     1       0.210   9.497  21.925  0.00  0.00    +0.000 C 
ATOM     13  C   UNL     1      -1.192  11.139  19.945  0.00  0.00    +0.000 C 
ATOM     14  C   UNL     1      -0.487   9.841  19.539  0.00  0.00    +0.000 C 
BRANCH  10  15
ATOM     15  C   UNL     1      -1.219  13.113  21.580  0.00  0.00    +0.000 C 
BRANCH  15  16
ATOM     16  C   UNL     1      -1.359  13.264  23.097  0.00  0.00    +0.000 C 
BRANCH  16  17
ATOM     17  C   UNL     1      -2.751  13.708  23.541  0.00  0.00    +0.000 C 
BRANCH  17  18
ATOM     18  C   UNL     1      -3.683  12.500  23.565  0.00  0.00    +0.000 C 
ATOM     19  C   UNL     1      -4.815  12.627  24.557  0.00  0.00    +0.000 C 
ATOM     20  F   UNL     1      -4.211  12.308  22.328  0.00  0.00    +0.000 F 
ATOM     21  F   UNL     1      -2.969  11.383  23.862  0.00  0.00    +0.000 F 
ENDBRANCH  17  18
ENDBRANCH  16  17
ENDBRANCH  15  16
ENDBRANCH  10  15
ENDBRANCH   6   7
BRANCH   3  22
ATOM     22  C   UNL     1       3.627   6.207  17.954  0.00  0.00    +0.000 A 
ATOM     23  C   UNL     1       4.782   6.896  17.524  0.00  0.00    +0.000 A 
ATOM     24  C   UNL     1       5.639   6.376  16.555  0.00  0.00    +0.000 A 
ATOM     25  C   UNL     1       5.402   5.120  16.035  0.00  0.00    +0.000 A 
ATOM     26  C   UNL     1       4.305   4.388  16.489  0.00  0.00    +0.000 A 
ATOM     27  C   UNL     1       3.394   4.915  17.443  0.00  0.00    +0.000 A 
BRANCH  27  28
ATOM     28  C   UNL     1       2.253   3.988  17.819  0.00  0.00    +0.000 C 
ATOM     29  F   UNL     1       0.988   4.427  17.622  0.00  0.00    +0.000 F 
ATOM     30  F   UNL     1       2.322   2.823  17.101  0.00  0.00    +0.000 F 
ATOM     31  F   UNL     1       2.327   3.596  19.125  0.00  0.00    +0.000 F 
ENDBRANCH  27  28
ENDBRANCH   3  22
TORSDOF 7
ENDMDL
MODEL 5
REMARK VINA RESULT:      -7.9      1.995      2.976
REMARK  Name = 
REMARK  9 active torsions:
REMARK  status: ('A' for Active; 'I' for Inactive)
REMARK    1  A    between atoms: C_1  and  N_2
REMARK    2  A    between atoms: C_3  and  C_4
REMARK    3  A    between atoms: C_9  and  C_10
REMARK    4  A    between atoms: C_16  and  C_17
REMARK    5  A    between atoms: C_20  and  C_21
REMARK    6  A    between atoms: C_21  and  C_22
REMARK    7  A    between atoms: C_22  and  C_23
REMARK    8  A    between atoms: C_23  and  C_24
REMARK    9  A    between atoms: C_24  and  C_25
REMARK                            x       y       z     vdW  Elec       q    Type
REMARK                         _______ _______ _______ _____ _____    ______ ____
ROOT
ATOM      1  C   UNL     1       2.064   9.001  17.606  0.00  0.00    +0.000 C 
ATOM      2  N   UNL     1       1.982   8.194  18.801  0.00  0.00    +0.000 N 
ATOM      3  C   UNL     1       2.601   6.976  19.023  0.00  0.00    +0.000 A 
ATOM      4  N   UNL     1       2.291   6.581  20.240  0.00  0.00    +0.000 NA
ATOM      5  N   UNL     1       1.465   7.507  20.807  0.00  0.00    +0.000 NA
ATOM      6  C   UNL     1       1.291   8.505  19.962  0.00  0.00    +0.000 A 
ENDROOT
BRANCH   6   7
ATOM      7  C   UNL     1       0.562   9.786  20.318  0.00  0.00    +0.000 C 
ATOM      8  C   UNL     1       0.012   9.673  21.771  0.00  0.00    +0.000 C 
ATOM      9  C   UNL     1      -0.702  10.955  22.209  0.00  0.00    +0.000 C 
ATOM     10  C   UNL     1      -0.650  12.021  21.094  0.00  0.00    +0.000 C 
ATOM     11  C   UNL     1      -1.347  11.408  19.858  0.00  0.00    +0.000 C 
ATOM     12  C   UNL     1      -0.647  10.114  19.415  0.00  0.00    +0.000 C 
ATOM     13  C   UNL     1       0.833  12.275  20.728  0.00  0.00    +0.000 C 
ATOM     14  C   UNL     1       1.535  10.984  20.297  0.00  0.00    +0.000 C 
BRANCH  10  15
ATOM     15  C   UNL     1      -1.369  13.329  21.508  0.00  0.00    +0.000 C 
BRANCH  15  16
ATOM     16  C   UNL     1      -0.551  14.592  21.227  0.00  0.00    +0.000 C 
BRANCH  16  17
ATOM     17  C   UNL     1      -1.149  15.477  20.136  0.00  0.00    +0.000 C 
BRANCH  17  18
ATOM     18  C   UNL     1      -0.258  15.428  18.899  0.00  0.00    +0.000 C 
ATOM     19  C   UNL     1       1.211  15.597  19.202  0.00  0.00    +0.000 C 
ATOM     20  F   UNL     1      -0.435  14.243  18.258  0.00  0.00    +0.000 F 
ATOM     21  F   UNL     1      -0.637  16.401  18.030  0.00  0.00    +0.000 F 
ENDBRANCH  17  18
ENDBRANCH  16  17
ENDBRANCH  15  16
ENDBRANCH  10  15
ENDBRANCH   6   7
BRANCH   3  22
ATOM     22  C   UNL     1       3.494   6.253  18.110  0.00  0.00    +0.000 A 
ATOM     23  C   UNL     1       4.714   6.857  17.738  0.00  0.00    +0.000 A 
ATOM     24  C   UNL     1       5.591   6.264  16.832  0.00  0.00    +0.000 A 
ATOM     25  C   UNL     1       5.304   5.014  16.320  0.00  0.00    +0.000 A 
ATOM     26  C   UNL     1       4.138   4.363  16.721  0.00  0.00    +0.000 A 
ATOM     27  C   UNL     1       3.209   4.967  17.609  0.00  0.00    +0.000 A 
BRANCH  27  28
ATOM     28  C   UNL     1       1.989   4.124  17.932  0.00  0.00    +0.000 C 
ATOM     29  F   UNL     1       1.664   3.949  19.234  0.00  0.00    +0.000 F 
ATOM     30  F   UNL     1       0.864   4.670  17.373  0.00  0.00    +0.000 F 
ATOM     31  F   UNL     1       2.077   2.875  17.385  0.00  0.00    +0.000 F 
ENDBRANCH  27  28
ENDBRANCH   3  22
TORSDOF 7
ENDMDL
MODEL 6
REMARK VINA RESULT:      -7.9      0.761      1.068
REMARK  Name = 
REMARK  9 active torsions:
REMARK  status: ('A' for Active; 'I' for Inactive)
REMARK    1  A    between atoms: C_1  and  N_2
REMARK    2  A    between atoms: C_3  and  C_4
REMARK    3  A    between atoms: C_9  and  C_10
REMARK    4  A    between atoms: C_16  and  C_17
REMARK    5  A    between atoms: C_20  and  C_21
REMARK    6  A    between atoms: C_21  and  C_22
REMARK    7  A    between atoms: C_22  and  C_23
REMARK    8  A    between atoms: C_23  and  C_24
REMARK    9  A    between atoms: C_24  and  C_25
REMARK                            x       y       z     vdW  Elec       q    Type
REMARK                         _______ _______ _______ _____ _____    ______ ____
ROOT
ATOM      1  C   UNL     1       2.247   8.867  17.702  0.00  0.00    +0.000 C 
ATOM      2  N   UNL     1       2.182   7.968  18.830  0.00  0.00    +0.000 N 
ATOM      3  C   UNL     1       2.810   6.740  18.948  0.00  0.00    +0.000 A 
ATOM      4  N   UNL     1       2.515   6.248  20.133  0.00  0.00    +0.000 NA
ATOM      5  N   UNL     1       1.692   7.121  20.781  0.00  0.00    +0.000 NA
ATOM      6  C   UNL     1       1.504   8.182  20.020  0.00  0.00    +0.000 A 
ENDROOT
BRANCH   6   7
ATOM      7  C   UNL     1       0.774   9.428  20.484  0.00  0.00    +0.000 C 
ATOM      8  C   UNL     1      -0.426   9.702  19.529  0.00  0.00    +0.000 C 
ATOM      9  C   UNL     1      -1.232  10.927  19.968  0.00  0.00    +0.000 C 
ATOM     10  C   UNL     1      -0.648  11.535  21.261  0.00  0.00    +0.000 C 
ATOM     11  C   UNL     1       0.812  11.932  20.947  0.00  0.00    +0.000 C 
ATOM     12  C   UNL     1       1.630  10.712  20.494  0.00  0.00    +0.000 C 
ATOM     13  C   UNL     1      -0.618  10.435  22.350  0.00  0.00    +0.000 C 
ATOM     14  C   UNL     1       0.187   9.214  21.896  0.00  0.00    +0.000 C 
BRANCH  10  15
ATOM     15  C   UNL     1      -1.442  12.781  21.727  0.00  0.00    +0.000 C 
BRANCH  15  16
ATOM     16  C   UNL     1      -2.141  12.591  23.076  0.00  0.00    +0.000 C 
BRANCH  16  17
ATOM     17  C   UNL     1      -3.664  12.629  22.985  0.00  0.00    +0.000 C 
BRANCH  17  18
ATOM     18  C   UNL     1      -4.233  13.221  24.271  0.00  0.00    +0.000 C 
ATOM     19  C   UNL     1      -3.397  14.339  24.846  0.00  0.00    +0.000 C 
ATOM     20  F   UNL     1      -5.486  13.691  24.040  0.00  0.00    +0.000 F 
ATOM     21  F   UNL     1      -4.350  12.242  25.206  0.00  0.00    +0.000 F 
ENDBRANCH  17  18
ENDBRANCH  16  17
ENDBRANCH  15  16
ENDBRANCH  10  15
ENDBRANCH   6   7
BRANCH   3  22
ATOM     22  C   UNL     1       3.694   6.095  17.970  0.00  0.00    +0.000 A 
ATOM     23  C   UNL     1       4.881   6.761  17.592  0.00  0.00    +0.000 A 
ATOM     24  C   UNL     1       5.746   6.245  16.629  0.00  0.00    +0.000 A 
ATOM     25  C   UNL     1       5.484   5.014  16.062  0.00  0.00    +0.000 A 
ATOM     26  C   UNL     1       4.354   4.303  16.464  0.00  0.00    +0.000 A 
ATOM     27  C   UNL     1       3.435   4.828  17.412  0.00  0.00    +0.000 A 
BRANCH  27  28
ATOM     28  C   UNL     1       2.256   3.927  17.729  0.00  0.00    +0.000 C 
ATOM     29  F   UNL     1       1.011   4.413  17.520  0.00  0.00    +0.000 F 
ATOM     30  F   UNL     1       2.305   2.786  16.971  0.00  0.00    +0.000 F 
ATOM     31  F   UNL     1       2.288   3.487  19.021  0.00  0.00    +0.000 F 
ENDBRANCH  27  28
ENDBRANCH   3  22
TORSDOF 7
ENDMDL
MODEL 7
REMARK VINA RESULT:      -7.8      1.072      1.601
REMARK  Name = 
REMARK  9 active torsions:
REMARK  status: ('A' for Active; 'I' for Inactive)
REMARK    1  A    between atoms: C_1  and  N_2
REMARK    2  A    between atoms: C_3  and  C_4
REMARK    3  A    between atoms: C_9  and  C_10
REMARK    4  A    between atoms: C_16  and  C_17
REMARK    5  A    between atoms: C_20  and  C_21
REMARK    6  A    between atoms: C_21  and  C_22
REMARK    7  A    between atoms: C_22  and  C_23
REMARK    8  A    between atoms: C_23  and  C_24
REMARK    9  A    between atoms: C_24  and  C_25
REMARK                            x       y       z     vdW  Elec       q    Type
REMARK                         _______ _______ _______ _____ _____    ______ ____
ROOT
ATOM      1  C   UNL     1       2.012   9.050  17.641  0.00  0.00    +0.000 C 
ATOM      2  N   UNL     1       1.987   8.203  18.811  0.00  0.00    +0.000 N 
ATOM      3  C   UNL     1       2.653   7.002  18.979  0.00  0.00    +0.000 A 
ATOM      4  N   UNL     1       2.386   6.558  20.188  0.00  0.00    +0.000 NA
ATOM      5  N   UNL     1       1.543   7.436  20.805  0.00  0.00    +0.000 NA
ATOM      6  C   UNL     1       1.315   8.453  19.997  0.00  0.00    +0.000 A 
ENDROOT
BRANCH   6   7
ATOM      7  C   UNL     1       0.552   9.697  20.412  0.00  0.00    +0.000 C 
ATOM      8  C   UNL     1      -0.007   9.496  21.852  0.00  0.00    +0.000 C 
ATOM      9  C   UNL     1      -0.756  10.735  22.348  0.00  0.00    +0.000 C 
ATOM     10  C   UNL     1      -0.721  11.859  21.291  0.00  0.00    +0.000 C 
ATOM     11  C   UNL     1      -1.393  11.293  20.018  0.00  0.00    +0.000 C 
ATOM     12  C   UNL     1      -0.657  10.041  19.516  0.00  0.00    +0.000 C 
ATOM     13  C   UNL     1       0.758  12.166  20.951  0.00  0.00    +0.000 C 
ATOM     14  C   UNL     1       1.495  10.917  20.461  0.00  0.00    +0.000 C 
BRANCH  10  15
ATOM     15  C   UNL     1      -1.476  13.126  21.764  0.00  0.00    +0.000 C 
BRANCH  15  16
ATOM     16  C   UNL     1      -1.924  13.059  23.226  0.00  0.00    +0.000 C 
BRANCH  16  17
ATOM     17  C   UNL     1      -1.840  14.400  23.952  0.00  0.00    +0.000 C 
BRANCH  17  18
ATOM     18  C   UNL     1      -3.053  14.557  24.864  0.00  0.00    +0.000 C 
ATOM     19  C   UNL     1      -3.985  15.670  24.447  0.00  0.00    +0.000 C 
ATOM     20  F   UNL     1      -3.753  13.394  24.896  0.00  0.00    +0.000 F 
ATOM     21  F   UNL     1      -2.635  14.796  26.135  0.00  0.00    +0.000 F 
ENDBRANCH  17  18
ENDBRANCH  16  17
ENDBRANCH  15  16
ENDBRANCH  10  15
ENDBRANCH   6   7
BRANCH   3  22
ATOM     22  C   UNL     1       3.547   6.339  18.022  0.00  0.00    +0.000 A 
ATOM     23  C   UNL     1       4.711   7.019  17.603  0.00  0.00    +0.000 A 
ATOM     24  C   UNL     1       5.582   6.485  16.654  0.00  0.00    +0.000 A 
ATOM     25  C   UNL     1       5.349   5.223  16.145  0.00  0.00    +0.000 A 
ATOM     26  C   UNL     1       4.243   4.500  16.591  0.00  0.00    +0.000 A 
ATOM     27  C   UNL     1       3.318   5.042  17.523  0.00  0.00    +0.000 A 
BRANCH  27  28
ATOM     28  C   UNL     1       2.168   4.123  17.891  0.00  0.00    +0.000 C 
ATOM     29  F   UNL     1       2.012   3.791  19.194  0.00  0.00    +0.000 F 
ATOM     30  F   UNL     1       0.970   4.689  17.541  0.00  0.00    +0.000 F 
ATOM     31  F   UNL     1       2.214   2.949  17.196  0.00  0.00    +0.000 F 
ENDBRANCH  27  28
ENDBRANCH   3  22
TORSDOF 7
ENDMDL
MODEL 8
REMARK VINA RESULT:      -7.7      0.759      1.073
REMARK  Name = 
REMARK  9 active torsions:
REMARK  status: ('A' for Active; 'I' for Inactive)
REMARK    1  A    between atoms: C_1  and  N_2
REMARK    2  A    between atoms: C_3  and  C_4
REMARK    3  A    between atoms: C_9  and  C_10
REMARK    4  A    between atoms: C_16  and  C_17
REMARK    5  A    between atoms: C_20  and  C_21
REMARK    6  A    between atoms: C_21  and  C_22
REMARK    7  A    between atoms: C_22  and  C_23
REMARK    8  A    between atoms: C_23  and  C_24
REMARK    9  A    between atoms: C_24  and  C_25
REMARK                            x       y       z     vdW  Elec       q    Type
REMARK                         _______ _______ _______ _____ _____    ______ ____
ROOT
ATOM      1  C   UNL     1       2.108   8.936  17.571  0.00  0.00    +0.000 C 
ATOM      2  N   UNL     1       1.999   8.180  18.797  0.00  0.00    +0.000 N 
ATOM      3  C   UNL     1       2.608   6.969  19.081  0.00  0.00    +0.000 A 
ATOM      4  N   UNL     1       2.273   6.627  20.306  0.00  0.00    +0.000 NA
ATOM      5  N   UNL     1       1.442   7.580  20.820  0.00  0.00    +0.000 NA
ATOM      6  C   UNL     1       1.289   8.542  19.931  0.00  0.00    +0.000 A 
ENDROOT
BRANCH   6   7
ATOM      7  C   UNL     1       0.562   9.841  20.220  0.00  0.00    +0.000 C 
ATOM      8  C   UNL     1      -0.670   9.958  19.273  0.00  0.00    +0.000 C 
ATOM      9  C   UNL     1      -1.474  11.233  19.542  0.00  0.00    +0.000 C 
ATOM     10  C   UNL     1      -0.856  12.037  20.705  0.00  0.00    +0.000 C 
ATOM     11  C   UNL     1       0.590  12.387  20.286  0.00  0.00    +0.000 C 
ATOM     12  C   UNL     1       1.405  11.116  20.002  0.00  0.00    +0.000 C 
ATOM     13  C   UNL     1      -0.782  11.120  21.950  0.00  0.00    +0.000 C 
ATOM     14  C   UNL     1       0.021   9.847  21.665  0.00  0.00    +0.000 C 
BRANCH  10  15
ATOM     15  C   UNL     1      -1.647  13.336  20.997  0.00  0.00    +0.000 C 
BRANCH  15  16
ATOM     16  C   UNL     1      -2.992  13.090  21.685  0.00  0.00    +0.000 C 
BRANCH  16  17
ATOM     17  C   UNL     1      -3.185  13.909  22.960  0.00  0.00    +0.000 C 
BRANCH  17  18
ATOM     18  C   UNL     1      -3.874  13.048  24.014  0.00  0.00    +0.000 C 
ATOM     19  C   UNL     1      -5.364  12.914  23.810  0.00  0.00    +0.000 C 
ATOM     20  F   UNL     1      -3.323  11.806  24.018  0.00  0.00    +0.000 F 
ATOM     21  F   UNL     1      -3.650  13.577  25.246  0.00  0.00    +0.000 F 
ENDBRANCH  17  18
ENDBRANCH  16  17
ENDBRANCH  15  16
ENDBRANCH  10  15
ENDBRANCH   6   7
BRANCH   3  22
ATOM     22  C   UNL     1       3.512   6.204  18.215  0.00  0.00    +0.000 A 
ATOM     23  C   UNL     1       4.795   6.729  17.947  0.00  0.00    +0.000 A 
ATOM     24  C   UNL     1       5.693   6.094  17.090  0.00  0.00    +0.000 A 
ATOM     25  C   UNL     1       5.359   4.879  16.527  0.00  0.00    +0.000 A 
ATOM     26  C   UNL     1       4.124   4.303  16.827  0.00  0.00    +0.000 A 
ATOM     27  C   UNL     1       3.176   4.953  17.661  0.00  0.00    +0.000 A 
BRANCH  27  28
ATOM     28  C   UNL     1       1.881   4.190  17.875  0.00  0.00    +0.000 C 
ATOM     29  F   UNL     1       1.834   2.896  17.483  0.00  0.00    +0.000 F 
ATOM     30  F   UNL     1       1.559   4.152  19.206  0.00  0.00    +0.000 F 
ATOM     31  F   UNL     1       0.822   4.813  17.279  0.00  0.00    +0.000 F 
ENDBRANCH  27  28
ENDBRANCH   3  22
TORSDOF 7
ENDMDL
MODEL 9
REMARK VINA RESULT:      -7.7      0.727      1.567
REMARK  Name = 
REMARK  9 active torsions:
REMARK  status: ('A' for Active; 'I' for Inactive)
REMARK    1  A    between atoms: C_1  and  N_2
REMARK    2  A    between atoms: C_3  and  C_4
REMARK    3  A    between atoms: C_9  and  C_10
REMARK    4  A    between atoms: C_16  and  C_17
REMARK    5  A    between atoms: C_20  and  C_21
REMARK    6  A    between atoms: C_21  and  C_22
REMARK    7  A    between atoms: C_22  and  C_23
REMARK    8  A    between atoms: C_23  and  C_24
REMARK    9  A    between atoms: C_24  and  C_25
REMARK                            x       y       z     vdW  Elec       q    Type
REMARK                         _______ _______ _______ _____ _____    ______ ____
ROOT
ATOM      1  C   UNL     1       2.045   8.984  17.708  0.00  0.00    +0.000 C 
ATOM      2  N   UNL     1       2.025   8.103  18.852  0.00  0.00    +0.000 N 
ATOM      3  C   UNL     1       2.710   6.908  18.992  0.00  0.00    +0.000 A 
ATOM      4  N   UNL     1       2.442   6.425  20.186  0.00  0.00    +0.000 NA
ATOM      5  N   UNL     1       1.580   7.271  20.820  0.00  0.00    +0.000 NA
ATOM      6  C   UNL     1       1.340   8.308  20.040  0.00  0.00    +0.000 A 
ENDROOT
BRANCH   6   7
ATOM      7  C   UNL     1       0.554   9.526  20.484  0.00  0.00    +0.000 C 
ATOM      8  C   UNL     1       1.501  10.763  20.509  0.00  0.00    +0.000 C 
ATOM      9  C   UNL     1       0.757  12.039  20.911  0.00  0.00    +0.000 C 
ATOM     10  C   UNL     1      -0.740  11.751  21.150  0.00  0.00    +0.000 C 
ATOM     11  C   UNL     1      -0.816  10.700  22.281  0.00  0.00    +0.000 C 
ATOM     12  C   UNL     1      -0.064   9.417  21.895  0.00  0.00    +0.000 C 
ATOM     13  C   UNL     1      -1.327  11.112  19.867  0.00  0.00    +0.000 C 
ATOM     14  C   UNL     1      -0.570   9.840  19.474  0.00  0.00    +0.000 C 
BRANCH  10  15
ATOM     15  C   UNL     1      -1.518  13.025  21.564  0.00  0.00    +0.000 C 
BRANCH  15  16
ATOM     16  C   UNL     1      -3.024  12.798  21.717  0.00  0.00    +0.000 C 
BRANCH  16  17
ATOM     17  C   UNL     1      -3.685  13.744  22.716  0.00  0.00    +0.000 C 
BRANCH  17  18
ATOM     18  C   UNL     1      -4.008  12.982  23.998  0.00  0.00    +0.000 C 
ATOM     19  C   UNL     1      -5.484  12.744  24.207  0.00  0.00    +0.000 C 
ATOM     20  F   UNL     1      -3.372  11.782  23.986  0.00  0.00    +0.000 F 
ATOM     21  F   UNL     1      -3.524  13.669  25.066  0.00  0.00    +0.000 F 
ENDBRANCH  17  18
ENDBRANCH  16  17
ENDBRANCH  15  16
ENDBRANCH  10  15
ENDBRANCH   6   7
BRANCH   3  22
ATOM     22  C   UNL     1       3.622   6.288  18.023  0.00  0.00    +0.000 A 
ATOM     23  C   UNL     1       4.787   6.991  17.646  0.00  0.00    +0.000 A 
ATOM     24  C   UNL     1       5.674   6.499  16.690  0.00  0.00    +0.000 A 
ATOM     25  C   UNL     1       5.458   5.256  16.131  0.00  0.00    +0.000 A 
ATOM     26  C   UNL     1       4.351   4.508  16.534  0.00  0.00    +0.000 A 
ATOM     27  C   UNL     1       3.410   5.009  17.473  0.00  0.00    +0.000 A 
BRANCH  27  28
ATOM     28  C   UNL     1       2.261   4.069  17.790  0.00  0.00    +0.000 C 
ATOM     29  F   UNL     1       2.220   2.877  17.152  0.00  0.00    +0.000 F 
ATOM     30  F   UNL     1       2.263   3.740  19.120  0.00  0.00    +0.000 F 
ATOM     31  F   UNL     1       1.049   4.662  17.580  0.00  0.00    +0.000 F 
ENDBRANCH  27  28
ENDBRANCH   3  22
TORSDOF 7
ENDMDL
