MODEL 1
REMARK VINA RESULT:      -7.3      0.000      0.000
REMARK  Name = 
REMARK  6 active torsions:
REMARK  status: ('A' for Active; 'I' for Inactive)
REMARK    1  A    between atoms: C_1  and  C_2
REMARK    2  A    between atoms: C_7  and  C_8
REMARK    3  A    between atoms: N_10  and  C_11
REMARK    4  A    between atoms: C_11  and  C_12
REMARK    5  A    between atoms: C_12  and  C_13
REMARK    6  A    between atoms: C_15  and  C_16
REMARK                            x       y       z     vdW  Elec       q    Type
REMARK                         _______ _______ _______ _____ _____    ______ ____
ROOT
ATOM      1  C   UNL     1       3.320   3.978  17.274  0.00  0.00    +0.000 C 
ATOM      2  O   UNL     1       2.688   3.270  16.502  0.00  0.00    +0.000 OA
ATOM      3  N   UNL     1       4.606   4.391  16.966  0.00  0.00    +0.000 N 
ATOM      4  H   UNL     1       5.070   5.000  17.639  0.00  0.00    +0.000 HD
ENDROOT
BRANCH   1  11
ATOM      5  C   UNL     1       1.575   2.686  21.631  0.00  0.00    +0.000 C 
ATOM      6  C   UNL     1       1.925   3.794  20.678  0.00  0.00    +0.000 A 
ATOM      7  C   UNL     1       1.792   5.117  21.080  0.00  0.00    +0.000 A 
ATOM      8  C   UNL     1       2.166   6.130  20.202  0.00  0.00    +0.000 A 
ATOM      9  C   UNL     1       2.675   5.808  18.940  0.00  0.00    +0.000 A 
ATOM     10 BR   UNL     1       3.153   7.275  17.840  0.00  0.00    +0.000 Br
ATOM     11  C   UNL     1       2.783   4.458  18.604  0.00  0.00    +0.000 A 
ATOM     12  N   UNL     1       2.411   3.445  19.458  0.00  0.00    +0.000 NA
ENDBRANCH   1  11
BRANCH   3  13
ATOM     13  C   UNL     1       5.280   3.947  15.756  0.00  0.00    +0.000 C 
BRANCH  13  14
ATOM     14  C   UNL     1       6.794   4.142  15.815  0.00  0.00    +0.000 C 
BRANCH  14  15
ATOM     15  C   UNL     1       7.151   5.277  16.699  0.00  0.00    +0.000 A 
ATOM     16  N   UNL     1       7.314   6.550  16.409  0.00  0.00    +0.000 NA
ATOM     17  C   UNL     1       7.642   7.083  17.631  0.00  0.00    +0.000 A 
ATOM     18  C   UNL     1       7.918   8.518  17.829  0.00  0.00    +0.000 C 
ATOM     19  N   UNL     1       7.678   6.201  18.639  0.00  0.00    +0.000 NA
ATOM     20  O   UNL     1       7.354   4.993  18.019  0.00  0.00    +0.000 OA
ENDBRANCH  14  15
ENDBRANCH  13  14
ENDBRANCH   3  13
TORSDOF 4
ENDMDL
MODEL 2
REMARK VINA RESULT:      -7.3      2.199      3.447
REMARK  Name = 
REMARK  6 active torsions:
REMARK  status: ('A' for Active; 'I' for Inactive)
REMARK    1  A    between atoms: C_1  and  C_2
REMARK    2  A    between atoms: C_7  and  C_8
REMARK    3  A    between atoms: N_10  and  C_11
REMARK    4  A    between atoms: C_11  and  C_12
REMARK    5  A    between atoms: C_12  and  C_13
REMARK    6  A    between atoms: C_15  and  C_16
REMARK                            x       y       z     vdW  Elec       q    Type
REMARK                         _______ _______ _______ _____ _____    ______ ____
ROOT
ATOM      1  C   UNL     1       5.455   4.724  19.053  0.00  0.00    +0.000 C 
ATOM      2  O   UNL     1       6.366   5.063  19.797  0.00  0.00    +0.000 OA
ATOM      3  N   UNL     1       5.714   4.327  17.751  0.00  0.00    +0.000 N 
ATOM      4  H   UNL     1       4.915   4.033  17.190  0.00  0.00    +0.000 HD
ENDROOT
BRANCH   1  11
ATOM      5  C   UNL     1       2.018   2.475  21.665  0.00  0.00    +0.000 C 
ATOM      6  C   UNL     1       2.371   3.582  20.713  0.00  0.00    +0.000 A 
ATOM      7  C   UNL     1       1.402   4.502  20.335  0.00  0.00    +0.000 A 
ATOM      8  C   UNL     1       1.760   5.549  19.490  0.00  0.00    +0.000 A 
ATOM      9  C   UNL     1       3.078   5.667  19.041  0.00  0.00    +0.000 A 
ATOM     10 BR   UNL     1       3.438   7.137  17.901  0.00  0.00    +0.000 Br
ATOM     11  C   UNL     1       4.000   4.707  19.463  0.00  0.00    +0.000 A 
ATOM     12  N   UNL     1       3.661   3.663  20.293  0.00  0.00    +0.000 NA
ENDBRANCH   1  11
BRANCH   3  13
ATOM     13  C   UNL     1       7.057   4.365  17.195  0.00  0.00    +0.000 C 
BRANCH  13  14
ATOM     14  C   UNL     1       7.231   5.453  16.138  0.00  0.00    +0.000 C 
BRANCH  14  15
ATOM     15  C   UNL     1       7.023   4.911  14.774  0.00  0.00    +0.000 A 
ATOM     16  N   UNL     1       6.172   4.001  14.352  0.00  0.00    +0.000 NA
ATOM     17  C   UNL     1       6.470   3.930  13.013  0.00  0.00    +0.000 A 
ATOM     18  C   UNL     1       5.760   3.031  12.084  0.00  0.00    +0.000 C 
ATOM     19  N   UNL     1       7.446   4.753  12.608  0.00  0.00    +0.000 NA
ATOM     20  O   UNL     1       7.820   5.408  13.783  0.00  0.00    +0.000 OA
ENDBRANCH  14  15
ENDBRANCH  13  14
ENDBRANCH   3  13
TORSDOF 4
ENDMDL
MODEL 3
REMARK VINA RESULT:      -7.2      1.719      2.588
REMARK  Name = 
REMARK  6 active torsions:
REMARK  status: ('A' for Active; 'I' for Inactive)
REMARK    1  A    between atoms: C_1  and  C_2
REMARK    2  A    between atoms: C_7  and  C_8
REMARK    3  A    between atoms: N_10  and  C_11
REMARK    4  A    between atoms: C_11  and  C_12
REMARK    5  A    between atoms: C_12  and  C_13
REMARK    6  A    between atoms: C_15  and  C_16
REMARK                            x       y       z     vdW  Elec       q    Type
REMARK                         _______ _______ _______ _____ _____    ______ ____
ROOT
ATOM      1  C   UNL     1       3.340   4.623  17.549  0.00  0.00    +0.000 C 
ATOM      2  O   UNL     1       2.784   3.551  17.351  0.00  0.00    +0.000 OA
ATOM      3  N   UNL     1       4.540   4.925  16.927  0.00  0.00    +0.000 N 
ATOM      4  H   UNL     1       4.939   5.844  17.115  0.00  0.00    +0.000 HD
ENDROOT
BRANCH   1  11
ATOM      5  C   UNL     1       2.083   9.304  18.003  0.00  0.00    +0.000 C 
ATOM      6  C   UNL     1       2.224   7.956  18.651  0.00  0.00    +0.000 A 
ATOM      7  C   UNL     1       1.814   7.777  19.966  0.00  0.00    +0.000 A 
ATOM      8  C   UNL     1       1.908   6.510  20.536  0.00  0.00    +0.000 A 
ATOM      9  C   UNL     1       2.402   5.441  19.784  0.00  0.00    +0.000 A 
ATOM     10 BR   UNL     1       2.475   3.767  20.670  0.00  0.00    +0.000 Br
ATOM     11  C   UNL     1       2.794   5.693  18.468  0.00  0.00    +0.000 A 
ATOM     12  N   UNL     1       2.713   6.941  17.893  0.00  0.00    +0.000 NA
ENDBRANCH   1  11
BRANCH   3  13
ATOM     13  C   UNL     1       5.221   3.963  16.075  0.00  0.00    +0.000 C 
BRANCH  13  14
ATOM     14  C   UNL     1       6.736   4.160  16.052  0.00  0.00    +0.000 C 
BRANCH  14  15
ATOM     15  C   UNL     1       7.135   5.326  16.874  0.00  0.00    +0.000 A 
ATOM     16  N   UNL     1       7.319   6.581  16.523  0.00  0.00    +0.000 NA
ATOM     17  C   UNL     1       7.683   7.161  17.713  0.00  0.00    +0.000 A 
ATOM     18  C   UNL     1       7.994   8.598  17.838  0.00  0.00    +0.000 C 
ATOM     19  N   UNL     1       7.721   6.326  18.760  0.00  0.00    +0.000 NA
ATOM     20  O   UNL     1       7.358   5.099  18.202  0.00  0.00    +0.000 OA
ENDBRANCH  14  15
ENDBRANCH  13  14
ENDBRANCH   3  13
TORSDOF 4
ENDMDL
MODEL 4
REMARK VINA RESULT:      -7.1      2.395      3.707
REMARK  Name = 
REMARK  6 active torsions:
REMARK  status: ('A' for Active; 'I' for Inactive)
REMARK    1  A    between atoms: C_1  and  C_2
REMARK    2  A    between atoms: C_7  and  C_8
REMARK    3  A    between atoms: N_10  and  C_11
REMARK    4  A    between atoms: C_11  and  C_12
REMARK    5  A    between atoms: C_12  and  C_13
REMARK    6  A    between atoms: C_15  and  C_16
REMARK                            x       y       z     vdW  Elec       q    Type
REMARK                         _______ _______ _______ _____ _____    ______ ____
ROOT
ATOM      1  C   UNL     1       5.056   4.822  19.000  0.00  0.00    +0.000 C 
ATOM      2  O   UNL     1       5.986   4.204  19.500  0.00  0.00    +0.000 OA
ATOM      3  N   UNL     1       5.272   5.697  17.948  0.00  0.00    +0.000 N 
ATOM      4  H   UNL     1       4.453   6.162  17.558  0.00  0.00    +0.000 HD
ENDROOT
BRANCH   1  11
ATOM      5  C   UNL     1       1.243   7.112  20.977  0.00  0.00    +0.000 C 
ATOM      6  C   UNL     1       1.820   5.833  20.440  0.00  0.00    +0.000 A 
ATOM      7  C   UNL     1       1.024   4.698  20.358  0.00  0.00    +0.000 A 
ATOM      8  C   UNL     1       1.562   3.535  19.813  0.00  0.00    +0.000 A 
ATOM      9  C   UNL     1       2.881   3.524  19.351  0.00  0.00    +0.000 A 
ATOM     10 BR   UNL     1       3.493   1.883  18.628  0.00  0.00    +0.000 Br
ATOM     11  C   UNL     1       3.622   4.701  19.464  0.00  0.00    +0.000 A 
ATOM     12  N   UNL     1       3.108   5.857  20.006  0.00  0.00    +0.000 NA
ENDBRANCH   1  11
BRANCH   3  13
ATOM     13  C   UNL     1       6.609   5.971  17.445  0.00  0.00    +0.000 C 
BRANCH  13  14
ATOM     14  C   UNL     1       7.297   4.728  16.885  0.00  0.00    +0.000 C 
BRANCH  14  15
ATOM     15  C   UNL     1       7.039   4.584  15.433  0.00  0.00    +0.000 A 
ATOM     16  N   UNL     1       6.312   3.694  14.792  0.00  0.00    +0.000 NA
ATOM     17  C   UNL     1       6.474   4.080  13.484  0.00  0.00    +0.000 A 
ATOM     18  C   UNL     1       5.829   3.377  12.359  0.00  0.00    +0.000 C 
ATOM     19  N   UNL     1       7.251   5.156  13.305  0.00  0.00    +0.000 NA
ATOM     20  O   UNL     1       7.633   5.493  14.605  0.00  0.00    +0.000 OA
ENDBRANCH  14  15
ENDBRANCH  13  14
ENDBRANCH   3  13
TORSDOF 4
ENDMDL
MODEL 5
REMARK VINA RESULT:      -7.0      2.277      3.398
REMARK  Name = 
REMARK  6 active torsions:
REMARK  status: ('A' for Active; 'I' for Inactive)
REMARK    1  A    between atoms: C_1  and  C_2
REMARK    2  A    between atoms: C_7  and  C_8
REMARK    3  A    between atoms: N_10  and  C_11
REMARK    4  A    between atoms: C_11  and  C_12
REMARK    5  A    between atoms: C_12  and  C_13
REMARK    6  A    between atoms: C_15  and  C_16
REMARK                            x       y       z     vdW  Elec       q    Type
REMARK                         _______ _______ _______ _____ _____    ______ ____
ROOT
ATOM      1  C   UNL     1       5.192   4.391  19.226  0.00  0.00    +0.000 C 
ATOM      2  O   UNL     1       5.812   3.387  18.905  0.00  0.00    +0.000 OA
ATOM      3  N   UNL     1       5.835   5.612  19.352  0.00  0.00    +0.000 N 
ATOM      4  H   UNL     1       5.258   6.415  19.598  0.00  0.00    +0.000 HD
ENDROOT
BRANCH   1  11
ATOM      5  C   UNL     1       1.419   6.983  20.882  0.00  0.00    +0.000 C 
ATOM      6  C   UNL     1       1.924   5.676  20.341  0.00  0.00    +0.000 A 
ATOM      7  C   UNL     1       1.034   4.637  20.103  0.00  0.00    +0.000 A 
ATOM      8  C   UNL     1       1.513   3.449  19.557  0.00  0.00    +0.000 A 
ATOM      9  C   UNL     1       2.870   3.318  19.251  0.00  0.00    +0.000 A 
ATOM     10 BR   UNL     1       3.397   1.656  18.509  0.00  0.00    +0.000 Br
ATOM     11  C   UNL     1       3.708   4.404  19.516  0.00  0.00    +0.000 A 
ATOM     12  N   UNL     1       3.251   5.582  20.061  0.00  0.00    +0.000 NA
ENDBRANCH   1  11
BRANCH   3  13
ATOM     13  C   UNL     1       7.274   5.737  19.178  0.00  0.00    +0.000 C 
BRANCH  13  14
ATOM     14  C   UNL     1       7.653   6.563  17.950  0.00  0.00    +0.000 C 
BRANCH  14  15
ATOM     15  C   UNL     1       7.009   6.027  16.727  0.00  0.00    +0.000 A 
ATOM     16  N   UNL     1       7.329   4.980  15.998  0.00  0.00    +0.000 NA
ATOM     17  C   UNL     1       6.375   5.015  15.012  0.00  0.00    +0.000 A 
ATOM     18  C   UNL     1       6.307   4.014  13.930  0.00  0.00    +0.000 C 
ATOM     19  N   UNL     1       5.496   6.021  15.112  0.00  0.00    +0.000 NA
ATOM     20  O   UNL     1       5.919   6.701  16.256  0.00  0.00    +0.000 OA
ENDBRANCH  14  15
ENDBRANCH  13  14
ENDBRANCH   3  13
TORSDOF 4
ENDMDL
MODEL 6
REMARK VINA RESULT:      -6.9      2.073      3.166
REMARK  Name = 
REMARK  6 active torsions:
REMARK  status: ('A' for Active; 'I' for Inactive)
REMARK    1  A    between atoms: C_1  and  C_2
REMARK    2  A    between atoms: C_7  and  C_8
REMARK    3  A    between atoms: N_10  and  C_11
REMARK    4  A    between atoms: C_11  and  C_12
REMARK    5  A    between atoms: C_12  and  C_13
REMARK    6  A    between atoms: C_15  and  C_16
REMARK                            x       y       z     vdW  Elec       q    Type
REMARK                         _______ _______ _______ _____ _____    ______ ____
ROOT
ATOM      1  C   UNL     1       4.464   4.530  17.785  0.00  0.00    +0.000 C 
ATOM      2  O   UNL     1       4.150   4.162  16.662  0.00  0.00    +0.000 OA
ATOM      3  N   UNL     1       5.795   4.713  18.126  0.00  0.00    +0.000 N 
ATOM      4  H   UNL     1       5.989   5.046  19.070  0.00  0.00    +0.000 HD
ENDROOT
BRANCH   1  11
ATOM      5  C   UNL     1       2.133   2.765  21.677  0.00  0.00    +0.000 C 
ATOM      6  C   UNL     1       2.347   3.917  20.737  0.00  0.00    +0.000 A 
ATOM      7  C   UNL     1       1.690   5.120  20.959  0.00  0.00    +0.000 A 
ATOM      8  C   UNL     1       1.936   6.192  20.105  0.00  0.00    +0.000 A 
ATOM      9  C   UNL     1       2.840   6.049  19.048  0.00  0.00    +0.000 A 
ATOM     10 BR   UNL     1       3.092   7.581  17.961  0.00  0.00    +0.000 Br
ATOM     11  C   UNL     1       3.465   4.812  18.885  0.00  0.00    +0.000 A 
ATOM     12  N   UNL     1       3.227   3.742  19.717  0.00  0.00    +0.000 NA
ENDBRANCH   1  11
BRANCH   3  13
ATOM     13  C   UNL     1       6.869   4.409  17.194  0.00  0.00    +0.000 C 
BRANCH  13  14
ATOM     14  C   UNL     1       7.061   5.494  16.136  0.00  0.00    +0.000 C 
BRANCH  14  15
ATOM     15  C   UNL     1       6.948   4.933  14.769  0.00  0.00    +0.000 A 
ATOM     16  N   UNL     1       6.173   3.971  14.316  0.00  0.00    +0.000 NA
ATOM     17  C   UNL     1       6.536   3.911  12.993  0.00  0.00    +0.000 A 
ATOM     18  C   UNL     1       5.924   2.966  12.040  0.00  0.00    +0.000 C 
ATOM     19  N   UNL     1       7.479   4.788  12.626  0.00  0.00    +0.000 NA
ATOM     20  O   UNL     1       7.759   5.471  13.811  0.00  0.00    +0.000 OA
ENDBRANCH  14  15
ENDBRANCH  13  14
ENDBRANCH   3  13
TORSDOF 4
ENDMDL
MODEL 7
REMARK VINA RESULT:      -6.8      2.066      2.476
REMARK  Name = 
REMARK  6 active torsions:
REMARK  status: ('A' for Active; 'I' for Inactive)
REMARK    1  A    between atoms: C_1  and  C_2
REMARK    2  A    between atoms: C_7  and  C_8
REMARK    3  A    between atoms: N_10  and  C_11
REMARK    4  A    between atoms: C_11  and  C_12
REMARK    5  A    between atoms: C_12  and  C_13
REMARK    6  A    between atoms: C_15  and  C_16
REMARK                            x       y       z     vdW  Elec       q    Type
REMARK                         _______ _______ _______ _____ _____    ______ ____
ROOT
ATOM      1  C   UNL     1       4.829   4.196  18.728  0.00  0.00    +0.000 C 
ATOM      2  O   UNL     1       5.823   3.974  19.404  0.00  0.00    +0.000 OA
ATOM      3  N   UNL     1       4.924   4.340  17.353  0.00  0.00    +0.000 N 
ATOM      4  H   UNL     1       4.056   4.499  16.844  0.00  0.00    +0.000 HD
ENDROOT
BRANCH   1  11
ATOM      5  C   UNL     1       1.616   7.169  20.858  0.00  0.00    +0.000 C 
ATOM      6  C   UNL     1       1.930   5.791  20.348  0.00  0.00    +0.000 A 
ATOM      7  C   UNL     1       0.955   4.802  20.385  0.00  0.00    +0.000 A 
ATOM      8  C   UNL     1       1.249   3.545  19.865  0.00  0.00    +0.000 A 
ATOM      9  C   UNL     1       2.507   3.295  19.308  0.00  0.00    +0.000 A 
ATOM     10 BR   UNL     1       2.781   1.548  18.630  0.00  0.00    +0.000 Br
ATOM     11  C   UNL     1       3.437   4.336  19.303  0.00  0.00    +0.000 A 
ATOM     12  N   UNL     1       3.165   5.582  19.819  0.00  0.00    +0.000 NA
ENDBRANCH   1  11
BRANCH   3  13
ATOM     13  C   UNL     1       6.208   4.305  16.670  0.00  0.00    +0.000 C 
BRANCH  13  14
ATOM     14  C   UNL     1       6.566   5.637  16.014  0.00  0.00    +0.000 C 
BRANCH  14  15
ATOM     15  C   UNL     1       7.242   6.541  16.975  0.00  0.00    +0.000 A 
ATOM     16  N   UNL     1       7.453   7.838  16.905  0.00  0.00    +0.000 NA
ATOM     17  C   UNL     1       8.125   8.082  18.077  0.00  0.00    +0.000 A 
ATOM     18  C   UNL     1       8.582   9.429  18.470  0.00  0.00    +0.000 C 
ATOM     19  N   UNL     1       8.323   7.006  18.849  0.00  0.00    +0.000 NA
ATOM     20  O   UNL     1       7.737   5.973  18.114  0.00  0.00    +0.000 OA
ENDBRANCH  14  15
ENDBRANCH  13  14
ENDBRANCH   3  13
TORSDOF 4
ENDMDL
MODEL 8
REMARK VINA RESULT:      -6.8      2.021      2.871
REMARK  Name = 
REMARK  6 active torsions:
REMARK  status: ('A' for Active; 'I' for Inactive)
REMARK    1  A    between atoms: C_1  and  C_2
REMARK    2  A    between atoms: C_7  and  C_8
REMARK    3  A    between atoms: N_10  and  C_11
REMARK    4  A    between atoms: C_11  and  C_12
REMARK    5  A    between atoms: C_12  and  C_13
REMARK    6  A    between atoms: C_15  and  C_16
REMARK                            x       y       z     vdW  Elec       q    Type
REMARK                         _______ _______ _______ _____ _____    ______ ____
ROOT
ATOM      1  C   UNL     1       2.793   4.650  17.802  0.00  0.00    +0.000 C 
ATOM      2  O   UNL     1       2.076   3.681  17.593  0.00  0.00    +0.000 OA
ATOM      3  N   UNL     1       4.054   4.736  17.235  0.00  0.00    +0.000 N 
ATOM      4  H   UNL     1       4.591   5.580  17.427  0.00  0.00    +0.000 HD
ENDROOT
BRANCH   1  11
ATOM      5  C   UNL     1       1.966   9.443  18.015  0.00  0.00    +0.000 C 
ATOM      6  C   UNL     1       2.027   8.129  18.741  0.00  0.00    +0.000 A 
ATOM      7  C   UNL     1       1.675   8.066  20.083  0.00  0.00    +0.000 A 
ATOM      8  C   UNL     1       1.691   6.832  20.727  0.00  0.00    +0.000 A 
ATOM      9  C   UNL     1       2.050   5.680  20.022  0.00  0.00    +0.000 A 
ATOM     10 BR   UNL     1       2.029   4.063  21.010  0.00  0.00    +0.000 Br
ATOM     11  C   UNL     1       2.391   5.818  18.675  0.00  0.00    +0.000 A 
ATOM     12  N   UNL     1       2.386   7.031  18.026  0.00  0.00    +0.000 NA
ENDBRANCH   1  11
BRANCH   3  13
ATOM     13  C   UNL     1       4.604   3.654  16.433  0.00  0.00    +0.000 C 
BRANCH  13  14
ATOM     14  C   UNL     1       5.975   3.987  15.849  0.00  0.00    +0.000 C 
BRANCH  14  15
ATOM     15  C   UNL     1       6.564   5.174  16.513  0.00  0.00    +0.000 A 
ATOM     16  N   UNL     1       7.295   5.252  17.604  0.00  0.00    +0.000 NA
ATOM     17  C   UNL     1       7.519   6.603  17.702  0.00  0.00    +0.000 A 
ATOM     18  C   UNL     1       8.318   7.203  18.788  0.00  0.00    +0.000 C 
ATOM     19  N   UNL     1       6.970   7.339  16.727  0.00  0.00    +0.000 NA
ATOM     20  O   UNL     1       6.328   6.387  15.932  0.00  0.00    +0.000 OA
ENDBRANCH  14  15
ENDBRANCH  13  14
ENDBRANCH   3  13
TORSDOF 4
ENDMDL
MODEL 9
REMARK VINA RESULT:      -6.8      1.051      1.141
REMARK  Name = 
REMARK  6 active torsions:
REMARK  status: ('A' for Active; 'I' for Inactive)
REMARK    1  A    between atoms: C_1  and  C_2
REMARK    2  A    between atoms: C_7  and  C_8
REMARK    3  A    between atoms: N_10  and  C_11
REMARK    4  A    between atoms: C_11  and  C_12
REMARK    5  A    between atoms: C_12  and  C_13
REMARK    6  A    between atoms: C_15  and  C_16
REMARK                            x       y       z     vdW  Elec       q    Type
REMARK                         _______ _______ _______ _____ _____    ______ ____
ROOT
ATOM      1  C   UNL     1       3.171   3.642  17.249  0.00  0.00    +0.000 C 
ATOM      2  O   UNL     1       2.430   3.069  16.462  0.00  0.00    +0.000 OA
ATOM      3  N   UNL     1       4.516   3.811  16.962  0.00  0.00    +0.000 N 
ATOM      4  H   UNL     1       5.075   4.319  17.647  0.00  0.00    +0.000 HD
ENDROOT
BRANCH   1  11
ATOM      5  C   UNL     1       1.362   2.635  21.655  0.00  0.00    +0.000 C 
ATOM      6  C   UNL     1       1.819   3.679  20.676  0.00  0.00    +0.000 A 
ATOM      7  C   UNL     1       1.841   5.016  21.052  0.00  0.00    +0.000 A 
ATOM      8  C   UNL     1       2.313   5.963  20.148  0.00  0.00    +0.000 A 
ATOM      9  C   UNL     1       2.762   5.564  18.887  0.00  0.00    +0.000 A 
ATOM     10 BR   UNL     1       3.384   6.947  17.750  0.00  0.00    +0.000 Br
ATOM     11  C   UNL     1       2.712   4.203  18.576  0.00  0.00    +0.000 A 
ATOM     12  N   UNL     1       2.243   3.255  19.456  0.00  0.00    +0.000 NA
ENDBRANCH   1  11
BRANCH   3  13
ATOM     13  C   UNL     1       5.114   3.258  15.757  0.00  0.00    +0.000 C 
BRANCH  13  14
ATOM     14  C   UNL     1       6.209   4.150  15.176  0.00  0.00    +0.000 C 
BRANCH  14  15
ATOM     15  C   UNL     1       6.721   5.098  16.193  0.00  0.00    +0.000 A 
ATOM     16  N   UNL     1       7.259   4.861  17.369  0.00  0.00    +0.000 NA
ATOM     17  C   UNL     1       7.515   6.129  17.829  0.00  0.00    +0.000 A 
ATOM     18  C   UNL     1       8.140   6.393  19.138  0.00  0.00    +0.000 C 
ATOM     19  N   UNL     1       7.167   7.114  16.990  0.00  0.00    +0.000 NA
ATOM     20  O   UNL     1       6.633   6.428  15.897  0.00  0.00    +0.000 OA
ENDBRANCH  14  15
ENDBRANCH  13  14
ENDBRANCH   3  13
TORSDOF 4
ENDMDL
