MODEL 1
REMARK VINA RESULT:      -9.0      0.000      0.000
REMARK  Name = 
REMARK  2 active torsions:
REMARK  status: ('A' for Active; 'I' for Inactive)
REMARK    1  A    between atoms: C_5  and  C_6
REMARK    2  A    between atoms: C_15  and  C_16
REMARK                            x       y       z     vdW  Elec       q    Type
REMARK                         _______ _______ _______ _____ _____    ______ ____
ROOT
ATOM      1  O   UNL     1       0.071   2.627  19.352  0.00  0.00    +0.000 OA
ATOM      2  C   UNL     1       1.221   2.547  18.953  0.00  0.00    +0.000 A 
ATOM      3  N   UNL     1       1.805   1.430  18.369  0.00  0.00    +0.000 N 
ATOM      4  N   UNL     1       3.018   1.814  17.805  0.00  0.00    +0.000 N 
ATOM      5  C   UNL     1       3.295   3.086  18.299  0.00  0.00    +0.000 A 
ATOM      6  C   UNL     1       2.257   3.619  18.972  0.00  0.00    +0.000 A 
ATOM      7  H   UNL     1       1.220   0.732  17.923  0.00  0.00    +0.000 HD
ATOM      8  H   UNL     1       3.802   1.176  17.948  0.00  0.00    +0.000 HD
ENDROOT
BRANCH   5   9
ATOM      9  C   UNL     1       4.584   3.672  18.148  0.00  0.00    +0.000 A 
ATOM     10  C   UNL     1       5.438   3.929  19.198  0.00  0.00    +0.000 A 
ATOM     11  N   UNL     1       6.577   4.482  18.677  0.00  0.00    +0.000 N 
ATOM     12  C   UNL     1       6.484   4.572  17.306  0.00  0.00    +0.000 A 
ATOM     13  C   UNL     1       7.409   5.048  16.370  0.00  0.00    +0.000 A 
ATOM     14  C   UNL     1       7.036   5.030  15.023  0.00  0.00    +0.000 A 
ATOM     15  C   UNL     1       5.785   4.560  14.631  0.00  0.00    +0.000 A 
ATOM     16  C   UNL     1       4.872   4.083  15.579  0.00  0.00    +0.000 A 
ATOM     17  C   UNL     1       5.226   4.082  16.944  0.00  0.00    +0.000 A 
ATOM     18  H   UNL     1       7.377   4.786  19.216  0.00  0.00    +0.000 HD
ENDBRANCH   5   9
BRANCH   6  19
ATOM     19  C   UNL     1       2.128   4.872  19.613  0.00  0.00    +0.000 A 
ATOM     20  C   UNL     1       1.871   5.032  20.956  0.00  0.00    +0.000 A 
ATOM     21  N   UNL     1       1.759   6.374  21.199  0.00  0.00    +0.000 N 
ATOM     22  C   UNL     1       1.930   7.088  20.036  0.00  0.00    +0.000 A 
ATOM     23  C   UNL     1       1.876   8.469  19.810  0.00  0.00    +0.000 A 
ATOM     24  C   UNL     1       2.090   8.921  18.506  0.00  0.00    +0.000 A 
ATOM     25  C   UNL     1       2.354   8.028  17.470  0.00  0.00    +0.000 A 
ATOM     26  C   UNL     1       2.404   6.649  17.711  0.00  0.00    +0.000 A 
ATOM     27  C   UNL     1       2.182   6.165  19.018  0.00  0.00    +0.000 A 
ATOM     28  H   UNL     1       1.562   6.787  22.101  0.00  0.00    +0.000 HD
ENDBRANCH   6  19
TORSDOF 2
ENDMDL
MODEL 2
REMARK VINA RESULT:      -8.6      1.533      2.260
REMARK  Name = 
REMARK  2 active torsions:
REMARK  status: ('A' for Active; 'I' for Inactive)
REMARK    1  A    between atoms: C_5  and  C_6
REMARK    2  A    between atoms: C_15  and  C_16
REMARK                            x       y       z     vdW  Elec       q    Type
REMARK                         _______ _______ _______ _____ _____    ______ ____
ROOT
ATOM      1  O   UNL     1       1.920   1.812  19.435  0.00  0.00    +0.000 OA
ATOM      2  C   UNL     1       2.824   2.229  18.731  0.00  0.00    +0.000 A 
ATOM      3  N   UNL     1       3.608   1.465  17.874  0.00  0.00    +0.000 N 
ATOM      4  N   UNL     1       4.327   2.329  17.053  0.00  0.00    +0.000 N 
ATOM      5  C   UNL     1       4.195   3.600  17.608  0.00  0.00    +0.000 A 
ATOM      6  C   UNL     1       3.285   3.640  18.600  0.00  0.00    +0.000 A 
ATOM      7  H   UNL     1       3.254   0.584  17.521  0.00  0.00    +0.000 HD
ATOM      8  H   UNL     1       5.306   2.087  16.895  0.00  0.00    +0.000 HD
ENDROOT
BRANCH   5   9
ATOM      9  C   UNL     1       5.021   4.679  17.185  0.00  0.00    +0.000 A 
ATOM     10  C   UNL     1       4.895   5.309  15.966  0.00  0.00    +0.000 A 
ATOM     11  N   UNL     1       5.844   6.295  15.911  0.00  0.00    +0.000 N 
ATOM     12  C   UNL     1       6.572   6.326  17.080  0.00  0.00    +0.000 A 
ATOM     13  C   UNL     1       7.617   7.173  17.467  0.00  0.00    +0.000 A 
ATOM     14  C   UNL     1       8.187   6.964  18.727  0.00  0.00    +0.000 A 
ATOM     15  C   UNL     1       7.732   5.945  19.561  0.00  0.00    +0.000 A 
ATOM     16  C   UNL     1       6.683   5.109  19.160  0.00  0.00    +0.000 A 
ATOM     17  C   UNL     1       6.085   5.303  17.898  0.00  0.00    +0.000 A 
ATOM     18  H   UNL     1       5.997   6.915  15.127  0.00  0.00    +0.000 HD
ENDBRANCH   5   9
BRANCH   6  19
ATOM     19  C   UNL     1       2.856   4.721  19.403  0.00  0.00    +0.000 A 
ATOM     20  C   UNL     1       2.612   4.632  20.755  0.00  0.00    +0.000 A 
ATOM     21  N   UNL     1       2.161   5.853  21.177  0.00  0.00    +0.000 N 
ATOM     22  C   UNL     1       2.098   6.732  20.119  0.00  0.00    +0.000 A 
ATOM     23  C   UNL     1       1.677   8.066  20.081  0.00  0.00    +0.000 A 
ATOM     24  C   UNL     1       1.719   8.724  18.850  0.00  0.00    +0.000 A 
ATOM     25  C   UNL     1       2.172   8.074  17.703  0.00  0.00    +0.000 A 
ATOM     26  C   UNL     1       2.589   6.738  17.757  0.00  0.00    +0.000 A 
ATOM     27  C   UNL     1       2.548   6.048  18.987  0.00  0.00    +0.000 A 
ATOM     28  H   UNL     1       1.895   6.080  22.125  0.00  0.00    +0.000 HD
ENDBRANCH   6  19
TORSDOF 2
ENDMDL
MODEL 3
REMARK VINA RESULT:      -8.5      1.733      2.404
REMARK  Name = 
REMARK  2 active torsions:
REMARK  status: ('A' for Active; 'I' for Inactive)
REMARK    1  A    between atoms: C_5  and  C_6
REMARK    2  A    between atoms: C_15  and  C_16
REMARK                            x       y       z     vdW  Elec       q    Type
REMARK                         _______ _______ _______ _____ _____    ______ ____
ROOT
ATOM      1  O   UNL     1       1.015   2.995  18.902  0.00  0.00    +0.000 OA
ATOM      2  C   UNL     1       2.023   3.315  18.295  0.00  0.00    +0.000 A 
ATOM      3  N   UNL     1       2.730   2.511  17.409  0.00  0.00    +0.000 N 
ATOM      4  N   UNL     1       3.639   3.311  16.721  0.00  0.00    +0.000 N 
ATOM      5  C   UNL     1       3.678   4.530  17.396  0.00  0.00    +0.000 A 
ATOM      6  C   UNL     1       2.718   4.633  18.336  0.00  0.00    +0.000 A 
ATOM      7  H   UNL     1       2.263   1.739  16.948  0.00  0.00    +0.000 HD
ATOM      8  H   UNL     1       4.574   2.922  16.594  0.00  0.00    +0.000 HD
ENDROOT
BRANCH   5   9
ATOM      9  C   UNL     1       4.698   5.486  17.132  0.00  0.00    +0.000 A 
ATOM     10  C   UNL     1       4.694   6.331  16.045  0.00  0.00    +0.000 A 
ATOM     11  N   UNL     1       5.818   7.110  16.123  0.00  0.00    +0.000 N 
ATOM     12  C   UNL     1       6.541   6.797  17.252  0.00  0.00    +0.000 A 
ATOM     13  C   UNL     1       7.732   7.347  17.739  0.00  0.00    +0.000 A 
ATOM     14  C   UNL     1       8.253   6.817  18.923  0.00  0.00    +0.000 A 
ATOM     15  C   UNL     1       7.611   5.776  19.589  0.00  0.00    +0.000 A 
ATOM     16  C   UNL     1       6.417   5.239  19.091  0.00  0.00    +0.000 A 
ATOM     17  C   UNL     1       5.865   5.761  17.902  0.00  0.00    +0.000 A 
ATOM     18  H   UNL     1       6.086   7.816  15.451  0.00  0.00    +0.000 HD
ENDBRANCH   5   9
BRANCH   6  19
ATOM     19  C   UNL     1       2.415   5.692  19.220  0.00  0.00    +0.000 A 
ATOM     20  C   UNL     1       2.316   5.555  20.587  0.00  0.00    +0.000 A 
ATOM     21  N   UNL     1       1.956   6.772  21.101  0.00  0.00    +0.000 N 
ATOM     22  C   UNL     1       1.810   7.695  20.090  0.00  0.00    +0.000 A 
ATOM     23  C   UNL     1       1.434   9.041  20.149  0.00  0.00    +0.000 A 
ATOM     24  C   UNL     1       1.365   9.748  18.945  0.00  0.00    +0.000 A 
ATOM     25  C   UNL     1       1.669   9.132  17.732  0.00  0.00    +0.000 A 
ATOM     26  C   UNL     1       2.043   7.783  17.691  0.00  0.00    +0.000 A 
ATOM     27  C   UNL     1       2.110   7.044  18.891  0.00  0.00    +0.000 A 
ATOM     28  H   UNL     1       1.802   6.967  22.081  0.00  0.00    +0.000 HD
ENDBRANCH   6  19
TORSDOF 2
ENDMDL
MODEL 4
REMARK VINA RESULT:      -8.5      1.087      4.745
REMARK  Name = 
REMARK  2 active torsions:
REMARK  status: ('A' for Active; 'I' for Inactive)
REMARK    1  A    between atoms: C_5  and  C_6
REMARK    2  A    between atoms: C_15  and  C_16
REMARK                            x       y       z     vdW  Elec       q    Type
REMARK                         _______ _______ _______ _____ _____    ______ ____
ROOT
ATOM      1  O   UNL     1       3.872   0.954  18.138  0.00  0.00    +0.000 OA
ATOM      2  C   UNL     1       3.117   1.814  18.560  0.00  0.00    +0.000 A 
ATOM      3  N   UNL     1       1.767   1.646  18.843  0.00  0.00    +0.000 N 
ATOM      4  N   UNL     1       1.327   2.759  19.554  0.00  0.00    +0.000 N 
ATOM      5  C   UNL     1       2.332   3.717  19.446  0.00  0.00    +0.000 A 
ATOM      6  C   UNL     1       3.458   3.227  18.893  0.00  0.00    +0.000 A 
ATOM      7  H   UNL     1       1.408   0.721  19.047  0.00  0.00    +0.000 HD
ATOM      8  H   UNL     1       0.418   3.135  19.282  0.00  0.00    +0.000 HD
ENDROOT
BRANCH   5   9
ATOM      9  C   UNL     1       2.104   5.071  19.822  0.00  0.00    +0.000 A 
ATOM     10  C   UNL     1       1.698   5.460  21.079  0.00  0.00    +0.000 A 
ATOM     11  N   UNL     1       1.591   6.825  21.074  0.00  0.00    +0.000 N 
ATOM     12  C   UNL     1       1.937   7.329  19.840  0.00  0.00    +0.000 A 
ATOM     13  C   UNL     1       1.992   8.654  19.392  0.00  0.00    +0.000 A 
ATOM     14  C   UNL     1       2.372   8.874  18.065  0.00  0.00    +0.000 A 
ATOM     15  C   UNL     1       2.679   7.810  17.220  0.00  0.00    +0.000 A 
ATOM     16  C   UNL     1       2.623   6.490  17.685  0.00  0.00    +0.000 A 
ATOM     17  C   UNL     1       2.250   6.240  19.022  0.00  0.00    +0.000 A 
ATOM     18  H   UNL     1       1.298   7.390  21.860  0.00  0.00    +0.000 HD
ENDBRANCH   5   9
BRANCH   6  19
ATOM     19  C   UNL     1       4.691   3.859  18.618  0.00  0.00    +0.000 A 
ATOM     20  C   UNL     1       5.542   4.349  19.583  0.00  0.00    +0.000 A 
ATOM     21  N   UNL     1       6.600   4.938  18.944  0.00  0.00    +0.000 N 
ATOM     22  C   UNL     1       6.446   4.847  17.579  0.00  0.00    +0.000 A 
ATOM     23  C   UNL     1       7.261   5.326  16.548  0.00  0.00    +0.000 A 
ATOM     24  C   UNL     1       6.851   5.088  15.234  0.00  0.00    +0.000 A 
ATOM     25  C   UNL     1       5.674   4.391  14.964  0.00  0.00    +0.000 A 
ATOM     26  C   UNL     1       4.868   3.919  16.007  0.00  0.00    +0.000 A 
ATOM     27  C   UNL     1       5.255   4.155  17.344  0.00  0.00    +0.000 A 
ATOM     28  H   UNL     1       7.378   5.391  19.403  0.00  0.00    +0.000 HD
ENDBRANCH   6  19
TORSDOF 2
ENDMDL
MODEL 5
REMARK VINA RESULT:      -8.4      1.807      5.687
REMARK  Name = 
REMARK  2 active torsions:
REMARK  status: ('A' for Active; 'I' for Inactive)
REMARK    1  A    between atoms: C_5  and  C_6
REMARK    2  A    between atoms: C_15  and  C_16
REMARK                            x       y       z     vdW  Elec       q    Type
REMARK                         _______ _______ _______ _____ _____    ______ ____
ROOT
ATOM      1  O   UNL     1       4.814   2.128  20.119  0.00  0.00    +0.000 OA
ATOM      2  C   UNL     1       4.010   3.037  20.001  0.00  0.00    +0.000 A 
ATOM      3  N   UNL     1       2.697   3.028  20.455  0.00  0.00    +0.000 N 
ATOM      4  N   UNL     1       2.199   4.326  20.382  0.00  0.00    +0.000 N 
ATOM      5  C   UNL     1       3.109   5.053  19.618  0.00  0.00    +0.000 A 
ATOM      6  C   UNL     1       4.243   4.368  19.371  0.00  0.00    +0.000 A 
ATOM      7  H   UNL     1       2.431   2.410  21.213  0.00  0.00    +0.000 HD
ATOM      8  H   UNL     1       1.247   4.423  20.025  0.00  0.00    +0.000 HD
ENDROOT
BRANCH   5   9
ATOM      9  C   UNL     1       2.783   6.343  19.112  0.00  0.00    +0.000 A 
ATOM     10  C   UNL     1       3.133   6.785  17.856  0.00  0.00    +0.000 A 
ATOM     11  N   UNL     1       2.649   8.059  17.716  0.00  0.00    +0.000 N 
ATOM     12  C   UNL     1       1.976   8.443  18.855  0.00  0.00    +0.000 A 
ATOM     13  C   UNL     1       1.309   9.639  19.146  0.00  0.00    +0.000 A 
ATOM     14  C   UNL     1       0.715   9.759  20.405  0.00  0.00    +0.000 A 
ATOM     15  C   UNL     1       0.791   8.726  21.337  0.00  0.00    +0.000 A 
ATOM     16  C   UNL     1       1.458   7.534  21.029  0.00  0.00    +0.000 A 
ATOM     17  C   UNL     1       2.059   7.383  19.762  0.00  0.00    +0.000 A 
ATOM     18  H   UNL     1       2.766   8.641  16.899  0.00  0.00    +0.000 HD
ENDBRANCH   5   9
BRANCH   6  19
ATOM     19  C   UNL     1       5.399   4.744  18.652  0.00  0.00    +0.000 A 
ATOM     20  C   UNL     1       6.484   5.383  19.210  0.00  0.00    +0.000 A 
ATOM     21  N   UNL     1       7.379   5.635  18.205  0.00  0.00    +0.000 N 
ATOM     22  C   UNL     1       6.890   5.179  17.002  0.00  0.00    +0.000 A 
ATOM     23  C   UNL     1       7.449   5.243  15.721  0.00  0.00    +0.000 A 
ATOM     24  C   UNL     1       6.717   4.691  14.666  0.00  0.00    +0.000 A 
ATOM     25  C   UNL     1       5.478   4.091  14.888  0.00  0.00    +0.000 A 
ATOM     26  C   UNL     1       4.932   4.036  16.176  0.00  0.00    +0.000 A 
ATOM     27  C   UNL     1       5.646   4.595  17.257  0.00  0.00    +0.000 A 
ATOM     28  H   UNL     1       8.267   6.104  18.321  0.00  0.00    +0.000 HD
ENDBRANCH   6  19
TORSDOF 2
ENDMDL
MODEL 6
REMARK VINA RESULT:      -8.2      1.696      2.070
REMARK  Name = 
REMARK  2 active torsions:
REMARK  status: ('A' for Active; 'I' for Inactive)
REMARK    1  A    between atoms: C_5  and  C_6
REMARK    2  A    between atoms: C_15  and  C_16
REMARK                            x       y       z     vdW  Elec       q    Type
REMARK                         _______ _______ _______ _____ _____    ______ ____
ROOT
ATOM      1  O   UNL     1       0.982   3.556  17.627  0.00  0.00    +0.000 OA
ATOM      2  C   UNL     1       2.201   3.577  17.676  0.00  0.00    +0.000 A 
ATOM      3  N   UNL     1       3.056   2.664  17.072  0.00  0.00    +0.000 N 
ATOM      4  N   UNL     1       4.350   3.175  17.124  0.00  0.00    +0.000 N 
ATOM      5  C   UNL     1       4.312   4.250  18.010  0.00  0.00    +0.000 A 
ATOM      6  C   UNL     1       3.056   4.583  18.367  0.00  0.00    +0.000 A 
ATOM      7  H   UNL     1       2.738   2.131  16.271  0.00  0.00    +0.000 HD
ATOM      8  H   UNL     1       5.086   2.512  17.370  0.00  0.00    +0.000 HD
ENDROOT
BRANCH   5   9
ATOM      9  C   UNL     1       5.508   4.836  18.511  0.00  0.00    +0.000 A 
ATOM     10  C   UNL     1       6.244   4.309  19.550  0.00  0.00    +0.000 A 
ATOM     11  N   UNL     1       7.323   5.128  19.749  0.00  0.00    +0.000 N 
ATOM     12  C   UNL     1       7.309   6.167  18.845  0.00  0.00    +0.000 A 
ATOM     13  C   UNL     1       8.216   7.219  18.670  0.00  0.00    +0.000 A 
ATOM     14  C   UNL     1       7.940   8.152  17.666  0.00  0.00    +0.000 A 
ATOM     15  C   UNL     1       6.799   8.038  16.874  0.00  0.00    +0.000 A 
ATOM     16  C   UNL     1       5.904   6.977  17.059  0.00  0.00    +0.000 A 
ATOM     17  C   UNL     1       6.163   6.018  18.060  0.00  0.00    +0.000 A 
ATOM     18  H   UNL     1       8.032   4.997  20.457  0.00  0.00    +0.000 HD
ENDBRANCH   5   9
BRANCH   6  19
ATOM     19  C   UNL     1       2.591   5.603  19.227  0.00  0.00    +0.000 A 
ATOM     20  C   UNL     1       2.286   5.416  20.556  0.00  0.00    +0.000 A 
ATOM     21  N   UNL     1       1.817   6.605  21.046  0.00  0.00    +0.000 N 
ATOM     22  C   UNL     1       1.803   7.559  20.055  0.00  0.00    +0.000 A 
ATOM     23  C   UNL     1       1.384   8.894  20.096  0.00  0.00    +0.000 A 
ATOM     24  C   UNL     1       1.482   9.641  18.920  0.00  0.00    +0.000 A 
ATOM     25  C   UNL     1       1.987   9.076  17.750  0.00  0.00    +0.000 A 
ATOM     26  C   UNL     1       2.401   7.738  17.724  0.00  0.00    +0.000 A 
ATOM     27  C   UNL     1       2.303   6.959  18.896  0.00  0.00    +0.000 A 
ATOM     28  H   UNL     1       1.508   6.761  21.996  0.00  0.00    +0.000 HD
ENDBRANCH   6  19
TORSDOF 2
ENDMDL
MODEL 7
REMARK VINA RESULT:      -8.0      1.570      2.203
REMARK  Name = 
REMARK  2 active torsions:
REMARK  status: ('A' for Active; 'I' for Inactive)
REMARK    1  A    between atoms: C_5  and  C_6
REMARK    2  A    between atoms: C_15  and  C_16
REMARK                            x       y       z     vdW  Elec       q    Type
REMARK                         _______ _______ _______ _____ _____    ______ ____
ROOT
ATOM      1  O   UNL     1       0.949   4.205  20.719  0.00  0.00    +0.000 OA
ATOM      2  C   UNL     1       2.108   4.037  20.379  0.00  0.00    +0.000 A 
ATOM      3  N   UNL     1       2.908   2.954  20.723  0.00  0.00    +0.000 N 
ATOM      4  N   UNL     1       4.051   2.985  19.929  0.00  0.00    +0.000 N 
ATOM      5  C   UNL     1       4.071   4.238  19.319  0.00  0.00    +0.000 A 
ATOM      6  C   UNL     1       2.928   4.925  19.508  0.00  0.00    +0.000 A 
ATOM      7  H   UNL     1       2.478   2.074  20.984  0.00  0.00    +0.000 HD
ATOM      8  H   UNL     1       4.933   2.784  20.402  0.00  0.00    +0.000 HD
ENDROOT
BRANCH   5   9
ATOM      9  C   UNL     1       5.235   4.716  18.654  0.00  0.00    +0.000 A 
ATOM     10  C   UNL     1       6.270   5.367  19.290  0.00  0.00    +0.000 A 
ATOM     11  N   UNL     1       7.212   5.669  18.343  0.00  0.00    +0.000 N 
ATOM     12  C   UNL     1       6.814   5.209  17.107  0.00  0.00    +0.000 A 
ATOM     13  C   UNL     1       7.466   5.276  15.870  0.00  0.00    +0.000 A 
ATOM     14  C   UNL     1       6.811   4.727  14.763  0.00  0.00    +0.000 A 
ATOM     15  C   UNL     1       5.554   4.141  14.890  0.00  0.00    +0.000 A 
ATOM     16  C   UNL     1       4.918   4.078  16.136  0.00  0.00    +0.000 A 
ATOM     17  C   UNL     1       5.559   4.616  17.271  0.00  0.00    +0.000 A 
ATOM     18  H   UNL     1       8.078   6.160  18.518  0.00  0.00    +0.000 HD
ENDBRANCH   5   9
BRANCH   6  19
ATOM     19  C   UNL     1       2.548   6.209  19.057  0.00  0.00    +0.000 A 
ATOM     20  C   UNL     1       2.747   6.669  17.774  0.00  0.00    +0.000 A 
ATOM     21  N   UNL     1       2.308   7.964  17.725  0.00  0.00    +0.000 N 
ATOM     22  C   UNL     1       1.835   8.357  18.956  0.00  0.00    +0.000 A 
ATOM     23  C   UNL     1       1.316   9.589  19.370  0.00  0.00    +0.000 A 
ATOM     24  C   UNL     1       0.908   9.706  20.701  0.00  0.00    +0.000 A 
ATOM     25  C   UNL     1       1.008   8.630  21.581  0.00  0.00    +0.000 A 
ATOM     26  C   UNL     1       1.531   7.403  21.151  0.00  0.00    +0.000 A 
ATOM     27  C   UNL     1       1.959   7.261  19.815  0.00  0.00    +0.000 A 
ATOM     28  H   UNL     1       2.338   8.558  16.907  0.00  0.00    +0.000 HD
ENDBRANCH   6  19
TORSDOF 2
ENDMDL
MODEL 8
REMARK VINA RESULT:      -7.6      9.730     12.446
REMARK  Name = 
REMARK  2 active torsions:
REMARK  status: ('A' for Active; 'I' for Inactive)
REMARK    1  A    between atoms: C_5  and  C_6
REMARK    2  A    between atoms: C_15  and  C_16
REMARK                            x       y       z     vdW  Elec       q    Type
REMARK                         _______ _______ _______ _____ _____    ______ ____
ROOT
ATOM      1  O   UNL     1      12.323  13.910  16.827  0.00  0.00    +0.000 OA
ATOM      2  C   UNL     1      11.471  14.774  16.943  0.00  0.00    +0.000 A 
ATOM      3  N   UNL     1      11.357  15.916  16.159  0.00  0.00    +0.000 N 
ATOM      4  N   UNL     1      10.119  16.500  16.414  0.00  0.00    +0.000 N 
ATOM      5  C   UNL     1       9.619  15.876  17.555  0.00  0.00    +0.000 A 
ATOM      6  C   UNL     1      10.349  14.806  17.924  0.00  0.00    +0.000 A 
ATOM      7  H   UNL     1      11.757  15.928  15.228  0.00  0.00    +0.000 HD
ATOM      8  H   UNL     1      10.113  17.517  16.509  0.00  0.00    +0.000 HD
ENDROOT
BRANCH   5   9
ATOM      9  C   UNL     1       8.501  16.410  18.257  0.00  0.00    +0.000 A 
ATOM     10  C   UNL     1       8.553  17.550  19.028  0.00  0.00    +0.000 A 
ATOM     11  N   UNL     1       7.299  17.761  19.538  0.00  0.00    +0.000 N 
ATOM     12  C   UNL     1       6.432  16.786  19.096  0.00  0.00    +0.000 A 
ATOM     13  C   UNL     1       5.065  16.619  19.345  0.00  0.00    +0.000 A 
ATOM     14  C   UNL     1       4.431  15.515  18.766  0.00  0.00    +0.000 A 
ATOM     15  C   UNL     1       5.140  14.614  17.975  0.00  0.00    +0.000 A 
ATOM     16  C   UNL     1       6.507  14.798  17.732  0.00  0.00    +0.000 A 
ATOM     17  C   UNL     1       7.169  15.908  18.297  0.00  0.00    +0.000 A 
ATOM     18  H   UNL     1       7.040  18.519  20.153  0.00  0.00    +0.000 HD
ENDBRANCH   5   9
BRANCH   6  19
ATOM     19  C   UNL     1      10.177  13.910  19.002  0.00  0.00    +0.000 A 
ATOM     20  C   UNL     1      10.473  14.211  20.313  0.00  0.00    +0.000 A 
ATOM     21  N   UNL     1      10.234  13.089  21.060  0.00  0.00    +0.000 N 
ATOM     22  C   UNL     1       9.798  12.061  20.255  0.00  0.00    +0.000 A 
ATOM     23  C   UNL     1       9.461  10.743  20.582  0.00  0.00    +0.000 A 
ATOM     24  C   UNL     1       9.045   9.904  19.545  0.00  0.00    +0.000 A 
ATOM     25  C   UNL     1       8.962  10.370  18.234  0.00  0.00    +0.000 A 
ATOM     26  C   UNL     1       9.303  11.692  17.923  0.00  0.00    +0.000 A 
ATOM     27  C   UNL     1       9.736  12.557  18.950  0.00  0.00    +0.000 A 
ATOM     28  H   UNL     1      10.372  13.015  22.059  0.00  0.00    +0.000 HD
ENDBRANCH   6  19
TORSDOF 2
ENDMDL
MODEL 9
REMARK VINA RESULT:      -7.5      3.127      5.605
REMARK  Name = 
REMARK  2 active torsions:
REMARK  status: ('A' for Active; 'I' for Inactive)
REMARK    1  A    between atoms: C_5  and  C_6
REMARK    2  A    between atoms: C_15  and  C_16
REMARK                            x       y       z     vdW  Elec       q    Type
REMARK                         _______ _______ _______ _____ _____    ______ ____
ROOT
ATOM      1  O   UNL     1       7.740   5.258  14.561  0.00  0.00    +0.000 OA
ATOM      2  C   UNL     1       6.677   4.941  15.068  0.00  0.00    +0.000 A 
ATOM      3  N   UNL     1       5.558   4.474  14.390  0.00  0.00    +0.000 N 
ATOM      4  N   UNL     1       4.660   3.965  15.325  0.00  0.00    +0.000 N 
ATOM      5  C   UNL     1       5.111   4.390  16.573  0.00  0.00    +0.000 A 
ATOM      6  C   UNL     1       6.332   4.956  16.518  0.00  0.00    +0.000 A 
ATOM      7  H   UNL     1       5.667   4.038  13.481  0.00  0.00    +0.000 HD
ATOM      8  H   UNL     1       3.678   4.203  15.179  0.00  0.00    +0.000 HD
ENDROOT
BRANCH   5   9
ATOM      9  C   UNL     1       4.288   4.284  17.729  0.00  0.00    +0.000 A 
ATOM     10  C   UNL     1       4.100   3.114  18.432  0.00  0.00    +0.000 A 
ATOM     11  N   UNL     1       3.261   3.391  19.478  0.00  0.00    +0.000 N 
ATOM     12  C   UNL     1       2.915   4.725  19.475  0.00  0.00    +0.000 A 
ATOM     13  C   UNL     1       2.104   5.446  20.359  0.00  0.00    +0.000 A 
ATOM     14  C   UNL     1       1.916   6.807  20.102  0.00  0.00    +0.000 A 
ATOM     15  C   UNL     1       2.511   7.418  19.001  0.00  0.00    +0.000 A 
ATOM     16  C   UNL     1       3.324   6.684  18.128  0.00  0.00    +0.000 A 
ATOM     17  C   UNL     1       3.537   5.311  18.370  0.00  0.00    +0.000 A 
ATOM     18  H   UNL     1       2.935   2.719  20.159  0.00  0.00    +0.000 HD
ENDBRANCH   5   9
BRANCH   6  19
ATOM     19  C   UNL     1       7.134   5.500  17.546  0.00  0.00    +0.000 A 
ATOM     20  C   UNL     1       7.622   4.777  18.612  0.00  0.00    +0.000 A 
ATOM     21  N   UNL     1       8.301   5.644  19.425  0.00  0.00    +0.000 N 
ATOM     22  C   UNL     1       8.255   6.920  18.910  0.00  0.00    +0.000 A 
ATOM     23  C   UNL     1       8.786   8.113  19.413  0.00  0.00    +0.000 A 
ATOM     24  C   UNL     1       8.580   9.278  18.669  0.00  0.00    +0.000 A 
ATOM     25  C   UNL     1       7.877   9.247  17.466  0.00  0.00    +0.000 A 
ATOM     26  C   UNL     1       7.351   8.045  16.977  0.00  0.00    +0.000 A 
ATOM     27  C   UNL     1       7.536   6.856  17.713  0.00  0.00    +0.000 A 
ATOM     28  H   UNL     1       8.761   5.392  20.289  0.00  0.00    +0.000 HD
ENDBRANCH   6  19
TORSDOF 2
ENDMDL
