MODEL 1
REMARK VINA RESULT:      -9.0      0.000      0.000
REMARK  Name = 
REMARK  3 active torsions:
REMARK  status: ('A' for Active; 'I' for Inactive)
REMARK    1  A    between atoms: C_2  and  C_14
REMARK    2  A    between atoms: N_3  and  C_4
REMARK    3  A    between atoms: C_17  and  C_18
REMARK                            x       y       z     vdW  Elec       q    Type
REMARK                         _______ _______ _______ _____ _____    ______ ____
ROOT
ATOM      1  C   UNL     1       1.423   8.531  20.433  0.00  0.00    +0.000 A 
ATOM      2  N   UNL     1       1.400   9.821  20.174  0.00  0.00    +0.000 NA
ATOM      3  C   UNL     1       0.557  10.385  21.124  0.00  0.00    +0.000 A 
ATOM      4  C   UNL     1       0.117  11.725  21.288  0.00  0.00    +0.000 A 
ATOM      5  C   UNL     1      -0.761  11.975  22.372  0.00  0.00    +0.000 A 
ATOM      6  C   UNL     1      -1.173  10.970  23.248  0.00  0.00    +0.000 A 
ATOM      7  C   UNL     1      -0.743   9.655  23.084  0.00  0.00    +0.000 A 
ATOM      8  C   UNL     1       0.112   9.406  22.009  0.00  0.00    +0.000 A 
ATOM      9  N   UNL     1       0.687   8.248  21.558  0.00  0.00    +0.000 N 
ATOM     10  H   UNL     1       0.571   7.321  21.940  0.00  0.00    +0.000 HD
ENDROOT
BRANCH   4  11
ATOM     11  C   UNL     1       0.578  12.793  20.375  0.00  0.00    +0.000 A 
ATOM     12  C   UNL     1       1.913  13.238  20.364  0.00  0.00    +0.000 A 
ATOM     13  C   UNL     1       2.327  14.295  19.553  0.00  0.00    +0.000 A 
ATOM     14  C   UNL     1       1.422  14.906  18.694  0.00  0.00    +0.000 A 
ATOM     15  C   UNL     1       0.105  14.461  18.649  0.00  0.00    +0.000 A 
ATOM     16  C   UNL     1      -0.312  13.422  19.484  0.00  0.00    +0.000 A 
ENDBRANCH   4  11
BRANCH   1  18
ATOM     17  O   UNL     1       2.621   7.769  18.584  0.00  0.00    +0.000 OA
ATOM     18  C   UNL     1       2.083   7.505  19.655  0.00  0.00    +0.000 C 
ATOM     19  N   UNL     1       2.063   6.231  20.202  0.00  0.00    +0.000 N 
ATOM     20  H   UNL     1       1.543   6.142  21.069  0.00  0.00    +0.000 HD
BRANCH  19  21
ATOM     21  C   UNL     1       2.635   5.046  19.552  0.00  0.00    +0.000 C 
ATOM     22  C   UNL     1       4.181   5.142  19.443  0.00  0.00    +0.000 C 
ATOM     23  C   UNL     1       4.760   3.893  18.754  0.00  0.00    +0.000 C 
ATOM     24  C   UNL     1       4.408   2.646  19.579  0.00  0.00    +0.000 C 
ATOM     25  C   UNL     1       2.881   2.510  19.693  0.00  0.00    +0.000 C 
ATOM     26  C   UNL     1       2.279   2.373  18.284  0.00  0.00    +0.000 C 
ATOM     27  C   UNL     1       2.622   3.613  17.448  0.00  0.00    +0.000 C 
ATOM     28  C   UNL     1       4.150   3.757  17.350  0.00  0.00    +0.000 C 
ATOM     29  C   UNL     1       2.039   4.860  18.131  0.00  0.00    +0.000 C 
ATOM     30  C   UNL     1       2.305   3.770  20.375  0.00  0.00    +0.000 C 
ENDBRANCH  19  21
ENDBRANCH   1  18
TORSDOF 3
ENDMDL
MODEL 2
REMARK VINA RESULT:      -8.9      0.031      1.418
REMARK  Name = 
REMARK  3 active torsions:
REMARK  status: ('A' for Active; 'I' for Inactive)
REMARK    1  A    between atoms: C_2  and  C_14
REMARK    2  A    between atoms: N_3  and  C_4
REMARK    3  A    between atoms: C_17  and  C_18
REMARK                            x       y       z     vdW  Elec       q    Type
REMARK                         _______ _______ _______ _____ _____    ______ ____
ROOT
ATOM      1  C   UNL     1       1.421   8.529  20.437  0.00  0.00    +0.000 A 
ATOM      2  N   UNL     1       1.402   9.820  20.179  0.00  0.00    +0.000 NA
ATOM      3  C   UNL     1       0.562  10.386  21.129  0.00  0.00    +0.000 A 
ATOM      4  C   UNL     1       0.126  11.728  21.295  0.00  0.00    +0.000 A 
ATOM      5  C   UNL     1      -0.752  11.979  22.378  0.00  0.00    +0.000 A 
ATOM      6  C   UNL     1      -1.167  10.975  23.254  0.00  0.00    +0.000 A 
ATOM      7  C   UNL     1      -0.740   9.659  23.089  0.00  0.00    +0.000 A 
ATOM      8  C   UNL     1       0.113   9.408  22.014  0.00  0.00    +0.000 A 
ATOM      9  N   UNL     1       0.684   8.248  21.562  0.00  0.00    +0.000 N 
ATOM     10  H   UNL     1       0.566   7.322  21.944  0.00  0.00    +0.000 HD
ENDROOT
BRANCH   4  11
ATOM     11  C   UNL     1       0.590  12.794  20.382  0.00  0.00    +0.000 A 
ATOM     12  C   UNL     1       1.928  13.227  20.362  0.00  0.00    +0.000 A 
ATOM     13  C   UNL     1       2.346  14.284  19.553  0.00  0.00    +0.000 A 
ATOM     14  C   UNL     1       1.440  14.905  18.702  0.00  0.00    +0.000 A 
ATOM     15  C   UNL     1       0.120  14.472  18.664  0.00  0.00    +0.000 A 
ATOM     16  C   UNL     1      -0.301  13.434  19.499  0.00  0.00    +0.000 A 
ENDBRANCH   4  11
BRANCH   1  18
ATOM     17  O   UNL     1       2.618   7.765  18.588  0.00  0.00    +0.000 OA
ATOM     18  C   UNL     1       2.078   7.502  19.659  0.00  0.00    +0.000 C 
ATOM     19  N   UNL     1       2.052   6.227  20.204  0.00  0.00    +0.000 N 
ATOM     20  H   UNL     1       1.531   6.139  21.070  0.00  0.00    +0.000 HD
BRANCH  19  21
ATOM     21  C   UNL     1       2.620   5.041  19.552  0.00  0.00    +0.000 C 
ATOM     22  C   UNL     1       2.084   4.869  18.106  0.00  0.00    +0.000 C 
ATOM     23  C   UNL     1       2.688   3.617  17.443  0.00  0.00    +0.000 C 
ATOM     24  C   UNL     1       4.215   3.761  17.380  0.00  0.00    +0.000 C 
ATOM     25  C   UNL     1       4.784   3.917  18.799  0.00  0.00    +0.000 C 
ATOM     26  C   UNL     1       4.425   2.671  19.627  0.00  0.00    +0.000 C 
ATOM     27  C   UNL     1       2.900   2.515  19.700  0.00  0.00    +0.000 C 
ATOM     28  C   UNL     1       2.331   2.377  18.278  0.00  0.00    +0.000 C 
ATOM     29  C   UNL     1       2.297   3.761  20.367  0.00  0.00    +0.000 C 
ATOM     30  C   UNL     1       4.166   5.167  19.463  0.00  0.00    +0.000 C 
ENDBRANCH  19  21
ENDBRANCH   1  18
TORSDOF 3
ENDMDL
MODEL 3
REMARK VINA RESULT:      -8.9      0.041      1.429
REMARK  Name = 
REMARK  3 active torsions:
REMARK  status: ('A' for Active; 'I' for Inactive)
REMARK    1  A    between atoms: C_2  and  C_14
REMARK    2  A    between atoms: N_3  and  C_4
REMARK    3  A    between atoms: C_17  and  C_18
REMARK                            x       y       z     vdW  Elec       q    Type
REMARK                         _______ _______ _______ _____ _____    ______ ____
ROOT
ATOM      1  C   UNL     1       1.409   8.522  20.450  0.00  0.00    +0.000 A 
ATOM      2  N   UNL     1       1.386   9.811  20.183  0.00  0.00    +0.000 NA
ATOM      3  C   UNL     1       0.546  10.381  21.132  0.00  0.00    +0.000 A 
ATOM      4  C   UNL     1       0.107  11.722  21.289  0.00  0.00    +0.000 A 
ATOM      5  C   UNL     1      -0.769  11.979  22.373  0.00  0.00    +0.000 A 
ATOM      6  C   UNL     1      -1.179  10.979  23.257  0.00  0.00    +0.000 A 
ATOM      7  C   UNL     1      -0.749   9.663  23.099  0.00  0.00    +0.000 A 
ATOM      8  C   UNL     1       0.103   9.408  22.024  0.00  0.00    +0.000 A 
ATOM      9  N   UNL     1       0.676   8.247  21.579  0.00  0.00    +0.000 N 
ATOM     10  H   UNL     1       0.561   7.322  21.967  0.00  0.00    +0.000 HD
ENDROOT
BRANCH   4  11
ATOM     11  C   UNL     1       0.566  12.784  20.368  0.00  0.00    +0.000 A 
ATOM     12  C   UNL     1       1.885  13.272  20.392  0.00  0.00    +0.000 A 
ATOM     13  C   UNL     1       2.293  14.324  19.572  0.00  0.00    +0.000 A 
ATOM     14  C   UNL     1       1.401  14.885  18.668  0.00  0.00    +0.000 A 
ATOM     15  C   UNL     1       0.101  14.397  18.587  0.00  0.00    +0.000 A 
ATOM     16  C   UNL     1      -0.312  13.364  19.432  0.00  0.00    +0.000 A 
ENDBRANCH   4  11
BRANCH   1  18
ATOM     17  O   UNL     1       2.596   7.747  18.599  0.00  0.00    +0.000 OA
ATOM     18  C   UNL     1       2.068   7.491  19.678  0.00  0.00    +0.000 C 
ATOM     19  N   UNL     1       2.057   6.222  20.237  0.00  0.00    +0.000 N 
ATOM     20  H   UNL     1       1.544   6.140  21.110  0.00  0.00    +0.000 HD
BRANCH  19  21
ATOM     21  C   UNL     1       2.628   5.034  19.594  0.00  0.00    +0.000 C 
ATOM     22  C   UNL     1       2.289   3.737  20.378  0.00  0.00    +0.000 C 
ATOM     23  C   UNL     1       2.901   2.504  19.689  0.00  0.00    +0.000 C 
ATOM     24  C   UNL     1       2.329   2.376  18.270  0.00  0.00    +0.000 C 
ATOM     25  C   UNL     1       2.663   3.638  17.457  0.00  0.00    +0.000 C 
ATOM     26  C   UNL     1       4.190   3.798  17.377  0.00  0.00    +0.000 C 
ATOM     27  C   UNL     1       4.776   3.929  18.790  0.00  0.00    +0.000 C 
ATOM     28  C   UNL     1       4.426   2.673  19.606  0.00  0.00    +0.000 C 
ATOM     29  C   UNL     1       4.170   5.163  19.475  0.00  0.00    +0.000 C 
ATOM     30  C   UNL     1       2.055   4.872  18.159  0.00  0.00    +0.000 C 
ENDBRANCH  19  21
ENDBRANCH   1  18
TORSDOF 3
ENDMDL
MODEL 4
REMARK VINA RESULT:      -8.7      1.790      8.566
REMARK  Name = 
REMARK  3 active torsions:
REMARK  status: ('A' for Active; 'I' for Inactive)
REMARK    1  A    between atoms: C_2  and  C_14
REMARK    2  A    between atoms: N_3  and  C_4
REMARK    3  A    between atoms: C_17  and  C_18
REMARK                            x       y       z     vdW  Elec       q    Type
REMARK                         _______ _______ _______ _____ _____    ______ ____
ROOT
ATOM      1  C   UNL     1       2.342   7.289  18.784  0.00  0.00    +0.000 A 
ATOM      2  N   UNL     1       3.238   6.642  18.069  0.00  0.00    +0.000 NA
ATOM      3  C   UNL     1       3.436   5.427  18.715  0.00  0.00    +0.000 A 
ATOM      4  C   UNL     1       4.330   4.362  18.425  0.00  0.00    +0.000 A 
ATOM      5  C   UNL     1       4.289   3.247  19.298  0.00  0.00    +0.000 A 
ATOM      6  C   UNL     1       3.413   3.177  20.383  0.00  0.00    +0.000 A 
ATOM      7  C   UNL     1       2.539   4.224  20.667  0.00  0.00    +0.000 A 
ATOM      8  C   UNL     1       2.588   5.328  19.816  0.00  0.00    +0.000 A 
ATOM      9  N   UNL     1       1.899   6.511  19.826  0.00  0.00    +0.000 N 
ATOM     10  H   UNL     1       1.208   6.808  20.499  0.00  0.00    +0.000 HD
ENDROOT
BRANCH   4  11
ATOM     11  C   UNL     1       5.235   4.428  17.259  0.00  0.00    +0.000 A 
ATOM     12  C   UNL     1       6.607   4.710  17.396  0.00  0.00    +0.000 A 
ATOM     13  C   UNL     1       7.443   4.843  16.287  0.00  0.00    +0.000 A 
ATOM     14  C   UNL     1       6.935   4.649  15.009  0.00  0.00    +0.000 A 
ATOM     15  C   UNL     1       5.594   4.325  14.840  0.00  0.00    +0.000 A 
ATOM     16  C   UNL     1       4.754   4.222  15.952  0.00  0.00    +0.000 A 
ENDBRANCH   4  11
BRANCH   1  18
ATOM     17  O   UNL     1       2.121   9.237  17.523  0.00  0.00    +0.000 OA
ATOM     18  C   UNL     1       1.880   8.643  18.570  0.00  0.00    +0.000 C 
ATOM     19  N   UNL     1       1.161   9.204  19.614  0.00  0.00    +0.000 N 
ATOM     20  H   UNL     1       1.075   8.621  20.441  0.00  0.00    +0.000 HD
BRANCH  19  21
ATOM     21  C   UNL     1       0.644  10.578  19.614  0.00  0.00    +0.000 C 
ATOM     22  C   UNL     1       1.618  11.557  18.905  0.00  0.00    +0.000 C 
ATOM     23  C   UNL     1       1.060  12.991  18.920  0.00  0.00    +0.000 C 
ATOM     24  C   UNL     1      -0.285  13.024  18.180  0.00  0.00    +0.000 C 
ATOM     25  C   UNL     1      -1.282  12.076  18.867  0.00  0.00    +0.000 C 
ATOM     26  C   UNL     1      -1.492  12.532  20.321  0.00  0.00    +0.000 C 
ATOM     27  C   UNL     1      -0.155  12.503  21.075  0.00  0.00    +0.000 C 
ATOM     28  C   UNL     1       0.846  13.439  20.375  0.00  0.00    +0.000 C 
ATOM     29  C   UNL     1       0.400  11.071  21.065  0.00  0.00    +0.000 C 
ATOM     30  C   UNL     1      -0.712  10.641  18.858  0.00  0.00    +0.000 C 
ENDBRANCH  19  21
ENDBRANCH   1  18
TORSDOF 3
ENDMDL
MODEL 5
REMARK VINA RESULT:      -8.7      1.785      8.808
REMARK  Name = 
REMARK  3 active torsions:
REMARK  status: ('A' for Active; 'I' for Inactive)
REMARK    1  A    between atoms: C_2  and  C_14
REMARK    2  A    between atoms: N_3  and  C_4
REMARK    3  A    between atoms: C_17  and  C_18
REMARK                            x       y       z     vdW  Elec       q    Type
REMARK                         _______ _______ _______ _____ _____    ______ ____
ROOT
ATOM      1  C   UNL     1       2.791   7.881  17.957  0.00  0.00    +0.000 A 
ATOM      2  N   UNL     1       2.583   6.764  18.620  0.00  0.00    +0.000 NA
ATOM      3  C   UNL     1       3.424   5.819  18.046  0.00  0.00    +0.000 A 
ATOM      4  C   UNL     1       3.577   4.433  18.317  0.00  0.00    +0.000 A 
ATOM      5  C   UNL     1       4.533   3.737  17.536  0.00  0.00    +0.000 A 
ATOM      6  C   UNL     1       5.301   4.367  16.555  0.00  0.00    +0.000 A 
ATOM      7  C   UNL     1       5.147   5.726  16.288  0.00  0.00    +0.000 A 
ATOM      8  C   UNL     1       4.196   6.409  17.048  0.00  0.00    +0.000 A 
ATOM      9  N   UNL     1       3.787   7.715  17.025  0.00  0.00    +0.000 N 
ATOM     10  H   UNL     1       4.111   8.445  16.407  0.00  0.00    +0.000 HD
ENDROOT
BRANCH   4  11
ATOM     11  C   UNL     1       2.783   3.774  19.376  0.00  0.00    +0.000 A 
ATOM     12  C   UNL     1       1.377   3.739  19.338  0.00  0.00    +0.000 A 
ATOM     13  C   UNL     1       0.630   3.181  20.376  0.00  0.00    +0.000 A 
ATOM     14  C   UNL     1       1.274   2.599  21.460  0.00  0.00    +0.000 A 
ATOM     15  C   UNL     1       2.663   2.579  21.507  0.00  0.00    +0.000 A 
ATOM     16  C   UNL     1       3.408   3.165  20.481  0.00  0.00    +0.000 A 
ENDBRANCH   4  11
BRANCH   1  18
ATOM     17  O   UNL     1       2.073   9.978  17.233  0.00  0.00    +0.000 OA
ATOM     18  C   UNL     1       2.075   9.128  18.119  0.00  0.00    +0.000 C 
ATOM     19  N   UNL     1       1.407   9.285  19.325  0.00  0.00    +0.000 N 
ATOM     20  H   UNL     1       1.531   8.526  19.988  0.00  0.00    +0.000 HD
BRANCH  19  21
ATOM     21  C   UNL     1       0.663  10.491  19.703  0.00  0.00    +0.000 C 
ATOM     22  C   UNL     1      -0.753  10.515  19.068  0.00  0.00    +0.000 C 
ATOM     23  C   UNL     1      -1.515  11.790  19.474  0.00  0.00    +0.000 C 
ATOM     24  C   UNL     1      -1.668  11.828  21.001  0.00  0.00    +0.000 C 
ATOM     25  C   UNL     1      -0.281  11.824  21.665  0.00  0.00    +0.000 C 
ATOM     26  C   UNL     1       0.505  13.062  21.202  0.00  0.00    +0.000 C 
ATOM     27  C   UNL     1       0.667  13.037  19.675  0.00  0.00    +0.000 C 
ATOM     28  C   UNL     1      -0.722  13.024  19.014  0.00  0.00    +0.000 C 
ATOM     29  C   UNL     1       1.432  11.768  19.271  0.00  0.00    +0.000 C 
ATOM     30  C   UNL     1       0.482  10.548  21.245  0.00  0.00    +0.000 C 
ENDBRANCH  19  21
ENDBRANCH   1  18
TORSDOF 3
ENDMDL
MODEL 6
REMARK VINA RESULT:      -8.7      1.782      8.805
REMARK  Name = 
REMARK  3 active torsions:
REMARK  status: ('A' for Active; 'I' for Inactive)
REMARK    1  A    between atoms: C_2  and  C_14
REMARK    2  A    between atoms: N_3  and  C_4
REMARK    3  A    between atoms: C_17  and  C_18
REMARK                            x       y       z     vdW  Elec       q    Type
REMARK                         _______ _______ _______ _____ _____    ______ ____
ROOT
ATOM      1  C   UNL     1       2.824   7.859  17.956  0.00  0.00    +0.000 A 
ATOM      2  N   UNL     1       2.609   6.744  18.622  0.00  0.00    +0.000 NA
ATOM      3  C   UNL     1       3.435   5.789  18.042  0.00  0.00    +0.000 A 
ATOM      4  C   UNL     1       3.575   4.402  18.313  0.00  0.00    +0.000 A 
ATOM      5  C   UNL     1       4.515   3.694  17.524  0.00  0.00    +0.000 A 
ATOM      6  C   UNL     1       5.281   4.315  16.536  0.00  0.00    +0.000 A 
ATOM      7  C   UNL     1       5.140   5.675  16.269  0.00  0.00    +0.000 A 
ATOM      8  C   UNL     1       4.205   6.369  17.037  0.00  0.00    +0.000 A 
ATOM      9  N   UNL     1       3.809   7.680  17.015  0.00  0.00    +0.000 N 
ATOM     10  H   UNL     1       4.136   8.405  16.394  0.00  0.00    +0.000 HD
ENDROOT
BRANCH   4  11
ATOM     11  C   UNL     1       2.782   3.754  19.380  0.00  0.00    +0.000 A 
ATOM     12  C   UNL     1       1.377   3.714  19.344  0.00  0.00    +0.000 A 
ATOM     13  C   UNL     1       0.631   3.167  20.388  0.00  0.00    +0.000 A 
ATOM     14  C   UNL     1       1.277   2.599  21.479  0.00  0.00    +0.000 A 
ATOM     15  C   UNL     1       2.667   2.582  21.525  0.00  0.00    +0.000 A 
ATOM     16  C   UNL     1       3.409   3.158  20.491  0.00  0.00    +0.000 A 
ENDBRANCH   4  11
BRANCH   1  18
ATOM     17  O   UNL     1       2.153   9.977  17.251  0.00  0.00    +0.000 OA
ATOM     18  C   UNL     1       2.125   9.114  18.124  0.00  0.00    +0.000 C 
ATOM     19  N   UNL     1       1.435   9.262  19.318  0.00  0.00    +0.000 N 
ATOM     20  H   UNL     1       1.534   8.492  19.971  0.00  0.00    +0.000 HD
BRANCH  19  21
ATOM     21  C   UNL     1       0.701  10.474  19.700  0.00  0.00    +0.000 C 
ATOM     22  C   UNL     1       1.425  11.760  19.217  0.00  0.00    +0.000 C 
ATOM     23  C   UNL     1       0.642  13.019  19.632  0.00  0.00    +0.000 C 
ATOM     24  C   UNL     1      -0.755  12.982  18.998  0.00  0.00    +0.000 C 
ATOM     25  C   UNL     1      -1.510  11.728  19.469  0.00  0.00    +0.000 C 
ATOM     26  C   UNL     1      -1.648  11.767  21.000  0.00  0.00    +0.000 C 
ATOM     27  C   UNL     1      -0.258  11.803  21.649  0.00  0.00    +0.000 C 
ATOM     28  C   UNL     1       0.501  13.049  21.162  0.00  0.00    +0.000 C 
ATOM     29  C   UNL     1       0.522  10.543  21.240  0.00  0.00    +0.000 C 
ATOM     30  C   UNL     1      -0.714  10.470  19.059  0.00  0.00    +0.000 C 
ENDBRANCH  19  21
ENDBRANCH   1  18
TORSDOF 3
ENDMDL
MODEL 7
REMARK VINA RESULT:      -8.7      1.819      8.277
REMARK  Name = 
REMARK  3 active torsions:
REMARK  status: ('A' for Active; 'I' for Inactive)
REMARK    1  A    between atoms: C_2  and  C_14
REMARK    2  A    between atoms: N_3  and  C_4
REMARK    3  A    between atoms: C_17  and  C_18
REMARK                            x       y       z     vdW  Elec       q    Type
REMARK                         _______ _______ _______ _____ _____    ______ ____
ROOT
ATOM      1  C   UNL     1       1.968   7.077  20.353  0.00  0.00    +0.000 A 
ATOM      2  N   UNL     1       2.898   6.726  19.491  0.00  0.00    +0.000 NA
ATOM      3  C   UNL     1       3.130   5.374  19.711  0.00  0.00    +0.000 A 
ATOM      4  C   UNL     1       4.068   4.489  19.114  0.00  0.00    +0.000 A 
ATOM      5  C   UNL     1       4.055   3.149  19.574  0.00  0.00    +0.000 A 
ATOM      6  C   UNL     1       3.166   2.702  20.554  0.00  0.00    +0.000 A 
ATOM      7  C   UNL     1       2.249   3.573  21.140  0.00  0.00    +0.000 A 
ATOM      8  C   UNL     1       2.271   4.895  20.696  0.00  0.00    +0.000 A 
ATOM      9  N   UNL     1       1.537   5.989  21.073  0.00  0.00    +0.000 N 
ATOM     10  H   UNL     1       0.825   6.028  21.787  0.00  0.00    +0.000 HD
ENDROOT
BRANCH   4  11
ATOM     11  C   UNL     1       4.988   4.959  18.057  0.00  0.00    +0.000 A 
ATOM     12  C   UNL     1       4.694   4.803  16.690  0.00  0.00    +0.000 A 
ATOM     13  C   UNL     1       5.598   5.181  15.697  0.00  0.00    +0.000 A 
ATOM     14  C   UNL     1       6.806   5.772  16.047  0.00  0.00    +0.000 A 
ATOM     15  C   UNL     1       7.109   5.982  17.388  0.00  0.00    +0.000 A 
ATOM     16  C   UNL     1       6.213   5.574  18.380  0.00  0.00    +0.000 A 
ENDBRANCH   4  11
BRANCH   1  18
ATOM     17  O   UNL     1       1.534   8.940  21.685  0.00  0.00    +0.000 OA
ATOM     18  C   UNL     1       1.459   8.412  20.580  0.00  0.00    +0.000 C 
ATOM     19  N   UNL     1       0.894   9.035  19.477  0.00  0.00    +0.000 N 
ATOM     20  H   UNL     1       0.853   8.468  18.635  0.00  0.00    +0.000 HD
BRANCH  19  21
ATOM     21  C   UNL     1       0.282  10.368  19.507  0.00  0.00    +0.000 C 
ATOM     22  C   UNL     1       1.347  11.491  19.386  0.00  0.00    +0.000 C 
ATOM     23  C   UNL     1       0.685  12.881  19.425  0.00  0.00    +0.000 C 
ATOM     24  C   UNL     1      -0.294  13.012  18.250  0.00  0.00    +0.000 C 
ATOM     25  C   UNL     1      -1.376  11.923  18.346  0.00  0.00    +0.000 C 
ATOM     26  C   UNL     1      -2.144  12.091  19.668  0.00  0.00    +0.000 C 
ATOM     27  C   UNL     1      -1.178  11.961  20.854  0.00  0.00    +0.000 C 
ATOM     28  C   UNL     1      -0.087  13.040  20.745  0.00  0.00    +0.000 C 
ATOM     29  C   UNL     1      -0.521  10.572  20.819  0.00  0.00    +0.000 C 
ATOM     30  C   UNL     1      -0.704  10.533  18.318  0.00  0.00    +0.000 C 
ENDBRANCH  19  21
ENDBRANCH   1  18
TORSDOF 3
ENDMDL
MODEL 8
REMARK VINA RESULT:      -8.6      1.788      8.573
REMARK  Name = 
REMARK  3 active torsions:
REMARK  status: ('A' for Active; 'I' for Inactive)
REMARK    1  A    between atoms: C_2  and  C_14
REMARK    2  A    between atoms: N_3  and  C_4
REMARK    3  A    between atoms: C_17  and  C_18
REMARK                            x       y       z     vdW  Elec       q    Type
REMARK                         _______ _______ _______ _____ _____    ______ ____
ROOT
ATOM      1  C   UNL     1       2.339   7.305  18.784  0.00  0.00    +0.000 A 
ATOM      2  N   UNL     1       3.234   6.656  18.070  0.00  0.00    +0.000 NA
ATOM      3  C   UNL     1       3.433   5.444  18.720  0.00  0.00    +0.000 A 
ATOM      4  C   UNL     1       4.328   4.379  18.432  0.00  0.00    +0.000 A 
ATOM      5  C   UNL     1       4.289   3.266  19.309  0.00  0.00    +0.000 A 
ATOM      6  C   UNL     1       3.415   3.199  20.395  0.00  0.00    +0.000 A 
ATOM      7  C   UNL     1       2.540   4.246  20.677  0.00  0.00    +0.000 A 
ATOM      8  C   UNL     1       2.588   5.348  19.822  0.00  0.00    +0.000 A 
ATOM      9  N   UNL     1       1.897   6.530  19.829  0.00  0.00    +0.000 N 
ATOM     10  H   UNL     1       1.207   6.829  20.502  0.00  0.00    +0.000 HD
ENDROOT
BRANCH   4  11
ATOM     11  C   UNL     1       5.232   4.441  17.265  0.00  0.00    +0.000 A 
ATOM     12  C   UNL     1       6.604   4.723  17.399  0.00  0.00    +0.000 A 
ATOM     13  C   UNL     1       7.438   4.854  16.289  0.00  0.00    +0.000 A 
ATOM     14  C   UNL     1       6.929   4.657  15.012  0.00  0.00    +0.000 A 
ATOM     15  C   UNL     1       5.587   4.334  14.846  0.00  0.00    +0.000 A 
ATOM     16  C   UNL     1       4.748   4.234  15.959  0.00  0.00    +0.000 A 
ENDBRANCH   4  11
BRANCH   1  18
ATOM     17  O   UNL     1       2.110   9.247  17.516  0.00  0.00    +0.000 OA
ATOM     18  C   UNL     1       1.875   8.658  18.566  0.00  0.00    +0.000 C 
ATOM     19  N   UNL     1       1.161   9.224  19.612  0.00  0.00    +0.000 N 
ATOM     20  H   UNL     1       1.080   8.645  20.442  0.00  0.00    +0.000 HD
BRANCH  19  21
ATOM     21  C   UNL     1       0.644  10.597  19.609  0.00  0.00    +0.000 C 
ATOM     22  C   UNL     1      -0.728  10.692  18.890  0.00  0.00    +0.000 C 
ATOM     23  C   UNL     1      -1.250  12.141  18.894  0.00  0.00    +0.000 C 
ATOM     24  C   UNL     1      -1.427  12.615  20.343  0.00  0.00    +0.000 C 
ATOM     25  C   UNL     1      -0.081  12.551  21.082  0.00  0.00    +0.000 C 
ATOM     26  C   UNL     1       0.931  13.464  20.370  0.00  0.00    +0.000 C 
ATOM     27  C   UNL     1       1.120  13.001  18.918  0.00  0.00    +0.000 C 
ATOM     28  C   UNL     1      -0.232  13.050  18.186  0.00  0.00    +0.000 C 
ATOM     29  C   UNL     1       1.646  11.557  18.914  0.00  0.00    +0.000 C 
ATOM     30  C   UNL     1       0.442  11.098  21.066  0.00  0.00    +0.000 C 
ENDBRANCH  19  21
ENDBRANCH   1  18
TORSDOF 3
ENDMDL
MODEL 9
REMARK VINA RESULT:      -8.6      1.825      8.279
REMARK  Name = 
REMARK  3 active torsions:
REMARK  status: ('A' for Active; 'I' for Inactive)
REMARK    1  A    between atoms: C_2  and  C_14
REMARK    2  A    between atoms: N_3  and  C_4
REMARK    3  A    between atoms: C_17  and  C_18
REMARK                            x       y       z     vdW  Elec       q    Type
REMARK                         _______ _______ _______ _____ _____    ______ ____
ROOT
ATOM      1  C   UNL     1       1.855   7.221  20.402  0.00  0.00    +0.000 A 
ATOM      2  N   UNL     1       2.825   6.863  19.587  0.00  0.00    +0.000 NA
ATOM      3  C   UNL     1       3.019   5.504  19.799  0.00  0.00    +0.000 A 
ATOM      4  C   UNL     1       3.971   4.609  19.241  0.00  0.00    +0.000 A 
ATOM      5  C   UNL     1       3.907   3.263  19.680  0.00  0.00    +0.000 A 
ATOM      6  C   UNL     1       2.956   2.820  20.602  0.00  0.00    +0.000 A 
ATOM      7  C   UNL     1       2.025   3.701  21.149  0.00  0.00    +0.000 A 
ATOM      8  C   UNL     1       2.097   5.029  20.728  0.00  0.00    +0.000 A 
ATOM      9  N   UNL     1       1.365   6.131  21.080  0.00  0.00    +0.000 N 
ATOM     10  H   UNL     1       0.615   6.175  21.755  0.00  0.00    +0.000 HD
ENDROOT
BRANCH   4  11
ATOM     11  C   UNL     1       4.957   5.075  18.244  0.00  0.00    +0.000 A 
ATOM     12  C   UNL     1       4.640   5.185  16.878  0.00  0.00    +0.000 A 
ATOM     13  C   UNL     1       5.595   5.554  15.931  0.00  0.00    +0.000 A 
ATOM     14  C   UNL     1       6.886   5.872  16.334  0.00  0.00    +0.000 A 
ATOM     15  C   UNL     1       7.221   5.816  17.682  0.00  0.00    +0.000 A 
ATOM     16  C   UNL     1       6.270   5.416  18.624  0.00  0.00    +0.000 A 
ENDBRANCH   4  11
BRANCH   1  18
ATOM     17  O   UNL     1       1.488   9.116  21.708  0.00  0.00    +0.000 OA
ATOM     18  C   UNL     1       1.361   8.562  20.620  0.00  0.00    +0.000 C 
ATOM     19  N   UNL     1       0.746   9.161  19.530  0.00  0.00    +0.000 N 
ATOM     20  H   UNL     1       0.665   8.575  18.705  0.00  0.00    +0.000 HD
BRANCH  19  21
ATOM     21  C   UNL     1       0.139  10.497  19.558  0.00  0.00    +0.000 C 
ATOM     22  C   UNL     1      -0.627  10.752  20.884  0.00  0.00    +0.000 C 
ATOM     23  C   UNL     1      -1.259  12.155  20.890  0.00  0.00    +0.000 C 
ATOM     24  C   UNL     1      -0.154  13.213  20.757  0.00  0.00    +0.000 C 
ATOM     25  C   UNL     1       0.616  13.002  19.444  0.00  0.00    +0.000 C 
ATOM     26  C   UNL     1      -0.357  13.133  18.260  0.00  0.00    +0.000 C 
ATOM     27  C   UNL     1      -1.468  12.080  18.379  0.00  0.00    +0.000 C 
ATOM     28  C   UNL     1      -2.226  12.283  19.701  0.00  0.00    +0.000 C 
ATOM     29  C   UNL     1      -0.838  10.679  18.366  0.00  0.00    +0.000 C 
ATOM     30  C   UNL     1       1.239  11.588  19.439  0.00  0.00    +0.000 C 
ENDBRANCH  19  21
ENDBRANCH   1  18
TORSDOF 3
ENDMDL
