MODEL 1
REMARK VINA RESULT:      -8.1      0.000      0.000
REMARK  Name = 
REMARK  11 active torsions:
REMARK  status: ('A' for Active; 'I' for Inactive)
REMARK    1  A    between atoms: C_1  and  C_2
REMARK    2  A    between atoms: C_2  and  C_3
REMARK    3  A    between atoms: C_8  and  C_9
REMARK    4  A    between atoms: C_12  and  C_13
REMARK    5  A    between atoms: C_13  and  C_14
REMARK    6  A    between atoms: C_14  and  C_15
REMARK    7  A    between atoms: C_15  and  C_16
REMARK    8  A    between atoms: C_15  and  C_17
REMARK    9  A    between atoms: C_15  and  S_21
REMARK   10  A    between atoms: N_19  and  O_20
REMARK   11  A    between atoms: S_21  and  C_22
REMARK                            x       y       z     vdW  Elec       q    Type
REMARK                         _______ _______ _______ _____ _____    ______ ____
ROOT
ATOM      1  C   UNL     1       1.149   9.720  19.282  0.00  0.00    +0.000 A 
ATOM      2  C   UNL     1       1.022   9.094  20.533  0.00  0.00    +0.000 A 
ATOM      3  C   UNL     1       1.461   7.786  20.752  0.00  0.00    +0.000 A 
ATOM      4  C   UNL     1       2.114   7.086  19.739  0.00  0.00    +0.000 A 
ATOM      5  C   UNL     1       2.318   7.715  18.508  0.00  0.00    +0.000 A 
ATOM      6  C   UNL     1       1.828   9.001  18.280  0.00  0.00    +0.000 A 
ENDROOT
BRANCH   1  12
ATOM      7  C   UNL     1      -0.705  11.343  18.523  0.00  0.00    +0.000 A 
ATOM      8  C   UNL     1      -1.091  12.682  18.295  0.00  0.00    +0.000 A 
ATOM      9  C   UNL     1      -0.203  13.743  18.471  0.00  0.00    +0.000 A 
ATOM     10  C   UNL     1       1.086  13.496  18.914  0.00  0.00    +0.000 A 
ATOM     11  C   UNL     1       1.474  12.187  19.193  0.00  0.00    +0.000 A 
ATOM     12  C   UNL     1       0.611  11.082  19.003  0.00  0.00    +0.000 A 
BRANCH   7  14
ATOM     13  C   UNL     1      -2.095   9.905  16.854  0.00  0.00    +0.000 C 
ATOM     14  C   UNL     1      -1.728  10.241  18.296  0.00  0.00    +0.000 C 
ENDBRANCH   7  14
ENDBRANCH   1  12
BRANCH   4  15
ATOM     15  C   UNL     1       2.634   5.693  19.960  0.00  0.00    +0.000 C 
BRANCH  15  16
ATOM     16  C   UNL     1       4.009   5.450  19.320  0.00  0.00    +0.000 C 
BRANCH  16  17
ATOM     17  C   UNL     1       4.025   4.347  18.223  0.00  0.00    +0.000 C 
ATOM     18  C   UNL     1       2.615   4.257  17.601  0.00  0.00    +0.000 C 
BRANCH  17  19
ATOM     19  C   UNL     1       4.384   2.988  18.809  0.00  0.00    +0.000 C 
ATOM     20  O   UNL     1       4.943   2.812  19.886  0.00  0.00    +0.000 OA
ATOM     21  N   UNL     1       4.089   1.898  18.015  0.00  0.00    +0.000 N 
ATOM     22  H   UNL     1       3.487   1.898  17.199  0.00  0.00    +0.000 HD
BRANCH  21  23
ATOM     23  O   UNL     1       4.371   0.633  18.579  0.00  0.00    +0.000 OA
ATOM     24  H   UNL     1       3.628   0.505  19.209  0.00  0.00    +0.000 HD
ENDBRANCH  21  23
ENDBRANCH  17  19
BRANCH  17  25
ATOM     25  S   UNL     1       5.222   4.797  16.911  0.00  0.00    +0.000 S 
ATOM     26  C   UNL     1       6.833   4.904  17.653  0.00  0.00    +0.000 C 
ATOM     27  O   UNL     1       5.273   3.678  15.986  0.00  0.00    +0.000 OA
ATOM     28  O   UNL     1       4.922   6.121  16.394  0.00  0.00    +0.000 OA
ENDBRANCH  17  25
ENDBRANCH  16  17
ENDBRANCH  15  16
ENDBRANCH   4  15
TORSDOF 8
ENDMDL
MODEL 2
REMARK VINA RESULT:      -8.1      1.566      2.073
REMARK  Name = 
REMARK  11 active torsions:
REMARK  status: ('A' for Active; 'I' for Inactive)
REMARK    1  A    between atoms: C_1  and  C_2
REMARK    2  A    between atoms: C_2  and  C_3
REMARK    3  A    between atoms: C_8  and  C_9
REMARK    4  A    between atoms: C_12  and  C_13
REMARK    5  A    between atoms: C_13  and  C_14
REMARK    6  A    between atoms: C_14  and  C_15
REMARK    7  A    between atoms: C_15  and  C_16
REMARK    8  A    between atoms: C_15  and  C_17
REMARK    9  A    between atoms: C_15  and  S_21
REMARK   10  A    between atoms: N_19  and  O_20
REMARK   11  A    between atoms: S_21  and  C_22
REMARK                            x       y       z     vdW  Elec       q    Type
REMARK                         _______ _______ _______ _____ _____    ______ ____
ROOT
ATOM      1  C   UNL     1       1.128   9.746  19.005  0.00  0.00    +0.000 A 
ATOM      2  C   UNL     1       1.827   9.407  17.835  0.00  0.00    +0.000 A 
ATOM      3  C   UNL     1       2.612   8.255  17.751  0.00  0.00    +0.000 A 
ATOM      4  C   UNL     1       2.661   7.361  18.819  0.00  0.00    +0.000 A 
ATOM      5  C   UNL     1       1.915   7.639  19.967  0.00  0.00    +0.000 A 
ATOM      6  C   UNL     1       1.177   8.819  20.063  0.00  0.00    +0.000 A 
ENDROOT
BRANCH   1  12
ATOM      7  C   UNL     1      -0.919  11.246  18.549  0.00  0.00    +0.000 A 
ATOM      8  C   UNL     1      -1.547  12.494  18.756  0.00  0.00    +0.000 A 
ATOM      9  C   UNL     1      -0.928  13.517  19.473  0.00  0.00    +0.000 A 
ATOM     10  C   UNL     1       0.320  13.307  20.034  0.00  0.00    +0.000 A 
ATOM     11  C   UNL     1       0.938  12.067  19.886  0.00  0.00    +0.000 A 
ATOM     12  C   UNL     1       0.354  11.012  19.144  0.00  0.00    +0.000 A 
BRANCH   7  14
ATOM     13  C   UNL     1      -3.179  10.226  17.749  0.00  0.00    +0.000 C 
ATOM     14  C   UNL     1      -1.654  10.185  17.744  0.00  0.00    +0.000 C 
ENDBRANCH   7  14
ENDBRANCH   1  12
BRANCH   4  15
ATOM     15  C   UNL     1       3.465   6.093  18.742  0.00  0.00    +0.000 C 
BRANCH  15  16
ATOM     16  C   UNL     1       4.365   6.018  17.500  0.00  0.00    +0.000 C 
BRANCH  16  17
ATOM     17  C   UNL     1       5.347   4.812  17.486  0.00  0.00    +0.000 C 
ATOM     18  C   UNL     1       5.671   4.462  16.018  0.00  0.00    +0.000 C 
BRANCH  17  19
ATOM     19  C   UNL     1       4.731   3.588  18.150  0.00  0.00    +0.000 C 
ATOM     20  O   UNL     1       3.661   3.079  17.832  0.00  0.00    +0.000 OA
ATOM     21  N   UNL     1       5.432   3.071  19.220  0.00  0.00    +0.000 N 
ATOM     22  H   UNL     1       6.391   3.290  19.469  0.00  0.00    +0.000 HD
BRANCH  21  23
ATOM     23  O   UNL     1       4.890   1.903  19.804  0.00  0.00    +0.000 OA
ATOM     24  H   UNL     1       4.027   1.809  19.342  0.00  0.00    +0.000 HD
ENDBRANCH  21  23
ENDBRANCH  17  19
BRANCH  17  25
ATOM     25  S   UNL     1       6.902   5.270  18.341  0.00  0.00    +0.000 S 
ATOM     26  C   UNL     1       7.450   6.826  17.683  0.00  0.00    +0.000 C 
ATOM     27  O   UNL     1       6.561   5.512  19.732  0.00  0.00    +0.000 OA
ATOM     28  O   UNL     1       7.944   4.306  18.033  0.00  0.00    +0.000 OA
ENDBRANCH  17  25
ENDBRANCH  16  17
ENDBRANCH  15  16
ENDBRANCH   4  15
TORSDOF 8
ENDMDL
MODEL 3
REMARK VINA RESULT:      -8.0      1.652      1.890
REMARK  Name = 
REMARK  11 active torsions:
REMARK  status: ('A' for Active; 'I' for Inactive)
REMARK    1  A    between atoms: C_1  and  C_2
REMARK    2  A    between atoms: C_2  and  C_3
REMARK    3  A    between atoms: C_8  and  C_9
REMARK    4  A    between atoms: C_12  and  C_13
REMARK    5  A    between atoms: C_13  and  C_14
REMARK    6  A    between atoms: C_14  and  C_15
REMARK    7  A    between atoms: C_15  and  C_16
REMARK    8  A    between atoms: C_15  and  C_17
REMARK    9  A    between atoms: C_15  and  S_21
REMARK   10  A    between atoms: N_19  and  O_20
REMARK   11  A    between atoms: S_21  and  C_22
REMARK                            x       y       z     vdW  Elec       q    Type
REMARK                         _______ _______ _______ _____ _____    ______ ____
ROOT
ATOM      1  C   UNL     1       0.932   9.625  19.431  0.00  0.00    +0.000 A 
ATOM      2  C   UNL     1       1.194   8.669  20.426  0.00  0.00    +0.000 A 
ATOM      3  C   UNL     1       1.860   7.474  20.145  0.00  0.00    +0.000 A 
ATOM      4  C   UNL     1       2.354   7.231  18.864  0.00  0.00    +0.000 A 
ATOM      5  C   UNL     1       2.171   8.201  17.875  0.00  0.00    +0.000 A 
ATOM      6  C   UNL     1       1.457   9.368  18.151  0.00  0.00    +0.000 A 
ENDROOT
BRANCH   1  12
ATOM      7  C   UNL     1      -1.073  11.198  19.039  0.00  0.00    +0.000 A 
ATOM      8  C   UNL     1      -1.715  12.409  19.375  0.00  0.00    +0.000 A 
ATOM      9  C   UNL     1      -1.157  13.311  20.280  0.00  0.00    +0.000 A 
ATOM     10  C   UNL     1       0.043  13.008  20.902  0.00  0.00    +0.000 A 
ATOM     11  C   UNL     1       0.671  11.796  20.623  0.00  0.00    +0.000 A 
ATOM     12  C   UNL     1       0.149  10.867  19.692  0.00  0.00    +0.000 A 
BRANCH   7  14
ATOM     13  C   UNL     1      -2.657  10.908  16.992  0.00  0.00    +0.000 C 
ATOM     14  C   UNL     1      -1.741  10.273  18.033  0.00  0.00    +0.000 C 
ENDBRANCH   7  14
ENDBRANCH   1  12
BRANCH   4  15
ATOM     15  C   UNL     1       3.111   5.973  18.542  0.00  0.00    +0.000 C 
BRANCH  15  16
ATOM     16  C   UNL     1       4.633   6.174  18.494  0.00  0.00    +0.000 C 
BRANCH  16  17
ATOM     17  C   UNL     1       5.402   5.090  17.685  0.00  0.00    +0.000 C 
ATOM     18  C   UNL     1       5.104   5.297  16.185  0.00  0.00    +0.000 C 
BRANCH  17  19
ATOM     19  C   UNL     1       4.958   3.687  18.078  0.00  0.00    +0.000 C 
ATOM     20  O   UNL     1       4.245   2.958  17.395  0.00  0.00    +0.000 OA
ATOM     21  N   UNL     1       5.364   3.258  19.324  0.00  0.00    +0.000 N 
ATOM     22  H   UNL     1       6.080   3.687  19.900  0.00  0.00    +0.000 HD
BRANCH  21  23
ATOM     23  O   UNL     1       4.999   1.937  19.668  0.00  0.00    +0.000 OA
ATOM     24  H   UNL     1       4.658   1.577  18.819  0.00  0.00    +0.000 HD
ENDBRANCH  21  23
ENDBRANCH  17  19
BRANCH  17  25
ATOM     25  S   UNL     1       7.204   5.275  17.962  0.00  0.00    +0.000 S 
ATOM     26  C   UNL     1       7.655   6.939  17.533  0.00  0.00    +0.000 C 
ATOM     27  O   UNL     1       7.425   5.148  19.392  0.00  0.00    +0.000 OA
ATOM     28  O   UNL     1       7.939   4.407  17.059  0.00  0.00    +0.000 OA
ENDBRANCH  17  25
ENDBRANCH  16  17
ENDBRANCH  15  16
ENDBRANCH   4  15
TORSDOF 8
ENDMDL
MODEL 4
REMARK VINA RESULT:      -8.0      2.359      3.481
REMARK  Name = 
REMARK  11 active torsions:
REMARK  status: ('A' for Active; 'I' for Inactive)
REMARK    1  A    between atoms: C_1  and  C_2
REMARK    2  A    between atoms: C_2  and  C_3
REMARK    3  A    between atoms: C_8  and  C_9
REMARK    4  A    between atoms: C_12  and  C_13
REMARK    5  A    between atoms: C_13  and  C_14
REMARK    6  A    between atoms: C_14  and  C_15
REMARK    7  A    between atoms: C_15  and  C_16
REMARK    8  A    between atoms: C_15  and  C_17
REMARK    9  A    between atoms: C_15  and  S_21
REMARK   10  A    between atoms: N_19  and  O_20
REMARK   11  A    between atoms: S_21  and  C_22
REMARK                            x       y       z     vdW  Elec       q    Type
REMARK                         _______ _______ _______ _____ _____    ______ ____
ROOT
ATOM      1  C   UNL     1       1.290   8.752  19.904  0.00  0.00    +0.000 A 
ATOM      2  C   UNL     1       1.666   9.241  18.642  0.00  0.00    +0.000 A 
ATOM      3  C   UNL     1       2.522   8.529  17.798  0.00  0.00    +0.000 A 
ATOM      4  C   UNL     1       2.972   7.261  18.164  0.00  0.00    +0.000 A 
ATOM      5  C   UNL     1       2.553   6.722  19.382  0.00  0.00    +0.000 A 
ATOM      6  C   UNL     1       1.741   7.462  20.243  0.00  0.00    +0.000 A 
ENDROOT
BRANCH   1  12
ATOM      7  C   UNL     1      -0.339  10.663  20.488  0.00  0.00    +0.000 A 
ATOM      8  C   UNL     1      -1.091  11.318  21.487  0.00  0.00    +0.000 A 
ATOM      9  C   UNL     1      -1.038  10.925  22.823  0.00  0.00    +0.000 A 
ATOM     10  C   UNL     1      -0.257   9.843  23.192  0.00  0.00    +0.000 A 
ATOM     11  C   UNL     1       0.456   9.150  22.216  0.00  0.00    +0.000 A 
ATOM     12  C   UNL     1       0.448   9.533  20.853  0.00  0.00    +0.000 A 
BRANCH   7  14
ATOM     13  C   UNL     1      -1.825  11.187  18.414  0.00  0.00    +0.000 C 
ATOM     14  C   UNL     1      -0.441  11.160  19.054  0.00  0.00    +0.000 C 
ENDBRANCH   7  14
ENDBRANCH   1  12
BRANCH   4  15
ATOM     15  C   UNL     1       3.861   6.455  17.259  0.00  0.00    +0.000 C 
BRANCH  15  16
ATOM     16  C   UNL     1       5.355   6.761  17.444  0.00  0.00    +0.000 C 
BRANCH  16  17
ATOM     17  C   UNL     1       6.218   5.536  17.861  0.00  0.00    +0.000 C 
ATOM     18  C   UNL     1       5.284   4.460  18.455  0.00  0.00    +0.000 C 
BRANCH  17  19
ATOM     19  C   UNL     1       7.250   5.917  18.914  0.00  0.00    +0.000 C 
ATOM     20  O   UNL     1       8.010   6.876  18.839  0.00  0.00    +0.000 OA
ATOM     21  N   UNL     1       7.342   5.065  19.996  0.00  0.00    +0.000 N 
ATOM     22  H   UNL     1       6.670   4.351  20.254  0.00  0.00    +0.000 HD
BRANCH  21  23
ATOM     23  O   UNL     1       8.260   5.447  21.001  0.00  0.00    +0.000 OA
ATOM     24  H   UNL     1       9.088   4.994  20.723  0.00  0.00    +0.000 HD
ENDBRANCH  21  23
ENDBRANCH  17  19
BRANCH  17  25
ATOM     25  S   UNL     1       7.058   4.841  16.387  0.00  0.00    +0.000 S 
ATOM     26  C   UNL     1       5.928   3.727  15.588  0.00  0.00    +0.000 C 
ATOM     27  O   UNL     1       7.266   5.943  15.464  0.00  0.00    +0.000 OA
ATOM     28  O   UNL     1       8.200   4.042  16.794  0.00  0.00    +0.000 OA
ENDBRANCH  17  25
ENDBRANCH  16  17
ENDBRANCH  15  16
ENDBRANCH   4  15
TORSDOF 8
ENDMDL
MODEL 5
REMARK VINA RESULT:      -7.9      1.529      1.870
REMARK  Name = 
REMARK  11 active torsions:
REMARK  status: ('A' for Active; 'I' for Inactive)
REMARK    1  A    between atoms: C_1  and  C_2
REMARK    2  A    between atoms: C_2  and  C_3
REMARK    3  A    between atoms: C_8  and  C_9
REMARK    4  A    between atoms: C_12  and  C_13
REMARK    5  A    between atoms: C_13  and  C_14
REMARK    6  A    between atoms: C_14  and  C_15
REMARK    7  A    between atoms: C_15  and  C_16
REMARK    8  A    between atoms: C_15  and  C_17
REMARK    9  A    between atoms: C_15  and  S_21
REMARK   10  A    between atoms: N_19  and  O_20
REMARK   11  A    between atoms: S_21  and  C_22
REMARK                            x       y       z     vdW  Elec       q    Type
REMARK                         _______ _______ _______ _____ _____    ______ ____
ROOT
ATOM      1  C   UNL     1       1.069   9.745  19.237  0.00  0.00    +0.000 A 
ATOM      2  C   UNL     1       1.551   9.523  17.936  0.00  0.00    +0.000 A 
ATOM      3  C   UNL     1       2.292   8.385  17.606  0.00  0.00    +0.000 A 
ATOM      4  C   UNL     1       2.512   7.392  18.559  0.00  0.00    +0.000 A 
ATOM      5  C   UNL     1       1.981   7.556  19.840  0.00  0.00    +0.000 A 
ATOM      6  C   UNL     1       1.288   8.719  20.176  0.00  0.00    +0.000 A 
ENDROOT
BRANCH   1  12
ATOM      7  C   UNL     1      -1.017  11.256  19.333  0.00  0.00    +0.000 A 
ATOM      8  C   UNL     1      -1.579  12.479  19.760  0.00  0.00    +0.000 A 
ATOM      9  C   UNL     1      -0.818  13.451  20.407  0.00  0.00    +0.000 A 
ATOM     10  C   UNL     1       0.519  13.211  20.678  0.00  0.00    +0.000 A 
ATOM     11  C   UNL     1       1.084  11.992  20.310  0.00  0.00    +0.000 A 
ATOM     12  C   UNL     1       0.351  10.990  19.629  0.00  0.00    +0.000 A 
BRANCH   7  14
ATOM     13  C   UNL     1      -2.016  10.352  17.104  0.00  0.00    +0.000 C 
ATOM     14  C   UNL     1      -1.911  10.251  18.622  0.00  0.00    +0.000 C 
ENDBRANCH   7  14
ENDBRANCH   1  12
BRANCH   4  15
ATOM     15  C   UNL     1       3.271   6.139  18.221  0.00  0.00    +0.000 C 
BRANCH  15  16
ATOM     16  C   UNL     1       4.756   6.391  17.918  0.00  0.00    +0.000 C 
BRANCH  16  17
ATOM     17  C   UNL     1       5.521   5.154  17.366  0.00  0.00    +0.000 C 
ATOM     18  C   UNL     1       5.074   4.913  15.909  0.00  0.00    +0.000 C 
BRANCH  17  19
ATOM     19  C   UNL     1       5.213   3.904  18.180  0.00  0.00    +0.000 C 
ATOM     20  O   UNL     1       5.519   3.737  19.356  0.00  0.00    +0.000 OA
ATOM     21  N   UNL     1       4.588   2.883  17.493  0.00  0.00    +0.000 N 
ATOM     22  H   UNL     1       4.140   2.958  16.587  0.00  0.00    +0.000 HD
BRANCH  21  23
ATOM     23  O   UNL     1       4.252   1.743  18.260  0.00  0.00    +0.000 OA
ATOM     24  H   UNL     1       3.315   1.580  18.009  0.00  0.00    +0.000 HD
ENDBRANCH  21  23
ENDBRANCH  17  19
BRANCH  17  25
ATOM     25  S   UNL     1       7.324   5.482  17.385  0.00  0.00    +0.000 S 
ATOM     26  C   UNL     1       7.766   6.011  19.023  0.00  0.00    +0.000 C 
ATOM     27  O   UNL     1       7.986   4.207  17.175  0.00  0.00    +0.000 OA
ATOM     28  O   UNL     1       7.638   6.590  16.500  0.00  0.00    +0.000 OA
ENDBRANCH  17  25
ENDBRANCH  16  17
ENDBRANCH  15  16
ENDBRANCH   4  15
TORSDOF 8
ENDMDL
MODEL 6
REMARK VINA RESULT:      -7.9      1.543      2.635
REMARK  Name = 
REMARK  11 active torsions:
REMARK  status: ('A' for Active; 'I' for Inactive)
REMARK    1  A    between atoms: C_1  and  C_2
REMARK    2  A    between atoms: C_2  and  C_3
REMARK    3  A    between atoms: C_8  and  C_9
REMARK    4  A    between atoms: C_12  and  C_13
REMARK    5  A    between atoms: C_13  and  C_14
REMARK    6  A    between atoms: C_14  and  C_15
REMARK    7  A    between atoms: C_15  and  C_16
REMARK    8  A    between atoms: C_15  and  C_17
REMARK    9  A    between atoms: C_15  and  S_21
REMARK   10  A    between atoms: N_19  and  O_20
REMARK   11  A    between atoms: S_21  and  C_22
REMARK                            x       y       z     vdW  Elec       q    Type
REMARK                         _______ _______ _______ _____ _____    ______ ____
ROOT
ATOM      1  C   UNL     1       0.995   9.694  19.087  0.00  0.00    +0.000 A 
ATOM      2  C   UNL     1       1.526   9.109  17.925  0.00  0.00    +0.000 A 
ATOM      3  C   UNL     1       2.237   7.907  17.962  0.00  0.00    +0.000 A 
ATOM      4  C   UNL     1       2.376   7.212  19.161  0.00  0.00    +0.000 A 
ATOM      5  C   UNL     1       1.794   7.737  20.318  0.00  0.00    +0.000 A 
ATOM      6  C   UNL     1       1.132   8.964  20.282  0.00  0.00    +0.000 A 
ENDROOT
BRANCH   1  12
ATOM      7  C   UNL     1       0.940  12.250  18.753  0.00  0.00    +0.000 A 
ATOM      8  C   UNL     1       0.175  13.436  18.790  0.00  0.00    +0.000 A 
ATOM      9  C   UNL     1      -1.159  13.438  19.196  0.00  0.00    +0.000 A 
ATOM     10  C   UNL     1      -1.775  12.247  19.540  0.00  0.00    +0.000 A 
ATOM     11  C   UNL     1      -1.055  11.057  19.464  0.00  0.00    +0.000 A 
ATOM     12  C   UNL     1       0.308  11.017  19.082  0.00  0.00    +0.000 A 
BRANCH   7  14
ATOM     13  C   UNL     1       3.085  13.689  18.414  0.00  0.00    +0.000 C 
ATOM     14  C   UNL     1       2.394  12.334  18.312  0.00  0.00    +0.000 C 
ENDBRANCH   7  14
ENDBRANCH   1  12
BRANCH   4  15
ATOM     15  C   UNL     1       3.101   5.896  19.224  0.00  0.00    +0.000 C 
BRANCH  15  16
ATOM     16  C   UNL     1       4.626   6.036  19.098  0.00  0.00    +0.000 C 
BRANCH  16  17
ATOM     17  C   UNL     1       5.274   5.104  18.035  0.00  0.00    +0.000 C 
ATOM     18  C   UNL     1       4.769   5.529  16.639  0.00  0.00    +0.000 C 
BRANCH  17  19
ATOM     19  C   UNL     1       4.889   3.648  18.265  0.00  0.00    +0.000 C 
ATOM     20  O   UNL     1       4.213   2.970  17.498  0.00  0.00    +0.000 OA
ATOM     21  N   UNL     1       5.306   3.102  19.461  0.00  0.00    +0.000 N 
ATOM     22  H   UNL     1       5.999   3.494  20.089  0.00  0.00    +0.000 HD
BRANCH  21  23
ATOM     23  O   UNL     1       4.997   1.736  19.653  0.00  0.00    +0.000 OA
ATOM     24  H   UNL     1       5.881   1.330  19.794  0.00  0.00    +0.000 HD
ENDBRANCH  21  23
ENDBRANCH  17  19
BRANCH  17  25
ATOM     25  S   UNL     1       7.097   5.283  18.084  0.00  0.00    +0.000 S 
ATOM     26  C   UNL     1       7.495   6.950  17.619  0.00  0.00    +0.000 C 
ATOM     27  O   UNL     1       7.496   5.140  19.474  0.00  0.00    +0.000 OA
ATOM     28  O   UNL     1       7.710   4.423  17.088  0.00  0.00    +0.000 OA
ENDBRANCH  17  25
ENDBRANCH  16  17
ENDBRANCH  15  16
ENDBRANCH   4  15
TORSDOF 8
ENDMDL
MODEL 7
REMARK VINA RESULT:      -7.9      0.905      1.036
REMARK  Name = 
REMARK  11 active torsions:
REMARK  status: ('A' for Active; 'I' for Inactive)
REMARK    1  A    between atoms: C_1  and  C_2
REMARK    2  A    between atoms: C_2  and  C_3
REMARK    3  A    between atoms: C_8  and  C_9
REMARK    4  A    between atoms: C_12  and  C_13
REMARK    5  A    between atoms: C_13  and  C_14
REMARK    6  A    between atoms: C_14  and  C_15
REMARK    7  A    between atoms: C_15  and  C_16
REMARK    8  A    between atoms: C_15  and  C_17
REMARK    9  A    between atoms: C_15  and  S_21
REMARK   10  A    between atoms: N_19  and  O_20
REMARK   11  A    between atoms: S_21  and  C_22
REMARK                            x       y       z     vdW  Elec       q    Type
REMARK                         _______ _______ _______ _____ _____    ______ ____
ROOT
ATOM      1  C   UNL     1       1.142   9.459  19.383  0.00  0.00    +0.000 A 
ATOM      2  C   UNL     1       1.050   8.755  20.596  0.00  0.00    +0.000 A 
ATOM      3  C   UNL     1       1.550   7.459  20.737  0.00  0.00    +0.000 A 
ATOM      4  C   UNL     1       2.229   6.850  19.683  0.00  0.00    +0.000 A 
ATOM      5  C   UNL     1       2.398   7.558  18.491  0.00  0.00    +0.000 A 
ATOM      6  C   UNL     1       1.848   8.832  18.339  0.00  0.00    +0.000 A 
ENDROOT
BRANCH   1  12
ATOM      7  C   UNL     1      -0.608  11.066  18.383  0.00  0.00    +0.000 A 
ATOM      8  C   UNL     1      -1.076  12.394  18.276  0.00  0.00    +0.000 A 
ATOM      9  C   UNL     1      -0.412  13.459  18.883  0.00  0.00    +0.000 A 
ATOM     10  C   UNL     1       0.719  13.220  19.645  0.00  0.00    +0.000 A 
ATOM     11  C   UNL     1       1.172  11.912  19.806  0.00  0.00    +0.000 A 
ATOM     12  C   UNL     1       0.541  10.808  19.185  0.00  0.00    +0.000 A 
BRANCH   7  14
ATOM     13  C   UNL     1      -2.904  10.028  17.723  0.00  0.00    +0.000 C 
ATOM     14  C   UNL     1      -1.381   9.961  17.680  0.00  0.00    +0.000 C 
ENDBRANCH   7  14
ENDBRANCH   1  12
BRANCH   4  15
ATOM     15  C   UNL     1       2.813   5.472  19.821  0.00  0.00    +0.000 C 
BRANCH  15  16
ATOM     16  C   UNL     1       4.292   5.395  19.409  0.00  0.00    +0.000 C 
BRANCH  16  17
ATOM     17  C   UNL     1       4.599   4.350  18.298  0.00  0.00    +0.000 C 
ATOM     18  C   UNL     1       3.518   4.469  17.203  0.00  0.00    +0.000 C 
BRANCH  17  19
ATOM     19  C   UNL     1       4.574   2.931  18.850  0.00  0.00    +0.000 C 
ATOM     20  O   UNL     1       4.950   2.605  19.972  0.00  0.00    +0.000 OA
ATOM     21  N   UNL     1       4.138   1.957  17.975  0.00  0.00    +0.000 N 
ATOM     22  H   UNL     1       3.650   2.114  17.100  0.00  0.00    +0.000 HD
BRANCH  21  23
ATOM     23  O   UNL     1       4.062   0.647  18.503  0.00  0.00    +0.000 OA
ATOM     24  H   UNL     1       4.956   0.284  18.314  0.00  0.00    +0.000 HD
ENDBRANCH  21  23
ENDBRANCH  17  19
BRANCH  17  25
ATOM     25  S   UNL     1       6.236   4.702  17.554  0.00  0.00    +0.000 S 
ATOM     26  C   UNL     1       6.323   6.445  17.224  0.00  0.00    +0.000 C 
ATOM     27  O   UNL     1       7.230   4.430  18.578  0.00  0.00    +0.000 OA
ATOM     28  O   UNL     1       6.353   4.036  16.269  0.00  0.00    +0.000 OA
ENDBRANCH  17  25
ENDBRANCH  16  17
ENDBRANCH  15  16
ENDBRANCH   4  15
TORSDOF 8
ENDMDL
MODEL 8
REMARK VINA RESULT:      -7.8      1.716      2.669
REMARK  Name = 
REMARK  11 active torsions:
REMARK  status: ('A' for Active; 'I' for Inactive)
REMARK    1  A    between atoms: C_1  and  C_2
REMARK    2  A    between atoms: C_2  and  C_3
REMARK    3  A    between atoms: C_8  and  C_9
REMARK    4  A    between atoms: C_12  and  C_13
REMARK    5  A    between atoms: C_13  and  C_14
REMARK    6  A    between atoms: C_14  and  C_15
REMARK    7  A    between atoms: C_15  and  C_16
REMARK    8  A    between atoms: C_15  and  C_17
REMARK    9  A    between atoms: C_15  and  S_21
REMARK   10  A    between atoms: N_19  and  O_20
REMARK   11  A    between atoms: S_21  and  C_22
REMARK                            x       y       z     vdW  Elec       q    Type
REMARK                         _______ _______ _______ _____ _____    ______ ____
ROOT
ATOM      1  C   UNL     1       0.614   9.891  19.290  0.00  0.00    +0.000 A 
ATOM      2  C   UNL     1       1.161   9.715  18.008  0.00  0.00    +0.000 A 
ATOM      3  C   UNL     1       2.081   8.701  17.730  0.00  0.00    +0.000 A 
ATOM      4  C   UNL     1       2.427   7.779  18.717  0.00  0.00    +0.000 A 
ATOM      5  C   UNL     1       1.840   7.890  19.980  0.00  0.00    +0.000 A 
ATOM      6  C   UNL     1       0.963   8.938  20.264  0.00  0.00    +0.000 A 
ENDROOT
BRANCH   1  12
ATOM      7  C   UNL     1      -1.617  11.170  19.100  0.00  0.00    +0.000 A 
ATOM      8  C   UNL     1      -2.383  12.287  19.499  0.00  0.00    +0.000 A 
ATOM      9  C   UNL     1      -1.867  13.267  20.345  0.00  0.00    +0.000 A 
ATOM     10  C   UNL     1      -0.582  13.140  20.844  0.00  0.00    +0.000 A 
ATOM     11  C   UNL     1       0.176  12.021  20.503  0.00  0.00    +0.000 A 
ATOM     12  C   UNL     1      -0.302  11.017  19.628  0.00  0.00    +0.000 A 
BRANCH   7  14
ATOM     13  C   UNL     1      -2.298  10.493  16.679  0.00  0.00    +0.000 C 
ATOM     14  C   UNL     1      -2.247  10.150  18.164  0.00  0.00    +0.000 C 
ENDBRANCH   7  14
ENDBRANCH   1  12
BRANCH   4  15
ATOM     15  C   UNL     1       3.382   6.654  18.436  0.00  0.00    +0.000 C 
BRANCH  15  16
ATOM     16  C   UNL     1       2.679   5.325  18.120  0.00  0.00    +0.000 C 
BRANCH  16  17
ATOM     17  C   UNL     1       3.360   4.071  18.743  0.00  0.00    +0.000 C 
ATOM     18  C   UNL     1       3.090   4.073  20.262  0.00  0.00    +0.000 C 
BRANCH  17  19
ATOM     19  C   UNL     1       4.866   4.089  18.518  0.00  0.00    +0.000 C 
ATOM     20  O   UNL     1       5.704   4.306  19.388  0.00  0.00    +0.000 OA
ATOM     21  N   UNL     1       5.279   3.896  17.216  0.00  0.00    +0.000 N 
ATOM     22  H   UNL     1       4.709   3.545  16.454  0.00  0.00    +0.000 HD
BRANCH  21  23
ATOM     23  O   UNL     1       6.678   3.858  17.014  0.00  0.00    +0.000 OA
ATOM     24  H   UNL     1       6.759   3.435  16.130  0.00  0.00    +0.000 HD
ENDBRANCH  21  23
ENDBRANCH  17  19
BRANCH  17  25
ATOM     25  S   UNL     1       2.639   2.551  18.016  0.00  0.00    +0.000 S 
ATOM     26  C   UNL     1       1.108   2.218  18.853  0.00  0.00    +0.000 C 
ATOM     27  O   UNL     1       2.292   2.867  16.641  0.00  0.00    +0.000 OA
ATOM     28  O   UNL     1       3.503   1.414  18.278  0.00  0.00    +0.000 OA
ENDBRANCH  17  25
ENDBRANCH  16  17
ENDBRANCH  15  16
ENDBRANCH   4  15
TORSDOF 8
ENDMDL
MODEL 9
REMARK VINA RESULT:      -7.8      1.892      2.394
REMARK  Name = 
REMARK  11 active torsions:
REMARK  status: ('A' for Active; 'I' for Inactive)
REMARK    1  A    between atoms: C_1  and  C_2
REMARK    2  A    between atoms: C_2  and  C_3
REMARK    3  A    between atoms: C_8  and  C_9
REMARK    4  A    between atoms: C_12  and  C_13
REMARK    5  A    between atoms: C_13  and  C_14
REMARK    6  A    between atoms: C_14  and  C_15
REMARK    7  A    between atoms: C_15  and  C_16
REMARK    8  A    between atoms: C_15  and  C_17
REMARK    9  A    between atoms: C_15  and  S_21
REMARK   10  A    between atoms: N_19  and  O_20
REMARK   11  A    between atoms: S_21  and  C_22
REMARK                            x       y       z     vdW  Elec       q    Type
REMARK                         _______ _______ _______ _____ _____    ______ ____
ROOT
ATOM      1  C   UNL     1       0.733  10.006  19.316  0.00  0.00    +0.000 A 
ATOM      2  C   UNL     1       0.986   9.032  20.295  0.00  0.00    +0.000 A 
ATOM      3  C   UNL     1       1.760   7.899  20.028  0.00  0.00    +0.000 A 
ATOM      4  C   UNL     1       2.369   7.744  18.785  0.00  0.00    +0.000 A 
ATOM      5  C   UNL     1       2.193   8.737  17.817  0.00  0.00    +0.000 A 
ATOM      6  C   UNL     1       1.375   9.838  18.074  0.00  0.00    +0.000 A 
ENDROOT
BRANCH   1  12
ATOM      7  C   UNL     1      -1.494  11.281  19.072  0.00  0.00    +0.000 A 
ATOM      8  C   UNL     1      -2.233  12.448  19.365  0.00  0.00    +0.000 A 
ATOM      9  C   UNL     1      -1.671  13.519  20.059  0.00  0.00    +0.000 A 
ATOM     10  C   UNL     1      -0.364  13.436  20.510  0.00  0.00    +0.000 A 
ATOM     11  C   UNL     1       0.369  12.275  20.276  0.00  0.00    +0.000 A 
ATOM     12  C   UNL     1      -0.158  11.177  19.554  0.00  0.00    +0.000 A 
BRANCH   7  14
ATOM     13  C   UNL     1      -2.121  10.223  16.775  0.00  0.00    +0.000 C 
ATOM     14  C   UNL     1      -2.176  10.162  18.298  0.00  0.00    +0.000 C 
ENDBRANCH   7  14
ENDBRANCH   1  12
BRANCH   4  15
ATOM     15  C   UNL     1       3.240   6.557  18.483  0.00  0.00    +0.000 C 
BRANCH  15  16
ATOM     16  C   UNL     1       3.157   5.455  19.551  0.00  0.00    +0.000 C 
BRANCH  16  17
ATOM     17  C   UNL     1       2.671   4.076  19.019  0.00  0.00    +0.000 C 
ATOM     18  C   UNL     1       1.833   4.312  17.745  0.00  0.00    +0.000 C 
BRANCH  17  19
ATOM     19  C   UNL     1       1.801   3.362  20.045  0.00  0.00    +0.000 C 
ATOM     20  O   UNL     1       0.651   2.984  19.850  0.00  0.00    +0.000 OA
ATOM     21  N   UNL     1       2.366   3.191  21.292  0.00  0.00    +0.000 N 
ATOM     22  H   UNL     1       3.347   3.302  21.525  0.00  0.00    +0.000 HD
BRANCH  21  23
ATOM     23  O   UNL     1       1.582   2.480  22.229  0.00  0.00    +0.000 OA
ATOM     24  H   UNL     1       1.890   1.554  22.113  0.00  0.00    +0.000 HD
ENDBRANCH  21  23
ENDBRANCH  17  19
BRANCH  17  25
ATOM     25  S   UNL     1       4.117   3.034  18.592  0.00  0.00    +0.000 S 
ATOM     26  C   UNL     1       3.549   1.361  18.405  0.00  0.00    +0.000 C 
ATOM     27  O   UNL     1       4.569   3.461  17.279  0.00  0.00    +0.000 OA
ATOM     28  O   UNL     1       5.066   3.023  19.691  0.00  0.00    +0.000 OA
ENDBRANCH  17  25
ENDBRANCH  16  17
ENDBRANCH  15  16
ENDBRANCH   4  15
TORSDOF 8
ENDMDL
