MODEL 1
REMARK VINA RESULT:      -7.5      0.000      0.000
REMARK  Name = 
REMARK  5 active torsions:
REMARK  status: ('A' for Active; 'I' for Inactive)
REMARK    1  A    between atoms: C_1  and  C_2
REMARK    2  A    between atoms: C_7  and  N_8
REMARK    3  A    between atoms: C_9  and  C_10
REMARK    4  A    between atoms: N_14  and  C_15
REMARK    5  A    between atoms: C_21  and  C_22
REMARK                            x       y       z     vdW  Elec       q    Type
REMARK                         _______ _______ _______ _____ _____    ______ ____
ROOT
ATOM      1  N   UNL     1      -3.045  12.807  20.603  0.00  0.00    +0.000 N 
ATOM      2  C   UNL     1      -1.784  12.818  20.032  0.00  0.00    +0.000 A 
ATOM      3  N   UNL     1      -1.547  12.375  18.837  0.00  0.00    +0.000 NA
ATOM      4  C   UNL     1      -2.529  11.799  18.070  0.00  0.00    +0.000 A 
ATOM      5  C   UNL     1      -2.110  11.208  16.868  0.00  0.00    +0.000 A 
ATOM      6  C   UNL     1      -3.040  10.658  16.003  0.00  0.00    +0.000 A 
ATOM      7  C   UNL     1      -4.389  10.756  16.325  0.00  0.00    +0.000 A 
ATOM      8  C   UNL     1      -4.807  11.349  17.532  0.00  0.00    +0.000 A 
ATOM      9 CL   UNL     1      -6.513  11.506  17.741  0.00  0.00    +0.000 Cl
ATOM     10  C   UNL     1      -3.861  11.826  18.451  0.00  0.00    +0.000 A 
ATOM     11  C   UNL     1      -4.138  12.326  19.832  0.00  0.00    +0.000 A 
ATOM     12  O   UNL     1      -5.288  12.245  20.263  0.00  0.00    +0.000 OA
ENDROOT
BRANCH   1  19
ATOM     13  C   UNL     1      -3.648  15.824  21.285  0.00  0.00    +0.000 C 
ATOM     14  C   UNL     1      -3.691  14.674  22.239  0.00  0.00    +0.000 A 
ATOM     15  C   UNL     1      -3.916  15.071  23.579  0.00  0.00    +0.000 A 
ATOM     16  C   UNL     1      -3.786  14.182  24.633  0.00  0.00    +0.000 A 
ATOM     17  C   UNL     1      -3.422  12.875  24.362  0.00  0.00    +0.000 A 
ATOM     18  C   UNL     1      -3.210  12.455  23.034  0.00  0.00    +0.000 A 
ATOM     19  C   UNL     1      -3.348  13.329  21.938  0.00  0.00    +0.000 A 
ENDBRANCH   1  19
BRANCH   2  20
ATOM     20  C   UNL     1      -0.561  13.469  20.688  0.00  0.00    +0.000 C 
ATOM     21  C   UNL     1      -0.316  14.787  19.928  0.00  0.00    +0.000 C 
ATOM     22  C   UNL     1       1.177  15.012  19.960  0.00  0.00    +0.000 C 
ATOM     23  C   UNL     1       1.808  13.644  20.186  0.00  0.00    +0.000 C 
ATOM     24  N   UNL     1       0.723  12.702  20.543  0.00  0.00    +0.000 N 
BRANCH  24  25
ATOM     25  C   UNL     1       0.938  11.364  20.208  0.00  0.00    +0.000 A 
ATOM     26  N   UNL     1       1.404  11.158  18.952  0.00  0.00    +0.000 NA
ATOM     27  C   UNL     1       1.602   9.910  18.501  0.00  0.00    +0.000 A 
ATOM     28  N   UNL     1       1.448   8.789  19.195  0.00  0.00    +0.000 NA
ATOM     29  C   UNL     1       1.028   8.963  20.448  0.00  0.00    +0.000 A 
ATOM     30  N   UNL     1       0.974   7.783  21.206  0.00  0.00    +0.000 N 
ATOM     31  C   UNL     1       0.747  10.219  21.001  0.00  0.00    +0.000 A 
ATOM     32  H   UNL     1       1.139   6.982  20.604  0.00  0.00    +0.000 HD
ATOM     33  H   UNL     1       0.145   7.681  21.785  0.00  0.00    +0.000 HD
BRANCH  31  34
ATOM     34  C   UNL     1       0.197  10.148  22.312  0.00  0.00    +0.000 C 
ATOM     35  N   UNL     1      -0.042  10.006  23.435  0.00  0.00    +0.000 NA
ENDBRANCH  31  34
ENDBRANCH  24  25
ENDBRANCH   2  20
TORSDOF 4
ENDMDL
MODEL 2
REMARK VINA RESULT:      -7.3      0.713      1.776
REMARK  Name = 
REMARK  5 active torsions:
REMARK  status: ('A' for Active; 'I' for Inactive)
REMARK    1  A    between atoms: C_1  and  C_2
REMARK    2  A    between atoms: C_7  and  N_8
REMARK    3  A    between atoms: C_9  and  C_10
REMARK    4  A    between atoms: N_14  and  C_15
REMARK    5  A    between atoms: C_21  and  C_22
REMARK                            x       y       z     vdW  Elec       q    Type
REMARK                         _______ _______ _______ _____ _____    ______ ____
ROOT
ATOM      1  N   UNL     1      -3.135  12.934  20.465  0.00  0.00    +0.000 N 
ATOM      2  C   UNL     1      -1.876  12.905  19.888  0.00  0.00    +0.000 A 
ATOM      3  N   UNL     1      -1.645  12.380  18.726  0.00  0.00    +0.000 NA
ATOM      4  C   UNL     1      -2.631  11.751  18.007  0.00  0.00    +0.000 A 
ATOM      5  C   UNL     1      -2.219  11.078  16.847  0.00  0.00    +0.000 A 
ATOM      6  C   UNL     1      -3.152  10.468  16.027  0.00  0.00    +0.000 A 
ATOM      7  C   UNL     1      -4.500  10.588  16.348  0.00  0.00    +0.000 A 
ATOM      8  C   UNL     1      -4.912  11.265  17.513  0.00  0.00    +0.000 A 
ATOM      9 CL   UNL     1      -6.617  11.435  17.719  0.00  0.00    +0.000 Cl
ATOM     10  C   UNL     1      -3.962  11.804  18.391  0.00  0.00    +0.000 A 
ATOM     11  C   UNL     1      -4.231  12.400  19.736  0.00  0.00    +0.000 A 
ATOM     12  O   UNL     1      -5.379  12.349  20.177  0.00  0.00    +0.000 OA
ENDROOT
BRANCH   1  19
ATOM     13  C   UNL     1      -3.575  16.014  20.963  0.00  0.00    +0.000 C 
ATOM     14  C   UNL     1      -3.702  14.925  21.980  0.00  0.00    +0.000 A 
ATOM     15  C   UNL     1      -3.926  15.411  23.290  0.00  0.00    +0.000 A 
ATOM     16  C   UNL     1      -3.867  14.578  24.394  0.00  0.00    +0.000 A 
ATOM     17  C   UNL     1      -3.574  13.238  24.205  0.00  0.00    +0.000 A 
ATOM     18  C   UNL     1      -3.363  12.732  22.908  0.00  0.00    +0.000 A 
ATOM     19  C   UNL     1      -3.431  13.548  21.762  0.00  0.00    +0.000 A 
ENDBRANCH   1  19
BRANCH   2  20
ATOM     20  C   UNL     1      -0.651  13.601  20.490  0.00  0.00    +0.000 C 
ATOM     21  C   UNL     1       0.103  14.242  19.310  0.00  0.00    +0.000 C 
ATOM     22  C   UNL     1       1.566  14.205  19.683  0.00  0.00    +0.000 C 
ATOM     23  C   UNL     1       1.713  13.094  20.716  0.00  0.00    +0.000 C 
ATOM     24  N   UNL     1       0.352  12.682  21.129  0.00  0.00    +0.000 N 
BRANCH  24  25
ATOM     25  C   UNL     1       0.216  11.360  21.557  0.00  0.00    +0.000 A 
ATOM     26  N   UNL     1      -0.261  11.213  22.817  0.00  0.00    +0.000 NA
ATOM     27  C   UNL     1      -0.388   9.990  23.352  0.00  0.00    +0.000 A 
ATOM     28  N   UNL     1      -0.149   8.835  22.744  0.00  0.00    +0.000 NA
ATOM     29  C   UNL     1       0.284   8.947  21.488  0.00  0.00    +0.000 A 
ATOM     30  N   UNL     1       0.429   7.723  20.818  0.00  0.00    +0.000 N 
ATOM     31  C   UNL     1       0.496  10.177  20.851  0.00  0.00    +0.000 A 
ATOM     32  H   UNL     1       0.303   6.957  21.473  0.00  0.00    +0.000 HD
ATOM     33  H   UNL     1       1.275   7.634  20.261  0.00  0.00    +0.000 HD
BRANCH  31  34
ATOM     34  C   UNL     1       1.075  10.049  19.557  0.00  0.00    +0.000 C 
ATOM     35  N   UNL     1       1.450   9.734  18.508  0.00  0.00    +0.000 NA
ENDBRANCH  31  34
ENDBRANCH  24  25
ENDBRANCH   2  20
TORSDOF 4
ENDMDL
MODEL 3
REMARK VINA RESULT:      -7.2      0.478      1.263
REMARK  Name = 
REMARK  5 active torsions:
REMARK  status: ('A' for Active; 'I' for Inactive)
REMARK    1  A    between atoms: C_1  and  C_2
REMARK    2  A    between atoms: C_7  and  N_8
REMARK    3  A    between atoms: C_9  and  C_10
REMARK    4  A    between atoms: N_14  and  C_15
REMARK    5  A    between atoms: C_21  and  C_22
REMARK                            x       y       z     vdW  Elec       q    Type
REMARK                         _______ _______ _______ _____ _____    ______ ____
ROOT
ATOM      1  N   UNL     1      -2.963  13.142  20.552  0.00  0.00    +0.000 N 
ATOM      2  C   UNL     1      -1.712  12.965  19.986  0.00  0.00    +0.000 A 
ATOM      3  N   UNL     1      -1.520  12.294  18.894  0.00  0.00    +0.000 NA
ATOM      4  C   UNL     1      -2.547  11.651  18.249  0.00  0.00    +0.000 A 
ATOM      5  C   UNL     1      -2.184  10.823  17.176  0.00  0.00    +0.000 A 
ATOM      6  C   UNL     1      -3.159  10.184  16.429  0.00  0.00    +0.000 A 
ATOM      7  C   UNL     1      -4.495  10.428  16.729  0.00  0.00    +0.000 A 
ATOM      8  C   UNL     1      -4.857  11.260  17.807  0.00  0.00    +0.000 A 
ATOM      9 CL   UNL     1      -6.546  11.564  17.985  0.00  0.00    +0.000 Cl
ATOM     10  C   UNL     1      -3.870  11.835  18.620  0.00  0.00    +0.000 A 
ATOM     11  C   UNL     1      -4.095  12.599  19.885  0.00  0.00    +0.000 A 
ATOM     12  O   UNL     1      -5.242  12.675  20.325  0.00  0.00    +0.000 OA
ENDROOT
BRANCH   1  19
ATOM     13  C   UNL     1      -3.018  11.980  23.480  0.00  0.00    +0.000 C 
ATOM     14  C   UNL     1      -3.169  13.416  23.093  0.00  0.00    +0.000 A 
ATOM     15  C   UNL     1      -3.479  14.257  24.189  0.00  0.00    +0.000 A 
ATOM     16  C   UNL     1      -3.858  15.577  24.008  0.00  0.00    +0.000 A 
ATOM     17  C   UNL     1      -3.938  16.078  22.720  0.00  0.00    +0.000 A 
ATOM     18  C   UNL     1      -3.618  15.262  21.618  0.00  0.00    +0.000 A 
ATOM     19  C   UNL     1      -3.214  13.921  21.767  0.00  0.00    +0.000 A 
ENDBRANCH   1  19
BRANCH   2  20
ATOM     20  C   UNL     1      -0.441  13.644  20.508  0.00  0.00    +0.000 C 
ATOM     21  C   UNL     1      -0.269  14.930  19.678  0.00  0.00    +0.000 C 
ATOM     22  C   UNL     1       1.220  15.159  19.572  0.00  0.00    +0.000 C 
ATOM     23  C   UNL     1       1.875  13.802  19.799  0.00  0.00    +0.000 C 
ATOM     24  N   UNL     1       0.829  12.874  20.285  0.00  0.00    +0.000 N 
BRANCH  24  25
ATOM     25  C   UNL     1       1.022  11.524  19.987  0.00  0.00    +0.000 A 
ATOM     26  N   UNL     1       1.483  11.275  18.737  0.00  0.00    +0.000 NA
ATOM     27  C   UNL     1       1.659  10.012  18.321  0.00  0.00    +0.000 A 
ATOM     28  N   UNL     1       1.489   8.914  19.046  0.00  0.00    +0.000 NA
ATOM     29  C   UNL     1       1.074   9.129  20.294  0.00  0.00    +0.000 A 
ATOM     30  N   UNL     1       1.002   7.973  21.086  0.00  0.00    +0.000 N 
ATOM     31  C   UNL     1       0.814  10.405  20.813  0.00  0.00    +0.000 A 
ATOM     32  H   UNL     1       1.153   7.152  20.507  0.00  0.00    +0.000 HD
ATOM     33  H   UNL     1       0.173   7.900  21.669  0.00  0.00    +0.000 HD
BRANCH  31  34
ATOM     34  C   UNL     1       0.266  10.380  22.126  0.00  0.00    +0.000 C 
ATOM     35  N   UNL     1       0.002  10.223  23.242  0.00  0.00    +0.000 NA
ENDBRANCH  31  34
ENDBRANCH  24  25
ENDBRANCH   2  20
TORSDOF 4
ENDMDL
MODEL 4
REMARK VINA RESULT:      -7.2      2.890      6.491
REMARK  Name = 
REMARK  5 active torsions:
REMARK  status: ('A' for Active; 'I' for Inactive)
REMARK    1  A    between atoms: C_1  and  C_2
REMARK    2  A    between atoms: C_7  and  N_8
REMARK    3  A    between atoms: C_9  and  C_10
REMARK    4  A    between atoms: N_14  and  C_15
REMARK    5  A    between atoms: C_21  and  C_22
REMARK                            x       y       z     vdW  Elec       q    Type
REMARK                         _______ _______ _______ _____ _____    ______ ____
ROOT
ATOM      1  N   UNL     1      -0.099  12.425  20.532  0.00  0.00    +0.000 N 
ATOM      2  C   UNL     1      -1.222  12.867  19.853  0.00  0.00    +0.000 A 
ATOM      3  N   UNL     1      -1.256  13.983  19.196  0.00  0.00    +0.000 NA
ATOM      4  C   UNL     1      -0.188  14.846  19.180  0.00  0.00    +0.000 A 
ATOM      5  C   UNL     1      -0.408  16.093  18.576  0.00  0.00    +0.000 A 
ATOM      6  C   UNL     1       0.629  17.003  18.459  0.00  0.00    +0.000 A 
ATOM      7  C   UNL     1       1.895  16.630  18.899  0.00  0.00    +0.000 A 
ATOM      8  C   UNL     1       2.113  15.377  19.505  0.00  0.00    +0.000 A 
ATOM      9 CL   UNL     1       3.754  15.006  19.891  0.00  0.00    +0.000 Cl
ATOM     10  C   UNL     1       1.045  14.492  19.705  0.00  0.00    +0.000 A 
ATOM     11  C   UNL     1       1.085  13.209  20.473  0.00  0.00    +0.000 A 
ATOM     12  O   UNL     1       2.122  12.918  21.069  0.00  0.00    +0.000 OA
ENDROOT
BRANCH   1  19
ATOM     13  C   UNL     1       0.852   9.684  19.303  0.00  0.00    +0.000 C 
ATOM     14  C   UNL     1       0.474   9.932  20.728  0.00  0.00    +0.000 A 
ATOM     15  C   UNL     1       0.452   8.754  21.511  0.00  0.00    +0.000 A 
ATOM     16  C   UNL     1      -0.069   8.743  22.794  0.00  0.00    +0.000 A 
ATOM     17  C   UNL     1      -0.585   9.917  23.314  0.00  0.00    +0.000 A 
ATOM     18  C   UNL     1      -0.559  11.103  22.557  0.00  0.00    +0.000 A 
ATOM     19  C   UNL     1      -0.022  11.154  21.256  0.00  0.00    +0.000 A 
ENDBRANCH   1  19
BRANCH   2  20
ATOM     20  C   UNL     1      -2.499  12.033  19.693  0.00  0.00    +0.000 C 
ATOM     21  C   UNL     1      -2.723  11.878  18.177  0.00  0.00    +0.000 C 
ATOM     22  C   UNL     1      -4.219  11.816  17.983  0.00  0.00    +0.000 C 
ATOM     23  C   UNL     1      -4.833  12.487  19.206  0.00  0.00    +0.000 C 
ATOM     24  N   UNL     1      -3.753  12.688  20.198  0.00  0.00    +0.000 N 
BRANCH  24  25
ATOM     25  C   UNL     1      -3.917  13.765  21.072  0.00  0.00    +0.000 A 
ATOM     26  N   UNL     1      -4.031  14.975  20.472  0.00  0.00    +0.000 NA
ATOM     27  C   UNL     1      -4.143  16.088  21.213  0.00  0.00    +0.000 A 
ATOM     28  N   UNL     1      -4.224  16.148  22.536  0.00  0.00    +0.000 NA
ATOM     29  C   UNL     1      -4.155  14.968  23.152  0.00  0.00    +0.000 A 
ATOM     30  N   UNL     1      -4.352  15.030  24.540  0.00  0.00    +0.000 N 
ATOM     31  C   UNL     1      -3.990  13.751  22.475  0.00  0.00    +0.000 A 
ATOM     32  H   UNL     1      -4.376  16.001  24.838  0.00  0.00    +0.000 HD
ATOM     33  H   UNL     1      -3.716  14.461  25.091  0.00  0.00    +0.000 HD
BRANCH  31  34
ATOM     34  C   UNL     1      -3.822  12.640  23.348  0.00  0.00    +0.000 C 
ATOM     35  N   UNL     1      -3.817  11.859  24.202  0.00  0.00    +0.000 NA
ENDBRANCH  31  34
ENDBRANCH  24  25
ENDBRANCH   2  20
TORSDOF 4
ENDMDL
MODEL 5
REMARK VINA RESULT:      -6.9      0.842      2.174
REMARK  Name = 
REMARK  5 active torsions:
REMARK  status: ('A' for Active; 'I' for Inactive)
REMARK    1  A    between atoms: C_1  and  C_2
REMARK    2  A    between atoms: C_7  and  N_8
REMARK    3  A    between atoms: C_9  and  C_10
REMARK    4  A    between atoms: N_14  and  C_15
REMARK    5  A    between atoms: C_21  and  C_22
REMARK                            x       y       z     vdW  Elec       q    Type
REMARK                         _______ _______ _______ _____ _____    ______ ____
ROOT
ATOM      1  N   UNL     1      -3.323  13.276  20.658  0.00  0.00    +0.000 N 
ATOM      2  C   UNL     1      -2.035  13.105  20.177  0.00  0.00    +0.000 A 
ATOM      3  N   UNL     1      -1.763  12.405  19.121  0.00  0.00    +0.000 NA
ATOM      4  C   UNL     1      -2.737  11.723  18.434  0.00  0.00    +0.000 A 
ATOM      5  C   UNL     1      -2.292  10.869  17.414  0.00  0.00    +0.000 A 
ATOM      6  C   UNL     1      -3.207  10.188  16.629  0.00  0.00    +0.000 A 
ATOM      7  C   UNL     1      -4.563  10.416  16.837  0.00  0.00    +0.000 A 
ATOM      8  C   UNL     1      -5.007  11.274  17.862  0.00  0.00    +0.000 A 
ATOM      9 CL   UNL     1      -6.709  11.551  17.924  0.00  0.00    +0.000 Cl
ATOM     10  C   UNL     1      -4.083  11.893  18.716  0.00  0.00    +0.000 A 
ATOM     11  C   UNL     1      -4.401  12.691  19.939  0.00  0.00    +0.000 A 
ATOM     12  O   UNL     1      -5.575  12.759  20.304  0.00  0.00    +0.000 OA
ENDROOT
BRANCH   1  19
ATOM     13  C   UNL     1      -3.472  12.220  23.622  0.00  0.00    +0.000 C 
ATOM     14  C   UNL     1      -3.661  13.634  23.175  0.00  0.00    +0.000 A 
ATOM     15  C   UNL     1      -4.058  14.500  24.221  0.00  0.00    +0.000 A 
ATOM     16  C   UNL     1      -4.480  15.795  23.973  0.00  0.00    +0.000 A 
ATOM     17  C   UNL     1      -4.518  16.245  22.664  0.00  0.00    +0.000 A 
ATOM     18  C   UNL     1      -4.113  15.404  21.611  0.00  0.00    +0.000 A 
ATOM     19  C   UNL     1      -3.663  14.087  21.829  0.00  0.00    +0.000 A 
ENDBRANCH   1  19
BRANCH   2  20
ATOM     20  C   UNL     1      -0.812  13.825  20.756  0.00  0.00    +0.000 C 
ATOM     21  C   UNL     1      -0.171  14.594  19.584  0.00  0.00    +0.000 C 
ATOM     22  C   UNL     1       1.312  14.615  19.864  0.00  0.00    +0.000 C 
ATOM     23  C   UNL     1       1.585  13.441  20.798  0.00  0.00    +0.000 C 
ATOM     24  N   UNL     1       0.278  12.922  21.260  0.00  0.00    +0.000 N 
BRANCH  24  25
ATOM     25  C   UNL     1       0.241  11.567  21.592  0.00  0.00    +0.000 A 
ATOM     26  N   UNL     1      -0.255  11.293  22.824  0.00  0.00    +0.000 NA
ATOM     27  C   UNL     1      -0.294  10.030  23.272  0.00  0.00    +0.000 A 
ATOM     28  N   UNL     1       0.055   8.943  22.594  0.00  0.00    +0.000 NA
ATOM     29  C   UNL     1       0.510   9.177  21.363  0.00  0.00    +0.000 A 
ATOM     30  N   UNL     1       0.772   8.019  20.616  0.00  0.00    +0.000 N 
ATOM     31  C   UNL     1       0.635  10.462  20.817  0.00  0.00    +0.000 A 
ATOM     32  H   UNL     1       0.694   7.202  21.213  0.00  0.00    +0.000 HD
ATOM     33  H   UNL     1       1.636   8.038  20.081  0.00  0.00    +0.000 HD
BRANCH  31  34
ATOM     34  C   UNL     1       1.256  10.472  19.536  0.00  0.00    +0.000 C 
ATOM     35  N   UNL     1       1.555  10.404  18.421  0.00  0.00    +0.000 NA
ENDBRANCH  31  34
ENDBRANCH  24  25
ENDBRANCH   2  20
TORSDOF 4
ENDMDL
MODEL 6
REMARK VINA RESULT:      -6.8      2.551      5.570
REMARK  Name = 
REMARK  5 active torsions:
REMARK  status: ('A' for Active; 'I' for Inactive)
REMARK    1  A    between atoms: C_1  and  C_2
REMARK    2  A    between atoms: C_7  and  N_8
REMARK    3  A    between atoms: C_9  and  C_10
REMARK    4  A    between atoms: N_14  and  C_15
REMARK    5  A    between atoms: C_21  and  C_22
REMARK                            x       y       z     vdW  Elec       q    Type
REMARK                         _______ _______ _______ _____ _____    ______ ____
ROOT
ATOM      1  N   UNL     1      -0.487  13.685  20.977  0.00  0.00    +0.000 N 
ATOM      2  C   UNL     1      -1.510  12.860  20.542  0.00  0.00    +0.000 A 
ATOM      3  N   UNL     1      -2.554  12.591  21.262  0.00  0.00    +0.000 NA
ATOM      4  C   UNL     1      -2.689  13.061  22.545  0.00  0.00    +0.000 A 
ATOM      5  C   UNL     1      -3.779  12.563  23.275  0.00  0.00    +0.000 A 
ATOM      6  C   UNL     1      -4.029  13.028  24.555  0.00  0.00    +0.000 A 
ATOM      7  C   UNL     1      -3.215  14.031  25.070  0.00  0.00    +0.000 A 
ATOM      8  C   UNL     1      -2.121  14.529  24.335  0.00  0.00    +0.000 A 
ATOM      9 CL   UNL     1      -1.275  15.852  25.051  0.00  0.00    +0.000 Cl
ATOM     10  C   UNL     1      -1.814  13.995  23.076  0.00  0.00    +0.000 A 
ATOM     11  C   UNL     1      -0.603  14.300  22.253  0.00  0.00    +0.000 A 
ATOM     12  O   UNL     1       0.267  15.021  22.741  0.00  0.00    +0.000 OA
ENDROOT
BRANCH   1  19
ATOM     13  C   UNL     1      -0.322  16.068  18.923  0.00  0.00    +0.000 C 
ATOM     14  C   UNL     1       0.792  15.147  19.301  0.00  0.00    +0.000 A 
ATOM     15  C   UNL     1       1.967  15.350  18.538  0.00  0.00    +0.000 A 
ATOM     16  C   UNL     1       3.033  14.468  18.594  0.00  0.00    +0.000 A 
ATOM     17  C   UNL     1       2.938  13.358  19.416  0.00  0.00    +0.000 A 
ATOM     18  C   UNL     1       1.785  13.146  20.195  0.00  0.00    +0.000 A 
ATOM     19  C   UNL     1       0.689  14.031  20.174  0.00  0.00    +0.000 A 
ENDBRANCH   1  19
BRANCH   2  20
ATOM     20  C   UNL     1      -1.588  12.280  19.125  0.00  0.00    +0.000 C 
ATOM     21  C   UNL     1      -3.083  12.257  18.753  0.00  0.00    +0.000 C 
ATOM     22  C   UNL     1      -3.264  11.065  17.844  0.00  0.00    +0.000 C 
ATOM     23  C   UNL     1      -2.106  10.121  18.145  0.00  0.00    +0.000 C 
ATOM     24  N   UNL     1      -1.141  10.852  18.996  0.00  0.00    +0.000 N 
BRANCH  24  25
ATOM     25  C   UNL     1      -0.369  10.070  19.858  0.00  0.00    +0.000 A 
ATOM     26  N   UNL     1      -0.761  10.093  21.156  0.00  0.00    +0.000 NA
ATOM     27  C   UNL     1      -0.065   9.418  22.083  0.00  0.00    +0.000 A 
ATOM     28  N   UNL     1       0.984   8.635  21.865  0.00  0.00    +0.000 NA
ATOM     29  C   UNL     1       1.368   8.560  20.591  0.00  0.00    +0.000 A 
ATOM     30  N   UNL     1       2.405   7.646  20.354  0.00  0.00    +0.000 N 
ATOM     31  C   UNL     1       0.740   9.262  19.552  0.00  0.00    +0.000 A 
ATOM     32  H   UNL     1       2.768   7.304  21.238  0.00  0.00    +0.000 HD
ATOM     33  H   UNL     1       3.134   7.974  19.726  0.00  0.00    +0.000 HD
BRANCH  31  34
ATOM     34  C   UNL     1       1.398   9.122  18.298  0.00  0.00    +0.000 C 
ATOM     35  N   UNL     1       2.127   9.026  17.404  0.00  0.00    +0.000 NA
ENDBRANCH  31  34
ENDBRANCH  24  25
ENDBRANCH   2  20
TORSDOF 4
ENDMDL
MODEL 7
REMARK VINA RESULT:      -6.8      2.848      6.536
REMARK  Name = 
REMARK  5 active torsions:
REMARK  status: ('A' for Active; 'I' for Inactive)
REMARK    1  A    between atoms: C_1  and  C_2
REMARK    2  A    between atoms: C_7  and  N_8
REMARK    3  A    between atoms: C_9  and  C_10
REMARK    4  A    between atoms: N_14  and  C_15
REMARK    5  A    between atoms: C_21  and  C_22
REMARK                            x       y       z     vdW  Elec       q    Type
REMARK                         _______ _______ _______ _____ _____    ______ ____
ROOT
ATOM      1  N   UNL     1       0.495  12.215  19.748  0.00  0.00    +0.000 N 
ATOM      2  C   UNL     1      -0.753  12.625  19.311  0.00  0.00    +0.000 A 
ATOM      3  N   UNL     1      -0.991  13.825  18.882  0.00  0.00    +0.000 NA
ATOM      4  C   UNL     1      -0.027  14.802  18.891  0.00  0.00    +0.000 A 
ATOM      5  C   UNL     1      -0.454  16.097  18.561  0.00  0.00    +0.000 A 
ATOM      6  C   UNL     1       0.461  17.133  18.484  0.00  0.00    +0.000 A 
ATOM      7  C   UNL     1       1.808  16.847  18.683  0.00  0.00    +0.000 A 
ATOM      8  C   UNL     1       2.234  15.546  19.014  0.00  0.00    +0.000 A 
ATOM      9 CL   UNL     1       3.942  15.318  19.114  0.00  0.00    +0.000 Cl
ATOM     10  C   UNL     1       1.298  14.516  19.181  0.00  0.00    +0.000 A 
ATOM     11  C   UNL     1       1.575  13.137  19.686  0.00  0.00    +0.000 A 
ATOM     12  O   UNL     1       2.711  12.877  20.081  0.00  0.00    +0.000 OA
ENDROOT
BRANCH   1  19
ATOM     13  C   UNL     1       1.186   9.771  17.883  0.00  0.00    +0.000 C 
ATOM     14  C   UNL     1       1.183   9.772  19.378  0.00  0.00    +0.000 A 
ATOM     15  C   UNL     1       1.406   8.490  19.935  0.00  0.00    +0.000 A 
ATOM     16  C   UNL     1       1.237   8.246  21.287  0.00  0.00    +0.000 A 
ATOM     17  C   UNL     1       0.834   9.285  22.108  0.00  0.00    +0.000 A 
ATOM     18  C   UNL     1       0.623  10.571  21.576  0.00  0.00    +0.000 A 
ATOM     19  C   UNL     1       0.800  10.858  20.208  0.00  0.00    +0.000 A 
ENDBRANCH   1  19
BRANCH   2  20
ATOM     20  C   UNL     1      -1.952  11.682  19.162  0.00  0.00    +0.000 C 
ATOM     21  C   UNL     1      -2.255  11.606  17.654  0.00  0.00    +0.000 C 
ATOM     22  C   UNL     1      -3.748  11.409  17.540  0.00  0.00    +0.000 C 
ATOM     23  C   UNL     1      -4.345  11.933  18.840  0.00  0.00    +0.000 C 
ATOM     24  N   UNL     1      -3.229  12.173  19.783  0.00  0.00    +0.000 N 
BRANCH  24  25
ATOM     25  C   UNL     1      -3.440  13.168  20.739  0.00  0.00    +0.000 A 
ATOM     26  N   UNL     1      -4.067  14.279  20.281  0.00  0.00    +0.000 NA
ATOM     27  C   UNL     1      -4.279  15.320  21.099  0.00  0.00    +0.000 A 
ATOM     28  N   UNL     1      -3.991  15.377  22.393  0.00  0.00    +0.000 NA
ATOM     29  C   UNL     1      -3.408  14.283  22.882  0.00  0.00    +0.000 A 
ATOM     30  N   UNL     1      -3.207  14.308  24.271  0.00  0.00    +0.000 N 
ATOM     31  C   UNL     1      -3.100  13.158  22.104  0.00  0.00    +0.000 A 
ATOM     32  H   UNL     1      -3.425  15.232  24.630  0.00  0.00    +0.000 HD
ATOM     33  H   UNL     1      -2.303  13.963  24.581  0.00  0.00    +0.000 HD
BRANCH  31  34
ATOM     34  C   UNL     1      -2.373  12.163  22.815  0.00  0.00    +0.000 C 
ATOM     35  N   UNL     1      -1.991  11.269  23.443  0.00  0.00    +0.000 NA
ENDBRANCH  31  34
ENDBRANCH  24  25
ENDBRANCH   2  20
TORSDOF 4
ENDMDL
MODEL 8
REMARK VINA RESULT:      -6.7      3.633      6.345
REMARK  Name = 
REMARK  5 active torsions:
REMARK  status: ('A' for Active; 'I' for Inactive)
REMARK    1  A    between atoms: C_1  and  C_2
REMARK    2  A    between atoms: C_7  and  N_8
REMARK    3  A    between atoms: C_9  and  C_10
REMARK    4  A    between atoms: N_14  and  C_15
REMARK    5  A    between atoms: C_21  and  C_22
REMARK                            x       y       z     vdW  Elec       q    Type
REMARK                         _______ _______ _______ _____ _____    ______ ____
ROOT
ATOM      1  N   UNL     1      -0.575  14.416  21.173  0.00  0.00    +0.000 N 
ATOM      2  C   UNL     1      -1.111  14.266  22.441  0.00  0.00    +0.000 A 
ATOM      3  N   UNL     1      -1.182  13.122  23.046  0.00  0.00    +0.000 NA
ATOM      4  C   UNL     1      -0.785  11.956  22.440  0.00  0.00    +0.000 A 
ATOM      5  C   UNL     1      -1.069  10.769  23.132  0.00  0.00    +0.000 A 
ATOM      6  C   UNL     1      -0.651   9.551  22.626  0.00  0.00    +0.000 A 
ATOM      7  C   UNL     1       0.101   9.539  21.456  0.00  0.00    +0.000 A 
ATOM      8  C   UNL     1       0.385  10.732  20.762  0.00  0.00    +0.000 A 
ATOM      9 CL   UNL     1       1.425  10.575  19.394  0.00  0.00    +0.000 Cl
ATOM     10  C   UNL     1      -0.116  11.956  21.226  0.00  0.00    +0.000 A 
ATOM     11  C   UNL     1      -0.041  13.272  20.520  0.00  0.00    +0.000 A 
ATOM     12  O   UNL     1       0.426  13.297  19.381  0.00  0.00    +0.000 OA
ENDROOT
BRANCH   1  19
ATOM     13  C   UNL     1       1.854  16.406  21.437  0.00  0.00    +0.000 C 
ATOM     14  C   UNL     1       0.672  16.565  20.537  0.00  0.00    +0.000 A 
ATOM     15  C   UNL     1       0.653  17.807  19.858  0.00  0.00    +0.000 A 
ATOM     16  C   UNL     1      -0.455  18.228  19.143  0.00  0.00    +0.000 A 
ATOM     17  C   UNL     1      -1.571  17.412  19.099  0.00  0.00    +0.000 A 
ATOM     18  C   UNL     1      -1.567  16.165  19.754  0.00  0.00    +0.000 A 
ATOM     19  C   UNL     1      -0.452  15.699  20.478  0.00  0.00    +0.000 A 
ENDBRANCH   1  19
BRANCH   2  20
ATOM     20  C   UNL     1      -1.556  15.442  23.318  0.00  0.00    +0.000 C 
ATOM     21  C   UNL     1      -1.042  15.137  24.738  0.00  0.00    +0.000 C 
ATOM     22  C   UNL     1      -2.051  15.745  25.682  0.00  0.00    +0.000 C 
ATOM     23  C   UNL     1      -3.352  15.864  24.896  0.00  0.00    +0.000 C 
ATOM     24  N   UNL     1      -3.043  15.591  23.474  0.00  0.00    +0.000 N 
BRANCH  24  25
ATOM     25  C   UNL     1      -4.085  15.059  22.713  0.00  0.00    +0.000 A 
ATOM     26  N   UNL     1      -4.490  15.835  21.677  0.00  0.00    +0.000 NA
ATOM     27  C   UNL     1      -5.517  15.449  20.906  0.00  0.00    +0.000 A 
ATOM     28  N   UNL     1      -6.185  14.306  20.997  0.00  0.00    +0.000 NA
ATOM     29  C   UNL     1      -5.782  13.504  21.983  0.00  0.00    +0.000 A 
ATOM     30  N   UNL     1      -6.418  12.253  22.004  0.00  0.00    +0.000 N 
ATOM     31  C   UNL     1      -4.752  13.832  22.874  0.00  0.00    +0.000 A 
ATOM     32  H   UNL     1      -7.179  12.245  21.331  0.00  0.00    +0.000 HD
ATOM     33  H   UNL     1      -6.699  11.928  22.925  0.00  0.00    +0.000 HD
BRANCH  31  34
ATOM     34  C   UNL     1      -4.581  12.876  23.915  0.00  0.00    +0.000 C 
ATOM     35  N   UNL     1      -4.487  11.945  24.596  0.00  0.00    +0.000 NA
ENDBRANCH  31  34
ENDBRANCH  24  25
ENDBRANCH   2  20
TORSDOF 4
ENDMDL
MODEL 9
REMARK VINA RESULT:      -6.6      1.112      2.081
REMARK  Name = 
REMARK  5 active torsions:
REMARK  status: ('A' for Active; 'I' for Inactive)
REMARK    1  A    between atoms: C_1  and  C_2
REMARK    2  A    between atoms: C_7  and  N_8
REMARK    3  A    between atoms: C_9  and  C_10
REMARK    4  A    between atoms: N_14  and  C_15
REMARK    5  A    between atoms: C_21  and  C_22
REMARK                            x       y       z     vdW  Elec       q    Type
REMARK                         _______ _______ _______ _____ _____    ______ ____
ROOT
ATOM      1  N   UNL     1      -3.413  13.569  21.270  0.00  0.00    +0.000 N 
ATOM      2  C   UNL     1      -2.264  13.321  20.539  0.00  0.00    +0.000 A 
ATOM      3  N   UNL     1      -2.262  12.642  19.435  0.00  0.00    +0.000 NA
ATOM      4  C   UNL     1      -3.403  12.060  18.941  0.00  0.00    +0.000 A 
ATOM      5  C   UNL     1      -3.239  11.214  17.834  0.00  0.00    +0.000 A 
ATOM      6  C   UNL     1      -4.341  10.633  17.232  0.00  0.00    +0.000 A 
ATOM      7  C   UNL     1      -5.607  10.953  17.711  0.00  0.00    +0.000 A 
ATOM      8  C   UNL     1      -5.770  11.803  18.823  0.00  0.00    +0.000 A 
ATOM      9 CL   UNL     1      -7.399  12.203  19.229  0.00  0.00    +0.000 Cl
ATOM     10  C   UNL     1      -4.650  12.319  19.489  0.00  0.00    +0.000 A 
ATOM     11  C   UNL     1      -4.655  13.093  20.768  0.00  0.00    +0.000 A 
ATOM     12  O   UNL     1      -5.725  13.234  21.361  0.00  0.00    +0.000 OA
ENDROOT
BRANCH   1  19
ATOM     13  C   UNL     1      -3.640  16.708  21.415  0.00  0.00    +0.000 C 
ATOM     14  C   UNL     1      -3.625  15.766  22.576  0.00  0.00    +0.000 A 
ATOM     15  C   UNL     1      -3.594  16.426  23.827  0.00  0.00    +0.000 A 
ATOM     16  C   UNL     1      -3.370  15.737  25.007  0.00  0.00    +0.000 A 
ATOM     17  C   UNL     1      -3.167  14.369  24.953  0.00  0.00    +0.000 A 
ATOM     18  C   UNL     1      -3.209  13.691  23.720  0.00  0.00    +0.000 A 
ATOM     19  C   UNL     1      -3.450  14.358  22.503  0.00  0.00    +0.000 A 
ENDBRANCH   1  19
BRANCH   2  20
ATOM     20  C   UNL     1      -0.897  13.926  20.877  0.00  0.00    +0.000 C 
ATOM     21  C   UNL     1      -0.387  14.588  19.583  0.00  0.00    +0.000 C 
ATOM     22  C   UNL     1       1.117  14.463  19.618  0.00  0.00    +0.000 C 
ATOM     23  C   UNL     1       1.425  13.295  20.548  0.00  0.00    +0.000 C 
ATOM     24  N   UNL     1       0.168  12.929  21.239  0.00  0.00    +0.000 N 
BRANCH  24  25
ATOM     25  C   UNL     1       0.054  11.596  21.636  0.00  0.00    +0.000 A 
ATOM     26  N   UNL     1      -0.438  11.411  22.885  0.00  0.00    +0.000 NA
ATOM     27  C   UNL     1      -0.547  10.174  23.392  0.00  0.00    +0.000 A 
ATOM     28  N   UNL     1      -0.275   9.038  22.762  0.00  0.00    +0.000 NA
ATOM     29  C   UNL     1       0.174   9.186  21.516  0.00  0.00    +0.000 A 
ATOM     30  N   UNL     1       0.354   7.981  20.821  0.00  0.00    +0.000 N 
ATOM     31  C   UNL     1       0.368  10.434  20.908  0.00  0.00    +0.000 A 
ATOM     32  H   UNL     1       0.235   7.198  21.457  0.00  0.00    +0.000 HD
ATOM     33  H   UNL     1       1.209   7.922  20.274  0.00  0.00    +0.000 HD
BRANCH  31  34
ATOM     34  C   UNL     1       0.968  10.347  19.620  0.00  0.00    +0.000 C 
ATOM     35  N   UNL     1       1.419  10.049  18.597  0.00  0.00    +0.000 NA
ENDBRANCH  31  34
ENDBRANCH  24  25
ENDBRANCH   2  20
TORSDOF 4
ENDMDL
