MODEL 1
REMARK VINA RESULT:      -7.7      0.000      0.000
REMARK  Name = 
REMARK  15 active torsions:
REMARK  status: ('A' for Active; 'I' for Inactive)
REMARK    1  A    between atoms: C_1  and  O_2
REMARK    2  A    between atoms: O_2  and  C_3
REMARK    3  A    between atoms: C_8  and  C_9
REMARK    4  A    between atoms: C_10  and  C_11
REMARK    5  A    between atoms: C_11  and  C_12
REMARK    6  A    between atoms: N_14  and  C_15
REMARK    7  A    between atoms: C_15  and  C_16
REMARK    8  A    between atoms: C_15  and  C_24
REMARK    9  A    between atoms: C_16  and  C_17
REMARK   10  A    between atoms: C_17  and  C_18
REMARK   11  A    between atoms: C_18  and  C_19
REMARK   12  A    between atoms: C_19  and  C_20
REMARK   13  A    between atoms: C_20  and  C_21
REMARK   14  A    between atoms: C_21  and  C_22
REMARK   15  A    between atoms: N_26  and  C_27
REMARK                            x       y       z     vdW  Elec       q    Type
REMARK                         _______ _______ _______ _____ _____    ______ ____
ROOT
ATOM      1  C   UNL     1       2.915   6.712  19.328  0.00  0.00    +0.000 C 
ENDROOT
BRANCH   1   4
ATOM      2  C   UNL     1       1.616   8.821  19.102  0.00  0.00    +0.000 C 
ATOM      3  O   UNL     1       1.316   8.821  20.290  0.00  0.00    +0.000 OA
ATOM      4  N   UNL     1       2.436   7.854  18.541  0.00  0.00    +0.000 N 
ATOM      5  H   UNL     1       2.515   7.816  17.533  0.00  0.00    +0.000 HD
BRANCH   2   6
ATOM      6  C   UNL     1       1.091   9.862  18.125  0.00  0.00    +0.000 C 
BRANCH   6  14
ATOM      7  C   UNL     1       0.859  13.375  21.245  0.00  0.00    +0.000 A 
ATOM      8  C   UNL     1      -0.435  13.867  21.400  0.00  0.00    +0.000 A 
ATOM      9  C   UNL     1      -1.502  13.319  20.685  0.00  0.00    +0.000 A 
ATOM     10  C   UNL     1      -1.226  12.260  19.815  0.00  0.00    +0.000 A 
ATOM     11  N   UNL     1      -2.074  11.558  19.000  0.00  0.00    +0.000 N 
ATOM     12  C   UNL     1      -1.390  10.604  18.292  0.00  0.00    +0.000 A 
ATOM     13  C   UNL     1      -2.109   9.733  17.325  0.00  0.00    +0.000 C 
ATOM     14  C   UNL     1      -0.051  10.675  18.663  0.00  0.00    +0.000 A 
ATOM     15  C   UNL     1       0.053  11.742  19.624  0.00  0.00    +0.000 A 
ATOM     16  C   UNL     1       1.116  12.331  20.343  0.00  0.00    +0.000 A 
ATOM     17  H   UNL     1      -3.065  11.741  18.920  0.00  0.00    +0.000 HD
BRANCH   7  19
ATOM     18  C   UNL     1       2.803  14.707  21.118  0.00  0.00    +0.000 C 
ATOM     19  O   UNL     1       1.960  13.865  21.898  0.00  0.00    +0.000 OA
ENDBRANCH   7  19
ENDBRANCH   6  14
ENDBRANCH   2   6
ENDBRANCH   1   4
BRANCH   1  20
ATOM     20  C   UNL     1       4.077   5.939  18.667  0.00  0.00    +0.000 C 
ATOM     21  O   UNL     1       4.641   5.029  19.277  0.00  0.00    +0.000 OA
ATOM     22  N   UNL     1       4.397   6.355  17.388  0.00  0.00    +0.000 N 
ATOM     23  H   UNL     1       4.069   7.277  17.111  0.00  0.00    +0.000 HD
BRANCH  22  24
ATOM     24  C   UNL     1       5.276   5.709  16.484  0.00  0.00    +0.000 A 
ATOM     25  C   UNL     1       4.818   4.852  15.474  0.00  0.00    +0.000 A 
ATOM     26  C   UNL     1       5.715   4.220  14.608  0.00  0.00    +0.000 A 
ATOM     27  C   UNL     1       7.080   4.444  14.728  0.00  0.00    +0.000 A 
ATOM     28  C   UNL     1       7.555   5.316  15.707  0.00  0.00    +0.000 A 
ATOM     29  C   UNL     1       6.658   5.948  16.576  0.00  0.00    +0.000 A 
ATOM     30 CL   UNL     1       7.302   7.022  17.772  0.00  0.00    +0.000 Cl
ENDBRANCH  22  24
ENDBRANCH   1  20
BRANCH   1  31
ATOM     31  C   UNL     1       1.775   5.723  19.679  0.00  0.00    +0.000 C 
BRANCH  31  32
ATOM     32  C   UNL     1       1.966   5.063  21.054  0.00  0.00    +0.000 C 
BRANCH  32  33
ATOM     33  C   UNL     1       1.635   3.565  21.072  0.00  0.00    +0.000 C 
BRANCH  33  34
ATOM     34  C   UNL     1       0.777   3.225  19.849  0.00  0.00    +0.000 C 
BRANCH  34  35
ATOM     35  C   UNL     1       1.189   1.941  19.136  0.00  0.00    +0.000 C 
BRANCH  35  36
ATOM     36  C   UNL     1       2.483   2.133  18.357  0.00  0.00    +0.000 C 
ATOM     37  C   UNL     1       2.451   3.089  17.193  0.00  0.00    +0.000 C 
ATOM     38  O   UNL     1       3.528   1.547  18.648  0.00  0.00    +0.000 OA
ENDBRANCH  35  36
ENDBRANCH  34  35
ENDBRANCH  33  34
ENDBRANCH  32  33
ENDBRANCH  31  32
ENDBRANCH   1  31
TORSDOF 12
ENDMDL
MODEL 2
REMARK VINA RESULT:      -7.7      3.309      9.519
REMARK  Name = 
REMARK  15 active torsions:
REMARK  status: ('A' for Active; 'I' for Inactive)
REMARK    1  A    between atoms: C_1  and  O_2
REMARK    2  A    between atoms: O_2  and  C_3
REMARK    3  A    between atoms: C_8  and  C_9
REMARK    4  A    between atoms: C_10  and  C_11
REMARK    5  A    between atoms: C_11  and  C_12
REMARK    6  A    between atoms: N_14  and  C_15
REMARK    7  A    between atoms: C_15  and  C_16
REMARK    8  A    between atoms: C_15  and  C_24
REMARK    9  A    between atoms: C_16  and  C_17
REMARK   10  A    between atoms: C_17  and  C_18
REMARK   11  A    between atoms: C_18  and  C_19
REMARK   12  A    between atoms: C_19  and  C_20
REMARK   13  A    between atoms: C_20  and  C_21
REMARK   14  A    between atoms: C_21  and  C_22
REMARK   15  A    between atoms: N_26  and  C_27
REMARK                            x       y       z     vdW  Elec       q    Type
REMARK                         _______ _______ _______ _____ _____    ______ ____
ROOT
ATOM      1  C   UNL     1       0.932  10.063  18.440  0.00  0.00    +0.000 C 
ENDROOT
BRANCH   1   4
ATOM      2  C   UNL     1       2.354   8.028  18.298  0.00  0.00    +0.000 C 
ATOM      3  O   UNL     1       2.640   8.249  17.126  0.00  0.00    +0.000 OA
ATOM      4  N   UNL     1       1.560   8.883  19.045  0.00  0.00    +0.000 N 
ATOM      5  H   UNL     1       1.230   8.568  19.948  0.00  0.00    +0.000 HD
BRANCH   2   6
ATOM      6  C   UNL     1       2.818   6.778  19.031  0.00  0.00    +0.000 C 
BRANCH   6  14
ATOM      7  C   UNL     1       6.820   6.150  16.640  0.00  0.00    +0.000 A 
ATOM      8  C   UNL     1       6.846   4.940  15.950  0.00  0.00    +0.000 A 
ATOM      9  C   UNL     1       5.761   4.063  15.997  0.00  0.00    +0.000 A 
ATOM     10  C   UNL     1       4.649   4.445  16.755  0.00  0.00    +0.000 A 
ATOM     11  N   UNL     1       3.473   3.778  16.974  0.00  0.00    +0.000 N 
ATOM     12  C   UNL     1       2.649   4.502  17.797  0.00  0.00    +0.000 A 
ATOM     13  C   UNL     1       1.322   3.959  18.189  0.00  0.00    +0.000 C 
ATOM     14  C   UNL     1       3.302   5.687  18.120  0.00  0.00    +0.000 A 
ATOM     15  C   UNL     1       4.583   5.642  17.465  0.00  0.00    +0.000 A 
ATOM     16  C   UNL     1       5.706   6.498  17.418  0.00  0.00    +0.000 A 
ATOM     17  H   UNL     1       3.259   2.866  16.595  0.00  0.00    +0.000 HD
BRANCH   7  19
ATOM     18  C   UNL     1       7.703   8.122  17.591  0.00  0.00    +0.000 C 
ATOM     19  O   UNL     1       7.848   7.058  16.656  0.00  0.00    +0.000 OA
ENDBRANCH   7  19
ENDBRANCH   6  14
ENDBRANCH   2   6
ENDBRANCH   1   4
BRANCH   1  20
ATOM     20  C   UNL     1       1.724  11.372  18.649  0.00  0.00    +0.000 C 
ATOM     21  O   UNL     1       2.610  11.693  17.855  0.00  0.00    +0.000 OA
ATOM     22  N   UNL     1       1.350  12.104  19.761  0.00  0.00    +0.000 N 
ATOM     23  H   UNL     1       0.826  11.611  20.479  0.00  0.00    +0.000 HD
BRANCH  22  24
ATOM     24  C   UNL     1       1.765  13.419  20.085  0.00  0.00    +0.000 A 
ATOM     25  C   UNL     1       2.890  13.677  20.881  0.00  0.00    +0.000 A 
ATOM     26  C   UNL     1       3.265  14.987  21.192  0.00  0.00    +0.000 A 
ATOM     27  C   UNL     1       2.530  16.060  20.704  0.00  0.00    +0.000 A 
ATOM     28  C   UNL     1       1.425  15.827  19.886  0.00  0.00    +0.000 A 
ATOM     29  C   UNL     1       1.048  14.514  19.575  0.00  0.00    +0.000 A 
ATOM     30 CL   UNL     1      -0.331  14.283  18.554  0.00  0.00    +0.000 Cl
ENDBRANCH  22  24
ENDBRANCH   1  20
BRANCH   1  31
ATOM     31  C   UNL     1      -0.527  10.263  18.924  0.00  0.00    +0.000 C 
BRANCH  31  32
ATOM     32  C   UNL     1      -1.539  10.267  17.768  0.00  0.00    +0.000 C 
BRANCH  32  33
ATOM     33  C   UNL     1      -2.475  11.484  17.769  0.00  0.00    +0.000 C 
BRANCH  33  34
ATOM     34  C   UNL     1      -3.921  11.003  17.606  0.00  0.00    +0.000 C 
BRANCH  34  35
ATOM     35  C   UNL     1      -4.892  11.597  18.623  0.00  0.00    +0.000 C 
BRANCH  35  36
ATOM     36  C   UNL     1      -6.033  12.331  17.933  0.00  0.00    +0.000 C 
ATOM     37  C   UNL     1      -7.365  12.351  18.636  0.00  0.00    +0.000 C 
ATOM     38  O   UNL     1      -5.898  12.900  16.847  0.00  0.00    +0.000 OA
ENDBRANCH  35  36
ENDBRANCH  34  35
ENDBRANCH  33  34
ENDBRANCH  32  33
ENDBRANCH  31  32
ENDBRANCH   1  31
TORSDOF 12
ENDMDL
MODEL 3
REMARK VINA RESULT:      -7.6      3.041      9.674
REMARK  Name = 
REMARK  15 active torsions:
REMARK  status: ('A' for Active; 'I' for Inactive)
REMARK    1  A    between atoms: C_1  and  O_2
REMARK    2  A    between atoms: O_2  and  C_3
REMARK    3  A    between atoms: C_8  and  C_9
REMARK    4  A    between atoms: C_10  and  C_11
REMARK    5  A    between atoms: C_11  and  C_12
REMARK    6  A    between atoms: N_14  and  C_15
REMARK    7  A    between atoms: C_15  and  C_16
REMARK    8  A    between atoms: C_15  and  C_24
REMARK    9  A    between atoms: C_16  and  C_17
REMARK   10  A    between atoms: C_17  and  C_18
REMARK   11  A    between atoms: C_18  and  C_19
REMARK   12  A    between atoms: C_19  and  C_20
REMARK   13  A    between atoms: C_20  and  C_21
REMARK   14  A    between atoms: C_21  and  C_22
REMARK   15  A    between atoms: N_26  and  C_27
REMARK                            x       y       z     vdW  Elec       q    Type
REMARK                         _______ _______ _______ _____ _____    ______ ____
ROOT
ATOM      1  C   UNL     1       0.616   9.967  18.503  0.00  0.00    +0.000 C 
ENDROOT
BRANCH   1   4
ATOM      2  C   UNL     1       2.226   8.078  18.355  0.00  0.00    +0.000 C 
ATOM      3  O   UNL     1       2.508   8.344  17.192  0.00  0.00    +0.000 OA
ATOM      4  N   UNL     1       1.344   8.842  19.101  0.00  0.00    +0.000 N 
ATOM      5  H   UNL     1       1.030   8.482  19.994  0.00  0.00    +0.000 HD
BRANCH   2   6
ATOM      6  C   UNL     1       2.794   6.865  19.077  0.00  0.00    +0.000 C 
BRANCH   6  14
ATOM      7  C   UNL     1       6.811   6.314  16.692  0.00  0.00    +0.000 A 
ATOM      8  C   UNL     1       6.853   5.112  15.988  0.00  0.00    +0.000 A 
ATOM      9  C   UNL     1       5.778   4.222  16.021  0.00  0.00    +0.000 A 
ATOM     10  C   UNL     1       4.660   4.581  16.780  0.00  0.00    +0.000 A 
ATOM     11  N   UNL     1       3.491   3.897  16.987  0.00  0.00    +0.000 N 
ATOM     12  C   UNL     1       2.657   4.602  17.817  0.00  0.00    +0.000 A 
ATOM     13  C   UNL     1       1.335   4.038  18.198  0.00  0.00    +0.000 C 
ATOM     14  C   UNL     1       3.294   5.791  18.155  0.00  0.00    +0.000 A 
ATOM     15  C   UNL     1       4.578   5.768  17.503  0.00  0.00    +0.000 A 
ATOM     16  C   UNL     1       5.690   6.639  17.470  0.00  0.00    +0.000 A 
ATOM     17  H   UNL     1       3.289   2.987  16.598  0.00  0.00    +0.000 HD
BRANCH   7  19
ATOM     18  C   UNL     1       7.653   8.301  17.648  0.00  0.00    +0.000 C 
ATOM     19  O   UNL     1       7.828   7.233  16.721  0.00  0.00    +0.000 OA
ENDBRANCH   7  19
ENDBRANCH   6  14
ENDBRANCH   2   6
ENDBRANCH   1   4
BRANCH   1  20
ATOM     20  C   UNL     1       0.357  11.136  19.478  0.00  0.00    +0.000 C 
ATOM     21  O   UNL     1       1.074  12.139  19.446  0.00  0.00    +0.000 OA
ATOM     22  N   UNL     1      -0.706  10.947  20.341  0.00  0.00    +0.000 N 
ATOM     23  H   UNL     1      -1.028   9.991  20.468  0.00  0.00    +0.000 HD
BRANCH  22  24
ATOM     24  C   UNL     1      -1.283  11.918  21.196  0.00  0.00    +0.000 A 
ATOM     25  C   UNL     1      -1.798  13.130  20.717  0.00  0.00    +0.000 A 
ATOM     26  C   UNL     1      -2.348  14.072  21.591  0.00  0.00    +0.000 A 
ATOM     27  C   UNL     1      -2.405  13.813  22.954  0.00  0.00    +0.000 A 
ATOM     28  C   UNL     1      -1.925  12.600  23.449  0.00  0.00    +0.000 A 
ATOM     29  C   UNL     1      -1.372  11.657  22.574  0.00  0.00    +0.000 A 
ATOM     30 CL   UNL     1      -0.793  10.168  23.242  0.00  0.00    +0.000 Cl
ENDBRANCH  22  24
ENDBRANCH   1  20
BRANCH   1  31
ATOM     31  C   UNL     1      -0.726   9.524  17.866  0.00  0.00    +0.000 C 
BRANCH  31  32
ATOM     32  C   UNL     1      -1.635  10.713  17.516  0.00  0.00    +0.000 C 
BRANCH  32  33
ATOM     33  C   UNL     1      -2.694  10.390  16.453  0.00  0.00    +0.000 C 
BRANCH  33  34
ATOM     34  C   UNL     1      -4.059  10.891  16.936  0.00  0.00    +0.000 C 
BRANCH  34  35
ATOM     35  C   UNL     1      -4.001  11.713  18.221  0.00  0.00    +0.000 C 
BRANCH  35  36
ATOM     36  C   UNL     1      -5.325  11.662  18.969  0.00  0.00    +0.000 C 
ATOM     37  C   UNL     1      -6.479  10.980  18.282  0.00  0.00    +0.000 C 
ATOM     38  O   UNL     1      -5.474  12.147  20.093  0.00  0.00    +0.000 OA
ENDBRANCH  35  36
ENDBRANCH  34  35
ENDBRANCH  33  34
ENDBRANCH  32  33
ENDBRANCH  31  32
ENDBRANCH   1  31
TORSDOF 12
ENDMDL
MODEL 4
REMARK VINA RESULT:      -7.6      3.313      9.188
REMARK  Name = 
REMARK  15 active torsions:
REMARK  status: ('A' for Active; 'I' for Inactive)
REMARK    1  A    between atoms: C_1  and  O_2
REMARK    2  A    between atoms: O_2  and  C_3
REMARK    3  A    between atoms: C_8  and  C_9
REMARK    4  A    between atoms: C_10  and  C_11
REMARK    5  A    between atoms: C_11  and  C_12
REMARK    6  A    between atoms: N_14  and  C_15
REMARK    7  A    between atoms: C_15  and  C_16
REMARK    8  A    between atoms: C_15  and  C_24
REMARK    9  A    between atoms: C_16  and  C_17
REMARK   10  A    between atoms: C_17  and  C_18
REMARK   11  A    between atoms: C_18  and  C_19
REMARK   12  A    between atoms: C_19  and  C_20
REMARK   13  A    between atoms: C_20  and  C_21
REMARK   14  A    between atoms: C_21  and  C_22
REMARK   15  A    between atoms: N_26  and  C_27
REMARK                            x       y       z     vdW  Elec       q    Type
REMARK                         _______ _______ _______ _____ _____    ______ ____
ROOT
ATOM      1  C   UNL     1       0.585  10.024  18.849  0.00  0.00    +0.000 C 
ENDROOT
BRANCH   1   4
ATOM      2  C   UNL     1       2.148   8.118  18.522  0.00  0.00    +0.000 C 
ATOM      3  O   UNL     1       2.248   8.342  17.321  0.00  0.00    +0.000 OA
ATOM      4  N   UNL     1       1.393   8.914  19.368  0.00  0.00    +0.000 N 
ATOM      5  H   UNL     1       1.220   8.588  20.310  0.00  0.00    +0.000 HD
BRANCH   2   6
ATOM      6  C   UNL     1       2.818   6.927  19.190  0.00  0.00    +0.000 C 
BRANCH   6  14
ATOM      7  C   UNL     1       6.738   6.366  16.653  0.00  0.00    +0.000 A 
ATOM      8  C   UNL     1       6.736   5.181  15.920  0.00  0.00    +0.000 A 
ATOM      9  C   UNL     1       5.648   4.307  15.972  0.00  0.00    +0.000 A 
ATOM     10  C   UNL     1       4.563   4.667  16.778  0.00  0.00    +0.000 A 
ATOM     11  N   UNL     1       3.391   3.997  17.011  0.00  0.00    +0.000 N 
ATOM     12  C   UNL     1       2.598   4.695  17.885  0.00  0.00    +0.000 A 
ATOM     13  C   UNL     1       1.281   4.144  18.300  0.00  0.00    +0.000 C 
ATOM     14  C   UNL     1       3.267   5.866  18.227  0.00  0.00    +0.000 A 
ATOM     15  C   UNL     1       4.526   5.838  17.530  0.00  0.00    +0.000 A 
ATOM     16  C   UNL     1       5.651   6.691  17.478  0.00  0.00    +0.000 A 
ATOM     17  H   UNL     1       3.161   3.100  16.608  0.00  0.00    +0.000 HD
BRANCH   7  19
ATOM     18  C   UNL     1       7.682   8.276  17.670  0.00  0.00    +0.000 C 
ATOM     19  O   UNL     1       7.771   7.268  16.667  0.00  0.00    +0.000 OA
ENDBRANCH   7  19
ENDBRANCH   6  14
ENDBRANCH   2   6
ENDBRANCH   1   4
BRANCH   1  20
ATOM     20  C   UNL     1       1.064  11.417  19.310  0.00  0.00    +0.000 C 
ATOM     21  O   UNL     1       1.161  11.673  20.512  0.00  0.00    +0.000 OA
ATOM     22  N   UNL     1       1.355  12.298  18.285  0.00  0.00    +0.000 N 
ATOM     23  H   UNL     1       0.970  12.080  17.370  0.00  0.00    +0.000 HD
BRANCH  22  24
ATOM     24  C   UNL     1       1.990  13.559  18.410  0.00  0.00    +0.000 A 
ATOM     25  C   UNL     1       3.362  13.735  18.185  0.00  0.00    +0.000 A 
ATOM     26  C   UNL     1       3.958  14.991  18.329  0.00  0.00    +0.000 A 
ATOM     27  C   UNL     1       3.192  16.092  18.688  0.00  0.00    +0.000 A 
ATOM     28  C   UNL     1       1.819  15.946  18.887  0.00  0.00    +0.000 A 
ATOM     29  C   UNL     1       1.222  14.687  18.744  0.00  0.00    +0.000 A 
ATOM     30 CL   UNL     1      -0.486  14.562  19.002  0.00  0.00    +0.000 Cl
ENDBRANCH  22  24
ENDBRANCH   1  20
BRANCH   1  31
ATOM     31  C   UNL     1      -0.919   9.861  19.187  0.00  0.00    +0.000 C 
BRANCH  31  32
ATOM     32  C   UNL     1      -1.790  10.956  18.553  0.00  0.00    +0.000 C 
BRANCH  32  33
ATOM     33  C   UNL     1      -2.632  10.468  17.366  0.00  0.00    +0.000 C 
BRANCH  33  34
ATOM     34  C   UNL     1      -3.882  11.346  17.242  0.00  0.00    +0.000 C 
BRANCH  34  35
ATOM     35  C   UNL     1      -4.362  11.935  18.566  0.00  0.00    +0.000 C 
BRANCH  35  36
ATOM     36  C   UNL     1      -5.728  11.386  18.950  0.00  0.00    +0.000 C 
ATOM     37  C   UNL     1      -6.310  11.843  20.263  0.00  0.00    +0.000 C 
ATOM     38  O   UNL     1      -6.357  10.603  18.235  0.00  0.00    +0.000 OA
ENDBRANCH  35  36
ENDBRANCH  34  35
ENDBRANCH  33  34
ENDBRANCH  32  33
ENDBRANCH  31  32
ENDBRANCH   1  31
TORSDOF 12
ENDMDL
MODEL 5
REMARK VINA RESULT:      -7.5      1.558      1.829
REMARK  Name = 
REMARK  15 active torsions:
REMARK  status: ('A' for Active; 'I' for Inactive)
REMARK    1  A    between atoms: C_1  and  O_2
REMARK    2  A    between atoms: O_2  and  C_3
REMARK    3  A    between atoms: C_8  and  C_9
REMARK    4  A    between atoms: C_10  and  C_11
REMARK    5  A    between atoms: C_11  and  C_12
REMARK    6  A    between atoms: N_14  and  C_15
REMARK    7  A    between atoms: C_15  and  C_16
REMARK    8  A    between atoms: C_15  and  C_24
REMARK    9  A    between atoms: C_16  and  C_17
REMARK   10  A    between atoms: C_17  and  C_18
REMARK   11  A    between atoms: C_18  and  C_19
REMARK   12  A    between atoms: C_19  and  C_20
REMARK   13  A    between atoms: C_20  and  C_21
REMARK   14  A    between atoms: C_21  and  C_22
REMARK   15  A    between atoms: N_26  and  C_27
REMARK                            x       y       z     vdW  Elec       q    Type
REMARK                         _______ _______ _______ _____ _____    ______ ____
ROOT
ATOM      1  C   UNL     1       2.278   6.898  19.827  0.00  0.00    +0.000 C 
ENDROOT
BRANCH   1   4
ATOM      2  C   UNL     1       0.942   8.719  20.868  0.00  0.00    +0.000 C 
ATOM      3  O   UNL     1       1.642   8.725  21.874  0.00  0.00    +0.000 OA
ATOM      4  N   UNL     1       1.199   7.891  19.786  0.00  0.00    +0.000 N 
ATOM      5  H   UNL     1       0.499   7.816  19.060  0.00  0.00    +0.000 HD
BRANCH   2   6
ATOM      6  C   UNL     1      -0.294   9.595  20.725  0.00  0.00    +0.000 C 
BRANCH   6  14
ATOM      7  C   UNL     1       2.296  13.522  20.776  0.00  0.00    +0.000 A 
ATOM      8  C   UNL     1       2.167  14.262  19.603  0.00  0.00    +0.000 A 
ATOM      9  C   UNL     1       1.330  13.832  18.571  0.00  0.00    +0.000 A 
ATOM     10  C   UNL     1       0.627  12.638  18.759  0.00  0.00    +0.000 A 
ATOM     11  N   UNL     1      -0.241  11.996  17.915  0.00  0.00    +0.000 N 
ATOM     12  C   UNL     1      -0.702  10.836  18.483  0.00  0.00    +0.000 A 
ATOM     13  C   UNL     1      -1.643   9.962  17.735  0.00  0.00    +0.000 C 
ATOM     14  C   UNL     1      -0.127  10.720  19.745  0.00  0.00    +0.000 A 
ATOM     15  C   UNL     1       0.731  11.864  19.912  0.00  0.00    +0.000 A 
ATOM     16  C   UNL     1       1.602  12.311  20.929  0.00  0.00    +0.000 A 
ATOM     17  H   UNL     1      -0.484  12.326  16.992  0.00  0.00    +0.000 HD
BRANCH   7  19
ATOM     18  C   UNL     1       4.373  14.404  21.467  0.00  0.00    +0.000 C 
ATOM     19  O   UNL     1       3.104  13.868  21.828  0.00  0.00    +0.000 OA
ENDBRANCH   7  19
ENDBRANCH   6  14
ENDBRANCH   2   6
ENDBRANCH   1   4
BRANCH   1  20
ATOM     20  C   UNL     1       3.183   6.902  18.576  0.00  0.00    +0.000 C 
ATOM     21  O   UNL     1       3.257   7.910  17.869  0.00  0.00    +0.000 OA
ATOM     22  N   UNL     1       3.862   5.720  18.347  0.00  0.00    +0.000 N 
ATOM     23  H   UNL     1       3.507   4.890  18.815  0.00  0.00    +0.000 HD
BRANCH  22  24
ATOM     24  C   UNL     1       4.892   5.507  17.398  0.00  0.00    +0.000 A 
ATOM     25  C   UNL     1       4.648   5.478  16.018  0.00  0.00    +0.000 A 
ATOM     26  C   UNL     1       5.687   5.253  15.110  0.00  0.00    +0.000 A 
ATOM     27  C   UNL     1       6.986   5.067  15.565  0.00  0.00    +0.000 A 
ATOM     28  C   UNL     1       7.256   5.122  16.932  0.00  0.00    +0.000 A 
ATOM     29  C   UNL     1       6.215   5.346  17.842  0.00  0.00    +0.000 A 
ATOM     30 CL   UNL     1       6.607   5.406  19.528  0.00  0.00    +0.000 Cl
ENDBRANCH  22  24
ENDBRANCH   1  20
BRANCH   1  31
ATOM     31  C   UNL     1       1.745   5.463  20.069  0.00  0.00    +0.000 C 
BRANCH  31  32
ATOM     32  C   UNL     1       2.387   4.791  21.294  0.00  0.00    +0.000 C 
BRANCH  32  33
ATOM     33  C   UNL     1       2.569   3.275  21.143  0.00  0.00    +0.000 C 
BRANCH  33  34
ATOM     34  C   UNL     1       3.609   3.001  20.050  0.00  0.00    +0.000 C 
BRANCH  34  35
ATOM     35  C   UNL     1       3.160   1.983  19.006  0.00  0.00    +0.000 C 
BRANCH  35  36
ATOM     36  C   UNL     1       2.023   2.530  18.155  0.00  0.00    +0.000 C 
ATOM     37  C   UNL     1       0.617   2.227  18.604  0.00  0.00    +0.000 C 
ATOM     38  O   UNL     1       2.216   3.201  17.138  0.00  0.00    +0.000 OA
ENDBRANCH  35  36
ENDBRANCH  34  35
ENDBRANCH  33  34
ENDBRANCH  32  33
ENDBRANCH  31  32
ENDBRANCH   1  31
TORSDOF 12
ENDMDL
MODEL 6
REMARK VINA RESULT:      -7.5      3.164      9.217
REMARK  Name = 
REMARK  15 active torsions:
REMARK  status: ('A' for Active; 'I' for Inactive)
REMARK    1  A    between atoms: C_1  and  O_2
REMARK    2  A    between atoms: O_2  and  C_3
REMARK    3  A    between atoms: C_8  and  C_9
REMARK    4  A    between atoms: C_10  and  C_11
REMARK    5  A    between atoms: C_11  and  C_12
REMARK    6  A    between atoms: N_14  and  C_15
REMARK    7  A    between atoms: C_15  and  C_16
REMARK    8  A    between atoms: C_15  and  C_24
REMARK    9  A    between atoms: C_16  and  C_17
REMARK   10  A    between atoms: C_17  and  C_18
REMARK   11  A    between atoms: C_18  and  C_19
REMARK   12  A    between atoms: C_19  and  C_20
REMARK   13  A    between atoms: C_20  and  C_21
REMARK   14  A    between atoms: C_21  and  C_22
REMARK   15  A    between atoms: N_26  and  C_27
REMARK                            x       y       z     vdW  Elec       q    Type
REMARK                         _______ _______ _______ _____ _____    ______ ____
ROOT
ATOM      1  C   UNL     1       0.979  10.014  18.141  0.00  0.00    +0.000 C 
ENDROOT
BRANCH   1   4
ATOM      2  C   UNL     1       2.370   7.953  18.169  0.00  0.00    +0.000 C 
ATOM      3  O   UNL     1       2.778   8.153  17.030  0.00  0.00    +0.000 OA
ATOM      4  N   UNL     1       1.520   8.832  18.821  0.00  0.00    +0.000 N 
ATOM      5  H   UNL     1       1.093   8.535  19.689  0.00  0.00    +0.000 HD
BRANCH   2   6
ATOM      6  C   UNL     1       2.732   6.705  18.960  0.00  0.00    +0.000 C 
BRANCH   6  14
ATOM      7  C   UNL     1       6.787   6.097  16.653  0.00  0.00    +0.000 A 
ATOM      8  C   UNL     1       6.864   4.854  16.028  0.00  0.00    +0.000 A 
ATOM      9  C   UNL     1       5.809   3.943  16.108  0.00  0.00    +0.000 A 
ATOM     10  C   UNL     1       4.675   4.323  16.832  0.00  0.00    +0.000 A 
ATOM     11  N   UNL     1       3.520   3.626  17.071  0.00  0.00    +0.000 N 
ATOM     12  C   UNL     1       2.661   4.363  17.846  0.00  0.00    +0.000 A 
ATOM     13  C   UNL     1       1.348   3.794  18.249  0.00  0.00    +0.000 C 
ATOM     14  C   UNL     1       3.267   5.586  18.113  0.00  0.00    +0.000 A 
ATOM     15  C   UNL     1       4.558   5.552  17.477  0.00  0.00    +0.000 A 
ATOM     16  C   UNL     1       5.650   6.444  17.399  0.00  0.00    +0.000 A 
ATOM     17  H   UNL     1       3.343   2.689  16.739  0.00  0.00    +0.000 HD
BRANCH   7  19
ATOM     18  C   UNL     1       7.970   7.748  17.854  0.00  0.00    +0.000 C 
ATOM     19  O   UNL     1       7.782   7.040  16.633  0.00  0.00    +0.000 OA
ENDBRANCH   7  19
ENDBRANCH   6  14
ENDBRANCH   2   6
ENDBRANCH   1   4
BRANCH   1  20
ATOM     20  C   UNL     1       0.996  11.296  19.002  0.00  0.00    +0.000 C 
ATOM     21  O   UNL     1       1.109  11.217  20.227  0.00  0.00    +0.000 OA
ATOM     22  N   UNL     1       0.876  12.475  18.289  0.00  0.00    +0.000 N 
ATOM     23  H   UNL     1       0.506  12.403  17.345  0.00  0.00    +0.000 HD
BRANCH  22  24
ATOM     24  C   UNL     1       1.053  13.787  18.793  0.00  0.00    +0.000 A 
ATOM     25  C   UNL     1       2.231  14.519  18.584  0.00  0.00    +0.000 A 
ATOM     26  C   UNL     1       2.377  15.807  19.106  0.00  0.00    +0.000 A 
ATOM     27  C   UNL     1       1.346  16.390  19.832  0.00  0.00    +0.000 A 
ATOM     28  C   UNL     1       0.154  15.691  20.026  0.00  0.00    +0.000 A 
ATOM     29  C   UNL     1       0.008  14.399  19.504  0.00  0.00    +0.000 A 
ATOM     30 CL   UNL     1      -1.492  13.578  19.773  0.00  0.00    +0.000 Cl
ENDBRANCH  22  24
ENDBRANCH   1  20
BRANCH   1  31
ATOM     31  C   UNL     1      -0.456   9.776  17.604  0.00  0.00    +0.000 C 
BRANCH  31  32
ATOM     32  C   UNL     1      -1.532  10.435  18.480  0.00  0.00    +0.000 C 
BRANCH  32  33
ATOM     33  C   UNL     1      -2.923  10.466  17.833  0.00  0.00    +0.000 C 
BRANCH  33  34
ATOM     34  C   UNL     1      -2.837   9.856  16.430  0.00  0.00    +0.000 C 
BRANCH  34  35
ATOM     35  C   UNL     1      -3.739  10.531  15.401  0.00  0.00    +0.000 C 
BRANCH  35  36
ATOM     36  C   UNL     1      -3.458  10.015  13.997  0.00  0.00    +0.000 C 
ATOM     37  C   UNL     1      -4.641   9.822  13.084  0.00  0.00    +0.000 C 
ATOM     38  O   UNL     1      -2.320   9.762  13.596  0.00  0.00    +0.000 OA
ENDBRANCH  35  36
ENDBRANCH  34  35
ENDBRANCH  33  34
ENDBRANCH  32  33
ENDBRANCH  31  32
ENDBRANCH   1  31
TORSDOF 12
ENDMDL
MODEL 7
REMARK VINA RESULT:      -7.5      3.071      9.481
REMARK  Name = 
REMARK  15 active torsions:
REMARK  status: ('A' for Active; 'I' for Inactive)
REMARK    1  A    between atoms: C_1  and  O_2
REMARK    2  A    between atoms: O_2  and  C_3
REMARK    3  A    between atoms: C_8  and  C_9
REMARK    4  A    between atoms: C_10  and  C_11
REMARK    5  A    between atoms: C_11  and  C_12
REMARK    6  A    between atoms: N_14  and  C_15
REMARK    7  A    between atoms: C_15  and  C_16
REMARK    8  A    between atoms: C_15  and  C_24
REMARK    9  A    between atoms: C_16  and  C_17
REMARK   10  A    between atoms: C_17  and  C_18
REMARK   11  A    between atoms: C_18  and  C_19
REMARK   12  A    between atoms: C_19  and  C_20
REMARK   13  A    between atoms: C_20  and  C_21
REMARK   14  A    between atoms: C_21  and  C_22
REMARK   15  A    between atoms: N_26  and  C_27
REMARK                            x       y       z     vdW  Elec       q    Type
REMARK                         _______ _______ _______ _____ _____    ______ ____
ROOT
ATOM      1  C   UNL     1       0.799  10.060  18.151  0.00  0.00    +0.000 C 
ENDROOT
BRANCH   1   4
ATOM      2  C   UNL     1       2.317   8.091  18.187  0.00  0.00    +0.000 C 
ATOM      3  O   UNL     1       2.708   8.308  17.045  0.00  0.00    +0.000 OA
ATOM      4  N   UNL     1       1.416   8.919  18.836  0.00  0.00    +0.000 N 
ATOM      5  H   UNL     1       1.011   8.601  19.708  0.00  0.00    +0.000 HD
BRANCH   2   6
ATOM      6  C   UNL     1       2.760   6.873  18.985  0.00  0.00    +0.000 C 
BRANCH   6  14
ATOM      7  C   UNL     1       6.808   6.109  16.715  0.00  0.00    +0.000 A 
ATOM      8  C   UNL     1       6.838   4.869  16.079  0.00  0.00    +0.000 A 
ATOM      9  C   UNL     1       5.744   4.004  16.141  0.00  0.00    +0.000 A 
ATOM     10  C   UNL     1       4.620   4.427  16.856  0.00  0.00    +0.000 A 
ATOM     11  N   UNL     1       3.433   3.779  17.078  0.00  0.00    +0.000 N 
ATOM     12  C   UNL     1       2.598   4.546  17.850  0.00  0.00    +0.000 A 
ATOM     13  C   UNL     1       1.258   4.031  18.235  0.00  0.00    +0.000 C 
ATOM     14  C   UNL     1       3.254   5.739  18.134  0.00  0.00    +0.000 A 
ATOM     15  C   UNL     1       4.549   5.654  17.511  0.00  0.00    +0.000 A 
ATOM     16  C   UNL     1       5.679   6.499  17.451  0.00  0.00    +0.000 A 
ATOM     17  H   UNL     1       3.220   2.853  16.735  0.00  0.00    +0.000 HD
BRANCH   7  19
ATOM     18  C   UNL     1       7.675   8.127  17.578  0.00  0.00    +0.000 C 
ATOM     19  O   UNL     1       7.843   7.008  16.713  0.00  0.00    +0.000 OA
ENDBRANCH   7  19
ENDBRANCH   6  14
ENDBRANCH   2   6
ENDBRANCH   1   4
BRANCH   1  20
ATOM     20  C   UNL     1       0.720  11.340  19.010  0.00  0.00    +0.000 C 
ATOM     21  O   UNL     1       0.826  11.270  20.237  0.00  0.00    +0.000 OA
ATOM     22  N   UNL     1       0.529  12.508  18.295  0.00  0.00    +0.000 N 
ATOM     23  H   UNL     1       0.175  12.411  17.347  0.00  0.00    +0.000 HD
BRANCH  22  24
ATOM     24  C   UNL     1       0.612  13.830  18.798  0.00  0.00    +0.000 A 
ATOM     25  C   UNL     1      -0.494  14.495  19.345  0.00  0.00    +0.000 A 
ATOM     26  C   UNL     1      -0.381  15.805  19.821  0.00  0.00    +0.000 A 
ATOM     27  C   UNL     1       0.840  16.465  19.770  0.00  0.00    +0.000 A 
ATOM     28  C   UNL     1       1.960  15.811  19.258  0.00  0.00    +0.000 A 
ATOM     29  C   UNL     1       1.846  14.500  18.779  0.00  0.00    +0.000 A 
ATOM     30 CL   UNL     1       3.269  13.735  18.155  0.00  0.00    +0.000 Cl
ENDBRANCH  22  24
ENDBRANCH   1  20
BRANCH   1  31
ATOM     31  C   UNL     1      -0.611   9.723  17.603  0.00  0.00    +0.000 C 
BRANCH  31  32
ATOM     32  C   UNL     1      -1.731  10.441  18.371  0.00  0.00    +0.000 C 
BRANCH  32  33
ATOM     33  C   UNL     1      -2.664  11.268  17.476  0.00  0.00    +0.000 C 
BRANCH  33  34
ATOM     34  C   UNL     1      -4.081  10.691  17.560  0.00  0.00    +0.000 C 
BRANCH  34  35
ATOM     35  C   UNL     1      -5.186  11.722  17.347  0.00  0.00    +0.000 C 
BRANCH  35  36
ATOM     36  C   UNL     1      -6.418  11.389  18.176  0.00  0.00    +0.000 C 
ATOM     37  C   UNL     1      -7.418  12.494  18.398  0.00  0.00    +0.000 C 
ATOM     38  O   UNL     1      -6.618  10.270  18.653  0.00  0.00    +0.000 OA
ENDBRANCH  35  36
ENDBRANCH  34  35
ENDBRANCH  33  34
ENDBRANCH  32  33
ENDBRANCH  31  32
ENDBRANCH   1  31
TORSDOF 12
ENDMDL
MODEL 8
REMARK VINA RESULT:      -7.4      3.551      9.745
REMARK  Name = 
REMARK  15 active torsions:
REMARK  status: ('A' for Active; 'I' for Inactive)
REMARK    1  A    between atoms: C_1  and  O_2
REMARK    2  A    between atoms: O_2  and  C_3
REMARK    3  A    between atoms: C_8  and  C_9
REMARK    4  A    between atoms: C_10  and  C_11
REMARK    5  A    between atoms: C_11  and  C_12
REMARK    6  A    between atoms: N_14  and  C_15
REMARK    7  A    between atoms: C_15  and  C_16
REMARK    8  A    between atoms: C_15  and  C_24
REMARK    9  A    between atoms: C_16  and  C_17
REMARK   10  A    between atoms: C_17  and  C_18
REMARK   11  A    between atoms: C_18  and  C_19
REMARK   12  A    between atoms: C_19  and  C_20
REMARK   13  A    between atoms: C_20  and  C_21
REMARK   14  A    between atoms: C_21  and  C_22
REMARK   15  A    between atoms: N_26  and  C_27
REMARK                            x       y       z     vdW  Elec       q    Type
REMARK                         _______ _______ _______ _____ _____    ______ ____
ROOT
ATOM      1  C   UNL     1      -0.664  11.077  21.112  0.00  0.00    +0.000 C 
ENDROOT
BRANCH   1   4
ATOM      2  C   UNL     1       0.477   8.869  21.192  0.00  0.00    +0.000 C 
ATOM      3  O   UNL     1      -0.571   8.280  21.433  0.00  0.00    +0.000 OA
ATOM      4  N   UNL     1       0.530  10.236  20.972  0.00  0.00    +0.000 N 
ATOM      5  H   UNL     1       1.437  10.683  20.939  0.00  0.00    +0.000 HD
BRANCH   2   6
ATOM      6  C   UNL     1       1.821   8.159  21.146  0.00  0.00    +0.000 C 
BRANCH   6  14
ATOM      7  C   UNL     1       2.615   3.674  19.968  0.00  0.00    +0.000 A 
ATOM      8  C   UNL     1       2.783   3.504  18.596  0.00  0.00    +0.000 A 
ATOM      9  C   UNL     1       2.724   4.593  17.724  0.00  0.00    +0.000 A 
ATOM     10  C   UNL     1       2.495   5.857  18.278  0.00  0.00    +0.000 A 
ATOM     11  N   UNL     1       2.383   7.073  17.657  0.00  0.00    +0.000 N 
ATOM     12  C   UNL     1       2.141   8.065  18.572  0.00  0.00    +0.000 A 
ATOM     13  C   UNL     1       1.962   9.469  18.120  0.00  0.00    +0.000 C 
ATOM     14  C   UNL     1       2.103   7.482  19.835  0.00  0.00    +0.000 A 
ATOM     15  C   UNL     1       2.315   6.071  19.642  0.00  0.00    +0.000 A 
ATOM     16  C   UNL     1       2.357   4.948  20.497  0.00  0.00    +0.000 A 
ATOM     17  H   UNL     1       2.449   7.208  16.658  0.00  0.00    +0.000 HD
BRANCH   7  19
ATOM     18  C   UNL     1       1.541   2.617  21.785  0.00  0.00    +0.000 C 
ATOM     19  O   UNL     1       2.646   2.656  20.887  0.00  0.00    +0.000 OA
ENDBRANCH   7  19
ENDBRANCH   6  14
ENDBRANCH   2   6
ENDBRANCH   1   4
BRANCH   1  20
ATOM     20  C   UNL     1      -1.304  11.486  19.768  0.00  0.00    +0.000 C 
ATOM     21  O   UNL     1      -1.095  12.606  19.298  0.00  0.00    +0.000 OA
ATOM     22  N   UNL     1      -2.092  10.513  19.181  0.00  0.00    +0.000 N 
ATOM     23  H   UNL     1      -2.416   9.761  19.784  0.00  0.00    +0.000 HD
BRANCH  22  24
ATOM     24  C   UNL     1      -2.637  10.542  17.874  0.00  0.00    +0.000 A 
ATOM     25  C   UNL     1      -2.015   9.912  16.787  0.00  0.00    +0.000 A 
ATOM     26  C   UNL     1      -2.573   9.971  15.507  0.00  0.00    +0.000 A 
ATOM     27  C   UNL     1      -3.767  10.649  15.294  0.00  0.00    +0.000 A 
ATOM     28  C   UNL     1      -4.418  11.257  16.367  0.00  0.00    +0.000 A 
ATOM     29  C   UNL     1      -3.858  11.200  17.650  0.00  0.00    +0.000 A 
ATOM     30 CL   UNL     1      -4.709  11.971  18.945  0.00  0.00    +0.000 Cl
ENDBRANCH  22  24
ENDBRANCH   1  20
BRANCH   1  31
ATOM     31  C   UNL     1      -0.390  12.347  21.957  0.00  0.00    +0.000 C 
BRANCH  31  32
ATOM     32  C   UNL     1      -1.335  12.470  23.163  0.00  0.00    +0.000 C 
BRANCH  32  33
ATOM     33  C   UNL     1      -2.519  13.416  22.928  0.00  0.00    +0.000 C 
BRANCH  33  34
ATOM     34  C   UNL     1      -3.742  12.594  22.506  0.00  0.00    +0.000 C 
BRANCH  34  35
ATOM     35  C   UNL     1      -4.973  13.434  22.178  0.00  0.00    +0.000 C 
BRANCH  35  36
ATOM     36  C   UNL     1      -5.793  13.723  23.427  0.00  0.00    +0.000 C 
ATOM     37  C   UNL     1      -6.037  15.169  23.771  0.00  0.00    +0.000 C 
ATOM     38  O   UNL     1      -6.253  12.831  24.143  0.00  0.00    +0.000 OA
ENDBRANCH  35  36
ENDBRANCH  34  35
ENDBRANCH  33  34
ENDBRANCH  32  33
ENDBRANCH  31  32
ENDBRANCH   1  31
TORSDOF 12
ENDMDL
MODEL 9
REMARK VINA RESULT:      -7.4      2.618      8.696
REMARK  Name = 
REMARK  15 active torsions:
REMARK  status: ('A' for Active; 'I' for Inactive)
REMARK    1  A    between atoms: C_1  and  O_2
REMARK    2  A    between atoms: O_2  and  C_3
REMARK    3  A    between atoms: C_8  and  C_9
REMARK    4  A    between atoms: C_10  and  C_11
REMARK    5  A    between atoms: C_11  and  C_12
REMARK    6  A    between atoms: N_14  and  C_15
REMARK    7  A    between atoms: C_15  and  C_16
REMARK    8  A    between atoms: C_15  and  C_24
REMARK    9  A    between atoms: C_16  and  C_17
REMARK   10  A    between atoms: C_17  and  C_18
REMARK   11  A    between atoms: C_18  and  C_19
REMARK   12  A    between atoms: C_19  and  C_20
REMARK   13  A    between atoms: C_20  and  C_21
REMARK   14  A    between atoms: C_21  and  C_22
REMARK   15  A    between atoms: N_26  and  C_27
REMARK                            x       y       z     vdW  Elec       q    Type
REMARK                         _______ _______ _______ _____ _____    ______ ____
ROOT
ATOM      1  C   UNL     1       2.416   5.873  19.219  0.00  0.00    +0.000 C 
ENDROOT
BRANCH   1   4
ATOM      2  C   UNL     1       4.081   4.938  17.625  0.00  0.00    +0.000 C 
ATOM      3  O   UNL     1       3.370   5.190  16.658  0.00  0.00    +0.000 OA
ATOM      4  N   UNL     1       3.723   5.277  18.920  0.00  0.00    +0.000 N 
ATOM      5  H   UNL     1       4.271   4.902  19.685  0.00  0.00    +0.000 HD
BRANCH   2   6
ATOM      6  C   UNL     1       5.406   4.203  17.497  0.00  0.00    +0.000 C 
BRANCH   6  14
ATOM      7  C   UNL     1       6.206   3.605  12.900  0.00  0.00    +0.000 A 
ATOM      8  C   UNL     1       7.178   4.474  12.409  0.00  0.00    +0.000 A 
ATOM      9  C   UNL     1       7.814   5.389  13.251  0.00  0.00    +0.000 A 
ATOM     10  C   UNL     1       7.445   5.397  14.600  0.00  0.00    +0.000 A 
ATOM     11  N   UNL     1       7.899   6.187  15.622  0.00  0.00    +0.000 N 
ATOM     12  C   UNL     1       7.259   5.879  16.795  0.00  0.00    +0.000 A 
ATOM     13  C   UNL     1       7.579   6.628  18.039  0.00  0.00    +0.000 C 
ATOM     14  C   UNL     1       6.364   4.846  16.536  0.00  0.00    +0.000 A 
ATOM     15  C   UNL     1       6.475   4.550  15.131  0.00  0.00    +0.000 A 
ATOM     16  C   UNL     1       5.831   3.652  14.251  0.00  0.00    +0.000 A 
ATOM     17  H   UNL     1       8.595   6.911  15.514  0.00  0.00    +0.000 HD
BRANCH   7  19
ATOM     18  C   UNL     1       4.347   3.179  11.509  0.00  0.00    +0.000 C 
ATOM     19  O   UNL     1       5.527   2.689  12.138  0.00  0.00    +0.000 OA
ENDBRANCH   7  19
ENDBRANCH   6  14
ENDBRANCH   2   6
ENDBRANCH   1   4
BRANCH   1  20
ATOM     20  C   UNL     1       2.385   7.412  19.088  0.00  0.00    +0.000 C 
ATOM     21  O   UNL     1       3.134   7.981  18.291  0.00  0.00    +0.000 OA
ATOM     22  N   UNL     1       1.476   8.045  19.915  0.00  0.00    +0.000 N 
ATOM     23  H   UNL     1       1.134   7.514  20.711  0.00  0.00    +0.000 HD
BRANCH  22  24
ATOM     24  C   UNL     1       1.101   9.411  19.869  0.00  0.00    +0.000 A 
ATOM     25  C   UNL     1       0.941  10.105  18.662  0.00  0.00    +0.000 A 
ATOM     26  C   UNL     1       0.583  11.456  18.653  0.00  0.00    +0.000 A 
ATOM     27  C   UNL     1       0.367  12.131  19.848  0.00  0.00    +0.000 A 
ATOM     28  C   UNL     1       0.492  11.451  21.059  0.00  0.00    +0.000 A 
ATOM     29  C   UNL     1       0.852  10.098  21.068  0.00  0.00    +0.000 A 
ATOM     30 CL   UNL     1       0.991   9.303  22.601  0.00  0.00    +0.000 Cl
ENDBRANCH  22  24
ENDBRANCH   1  20
BRANCH   1  31
ATOM     31  C   UNL     1       1.893   5.467  20.620  0.00  0.00    +0.000 C 
BRANCH  31  32
ATOM     32  C   UNL     1       2.636   4.253  21.200  0.00  0.00    +0.000 C 
BRANCH  32  33
ATOM     33  C   UNL     1       1.740   3.026  21.419  0.00  0.00    +0.000 C 
BRANCH  33  34
ATOM     34  C   UNL     1       0.685   2.972  20.309  0.00  0.00    +0.000 C 
BRANCH  34  35
ATOM     35  C   UNL     1       0.872   1.819  19.328  0.00  0.00    +0.000 C 
BRANCH  35  36
ATOM     36  C   UNL     1       1.963   2.129  18.313  0.00  0.00    +0.000 C 
ATOM     37  C   UNL     1       3.313   1.500  18.539  0.00  0.00    +0.000 C 
ATOM     38  O   UNL     1       1.776   2.858  17.336  0.00  0.00    +0.000 OA
ENDBRANCH  35  36
ENDBRANCH  34  35
ENDBRANCH  33  34
ENDBRANCH  32  33
ENDBRANCH  31  32
ENDBRANCH   1  31
TORSDOF 12
ENDMDL
