MODEL 1
REMARK VINA RESULT:      -6.8      0.000      0.000
REMARK  Name = 
REMARK  7 active torsions:
REMARK  status: ('A' for Active; 'I' for Inactive)
REMARK    1  A    between atoms: C_1  and  C_2
REMARK    2  A    between atoms: C_2  and  C_3
REMARK    3  A    between atoms: C_2  and  C_14
REMARK    4  A    between atoms: C_3  and  N_4
REMARK    5  A    between atoms: N_4  and  S_5
REMARK    6  A    between atoms: S_5  and  C_8
REMARK    7  A    between atoms: C_12  and  C_13
REMARK                            x       y       z     vdW  Elec       q    Type
REMARK                         _______ _______ _______ _____ _____    ______ ____
ROOT
ATOM      1  N   UNL     1       3.164   4.662  17.784  0.00  0.00    +0.000 NA
ATOM      2  H   UNL     1       2.858   5.598  17.497  0.00  0.00    +0.000 HD
ENDROOT
BRANCH   1   3
ATOM      3  S   UNL     1       1.798   3.665  17.818  0.00  0.00    +0.000 S 
ATOM      4  O   UNL     1       0.778   4.367  17.071  0.00  0.00    +0.000 OA
ATOM      5  O   UNL     1       2.236   2.342  17.427  0.00  0.00    +0.000 OA
BRANCH   3   6
ATOM      6  C   UNL     1       1.373   3.647  19.540  0.00  0.00    +0.000 C 
ATOM      7  C   UNL     1       1.560   2.308  20.213  0.00  0.00    +0.000 C 
ATOM      8  C   UNL     1       1.621   2.724  21.663  0.00  0.00    +0.000 C 
ATOM      9  O   UNL     1       2.329   3.969  21.688  0.00  0.00    +0.000 OA
ATOM     10  C   UNL     1       2.261   4.560  20.370  0.00  0.00    +0.000 C 
ATOM     11  C   UNL     1       1.705   5.969  20.516  0.00  0.00    +0.000 C 
ENDBRANCH   3   6
ENDBRANCH   1   3
BRANCH   1  12
ATOM     12  C   UNL     1       4.335   4.182  17.004  0.00  0.00    +0.000 C 
BRANCH  12  14
ATOM     13  C   UNL     1       5.637   4.979  14.958  0.00  0.00    +0.000 C 
ATOM     14  C   UNL     1       5.110   5.346  16.349  0.00  0.00    +0.000 C 
BRANCH  14  15
ATOM     15  C   UNL     1       6.205   5.866  17.257  0.00  0.00    +0.000 A 
ATOM     16  C   UNL     1       6.958   7.021  17.155  0.00  0.00    +0.000 A 
ATOM     17  C   UNL     1       7.921   7.138  18.198  0.00  0.00    +0.000 A 
ATOM     18  C   UNL     1       7.872   6.075  19.069  0.00  0.00    +0.000 A 
ATOM     19  S   UNL     1       6.663   4.949  18.638  0.00  0.00    +0.000 S 
ENDBRANCH  14  15
ENDBRANCH  12  14
ENDBRANCH   1  12
TORSDOF 5
ENDMDL
MODEL 2
REMARK VINA RESULT:      -6.8      2.250      5.908
REMARK  Name = 
REMARK  7 active torsions:
REMARK  status: ('A' for Active; 'I' for Inactive)
REMARK    1  A    between atoms: C_1  and  C_2
REMARK    2  A    between atoms: C_2  and  C_3
REMARK    3  A    between atoms: C_2  and  C_14
REMARK    4  A    between atoms: C_3  and  N_4
REMARK    5  A    between atoms: N_4  and  S_5
REMARK    6  A    between atoms: S_5  and  C_8
REMARK    7  A    between atoms: C_12  and  C_13
REMARK                            x       y       z     vdW  Elec       q    Type
REMARK                         _______ _______ _______ _____ _____    ______ ____
ROOT
ATOM      1  N   UNL     1       4.357   5.640  18.491  0.00  0.00    +0.000 NA
ATOM      2  H   UNL     1       4.415   5.834  19.496  0.00  0.00    +0.000 HD
ENDROOT
BRANCH   1   3
ATOM      3  S   UNL     1       5.018   4.105  18.226  0.00  0.00    +0.000 S 
ATOM      4  O   UNL     1       5.449   3.632  19.524  0.00  0.00    +0.000 OA
ATOM      5  O   UNL     1       4.055   3.365  17.441  0.00  0.00    +0.000 OA
BRANCH   3   6
ATOM      6  C   UNL     1       6.434   4.461  17.219  0.00  0.00    +0.000 C 
ATOM      7  C   UNL     1       6.270   4.095  15.763  0.00  0.00    +0.000 C 
ATOM      8  C   UNL     1       7.348   4.943  15.133  0.00  0.00    +0.000 C 
ATOM      9  O   UNL     1       7.362   6.175  15.864  0.00  0.00    +0.000 OA
ATOM     10  C   UNL     1       6.746   5.947  17.154  0.00  0.00    +0.000 C 
ATOM     11  C   UNL     1       7.721   6.405  18.227  0.00  0.00    +0.000 C 
ENDBRANCH   3   6
ENDBRANCH   1   3
BRANCH   1  12
ATOM     12  C   UNL     1       3.002   5.899  17.939  0.00  0.00    +0.000 C 
BRANCH  12  14
ATOM     13  C   UNL     1       2.133   7.301  19.888  0.00  0.00    +0.000 C 
ATOM     14  C   UNL     1       1.939   6.031  19.051  0.00  0.00    +0.000 C 
BRANCH  14  15
ATOM     15  C   UNL     1       1.875   4.785  19.909  0.00  0.00    +0.000 A 
ATOM     16  C   UNL     1       2.343   4.576  21.194  0.00  0.00    +0.000 A 
ATOM     17  C   UNL     1       2.118   3.245  21.646  0.00  0.00    +0.000 A 
ATOM     18  C   UNL     1       1.479   2.478  20.699  0.00  0.00    +0.000 A 
ATOM     19  S   UNL     1       1.142   3.363  19.279  0.00  0.00    +0.000 S 
ENDBRANCH  14  15
ENDBRANCH  12  14
ENDBRANCH   1  12
TORSDOF 5
ENDMDL
MODEL 3
REMARK VINA RESULT:      -6.7      0.812      1.021
REMARK  Name = 
REMARK  7 active torsions:
REMARK  status: ('A' for Active; 'I' for Inactive)
REMARK    1  A    between atoms: C_1  and  C_2
REMARK    2  A    between atoms: C_2  and  C_3
REMARK    3  A    between atoms: C_2  and  C_14
REMARK    4  A    between atoms: C_3  and  N_4
REMARK    5  A    between atoms: N_4  and  S_5
REMARK    6  A    between atoms: S_5  and  C_8
REMARK    7  A    between atoms: C_12  and  C_13
REMARK                            x       y       z     vdW  Elec       q    Type
REMARK                         _______ _______ _______ _____ _____    ______ ____
ROOT
ATOM      1  N   UNL     1       3.375   4.293  17.859  0.00  0.00    +0.000 NA
ATOM      2  H   UNL     1       3.252   5.296  17.685  0.00  0.00    +0.000 HD
ENDROOT
BRANCH   1   3
ATOM      3  S   UNL     1       1.838   3.586  17.893  0.00  0.00    +0.000 S 
ATOM      4  O   UNL     1       0.974   4.488  17.163  0.00  0.00    +0.000 OA
ATOM      5  O   UNL     1       2.002   2.209  17.482  0.00  0.00    +0.000 OA
BRANCH   3   6
ATOM      6  C   UNL     1       1.428   3.631  19.618  0.00  0.00    +0.000 C 
ATOM      7  C   UNL     1       1.662   2.328  20.346  0.00  0.00    +0.000 C 
ATOM      8  C   UNL     1       1.722   2.808  21.776  0.00  0.00    +0.000 C 
ATOM      9  O   UNL     1       2.392   4.074  21.741  0.00  0.00    +0.000 OA
ATOM     10  C   UNL     1       2.294   4.605  20.399  0.00  0.00    +0.000 C 
ATOM     11  C   UNL     1       1.696   6.002  20.490  0.00  0.00    +0.000 C 
ENDBRANCH   3   6
ENDBRANCH   1   3
BRANCH   1  12
ATOM     12  C   UNL     1       4.385   3.678  16.958  0.00  0.00    +0.000 C 
BRANCH  12  14
ATOM     13  C   UNL     1       5.842   4.211  14.931  0.00  0.00    +0.000 C 
ATOM     14  C   UNL     1       5.241   4.742  16.237  0.00  0.00    +0.000 C 
BRANCH  14  15
ATOM     15  C   UNL     1       6.294   5.325  17.156  0.00  0.00    +0.000 A 
ATOM     16  C   UNL     1       7.109   4.689  18.075  0.00  0.00    +0.000 A 
ATOM     17  C   UNL     1       7.952   5.597  18.776  0.00  0.00    +0.000 A 
ATOM     18  C   UNL     1       7.762   6.898  18.370  0.00  0.00    +0.000 A 
ATOM     19  S   UNL     1       6.583   7.019  17.141  0.00  0.00    +0.000 S 
ENDBRANCH  14  15
ENDBRANCH  12  14
ENDBRANCH   1  12
TORSDOF 5
ENDMDL
MODEL 4
REMARK VINA RESULT:      -6.6      2.357      6.090
REMARK  Name = 
REMARK  7 active torsions:
REMARK  status: ('A' for Active; 'I' for Inactive)
REMARK    1  A    between atoms: C_1  and  C_2
REMARK    2  A    between atoms: C_2  and  C_3
REMARK    3  A    between atoms: C_2  and  C_14
REMARK    4  A    between atoms: C_3  and  N_4
REMARK    5  A    between atoms: N_4  and  S_5
REMARK    6  A    between atoms: S_5  and  C_8
REMARK    7  A    between atoms: C_12  and  C_13
REMARK                            x       y       z     vdW  Elec       q    Type
REMARK                         _______ _______ _______ _____ _____    ______ ____
ROOT
ATOM      1  N   UNL     1       4.738   5.994  18.953  0.00  0.00    +0.000 NA
ATOM      2  H   UNL     1       4.470   6.255  19.908  0.00  0.00    +0.000 HD
ENDROOT
BRANCH   1   3
ATOM      3  S   UNL     1       5.944   4.812  19.066  0.00  0.00    +0.000 S 
ATOM      4  O   UNL     1       6.839   5.261  20.110  0.00  0.00    +0.000 OA
ATOM      5  O   UNL     1       5.271   3.535  19.153  0.00  0.00    +0.000 OA
BRANCH   3   6
ATOM      6  C   UNL     1       6.753   4.933  17.491  0.00  0.00    +0.000 C 
ATOM      7  C   UNL     1       6.216   3.989  16.443  0.00  0.00    +0.000 C 
ATOM      8  C   UNL     1       6.707   4.656  15.181  0.00  0.00    +0.000 C 
ATOM      9  O   UNL     1       6.602   6.066  15.412  0.00  0.00    +0.000 OA
ATOM     10  C   UNL     1       6.563   6.293  16.840  0.00  0.00    +0.000 C 
ATOM     11  C   UNL     1       7.663   7.285  17.187  0.00  0.00    +0.000 C 
ENDBRANCH   3   6
ENDBRANCH   1   3
BRANCH   1  12
ATOM     12  C   UNL     1       3.564   5.685  18.096  0.00  0.00    +0.000 C 
BRANCH  12  14
ATOM     13  C   UNL     1       2.243   7.013  19.831  0.00  0.00    +0.000 C 
ATOM     14  C   UNL     1       2.233   5.821  18.867  0.00  0.00    +0.000 C 
BRANCH  14  15
ATOM     15  C   UNL     1       1.856   4.528  19.559  0.00  0.00    +0.000 A 
ATOM     16  C   UNL     1       1.688   4.269  20.907  0.00  0.00    +0.000 A 
ATOM     17  C   UNL     1       1.363   2.906  21.163  0.00  0.00    +0.000 A 
ATOM     18  C   UNL     1       1.286   2.166  20.006  0.00  0.00    +0.000 A 
ATOM     19  S   UNL     1       1.591   3.114  18.618  0.00  0.00    +0.000 S 
ENDBRANCH  14  15
ENDBRANCH  12  14
ENDBRANCH   1  12
TORSDOF 5
ENDMDL
MODEL 5
REMARK VINA RESULT:      -6.6      1.361      1.809
REMARK  Name = 
REMARK  7 active torsions:
REMARK  status: ('A' for Active; 'I' for Inactive)
REMARK    1  A    between atoms: C_1  and  C_2
REMARK    2  A    between atoms: C_2  and  C_3
REMARK    3  A    between atoms: C_2  and  C_14
REMARK    4  A    between atoms: C_3  and  N_4
REMARK    5  A    between atoms: N_4  and  S_5
REMARK    6  A    between atoms: S_5  and  C_8
REMARK    7  A    between atoms: C_12  and  C_13
REMARK                            x       y       z     vdW  Elec       q    Type
REMARK                         _______ _______ _______ _____ _____    ______ ____
ROOT
ATOM      1  N   UNL     1       3.720   4.726  17.144  0.00  0.00    +0.000 NA
ATOM      2  H   UNL     1       3.295   5.575  16.757  0.00  0.00    +0.000 HD
ENDROOT
BRANCH   1   3
ATOM      3  S   UNL     1       2.470   3.754  17.740  0.00  0.00    +0.000 S 
ATOM      4  O   UNL     1       1.242   4.443  17.408  0.00  0.00    +0.000 OA
ATOM      5  O   UNL     1       2.724   2.410  17.270  0.00  0.00    +0.000 OA
BRANCH   3   6
ATOM      6  C   UNL     1       2.735   3.813  19.493  0.00  0.00    +0.000 C 
ATOM      7  C   UNL     1       1.506   4.167  20.296  0.00  0.00    +0.000 C 
ATOM      8  C   UNL     1       1.899   3.652  21.659  0.00  0.00    +0.000 C 
ATOM      9  O   UNL     1       2.636   2.445  21.430  0.00  0.00    +0.000 OA
ATOM     10  C   UNL     1       3.129   2.464  20.069  0.00  0.00    +0.000 C 
ATOM     11  C   UNL     1       4.634   2.244  20.114  0.00  0.00    +0.000 C 
ENDBRANCH   3   6
ENDBRANCH   1   3
BRANCH   1  12
ATOM     12  C   UNL     1       4.682   4.092  16.205  0.00  0.00    +0.000 C 
BRANCH  12  14
ATOM     13  C   UNL     1       6.614   4.527  14.593  0.00  0.00    +0.000 C 
ATOM     14  C   UNL     1       5.793   5.071  15.767  0.00  0.00    +0.000 C 
BRANCH  14  15
ATOM     15  C   UNL     1       6.666   5.480  16.935  0.00  0.00    +0.000 A 
ATOM     16  C   UNL     1       7.278   4.693  17.894  0.00  0.00    +0.000 A 
ATOM     17  C   UNL     1       7.994   5.463  18.854  0.00  0.00    +0.000 A 
ATOM     18  C   UNL     1       7.915   6.812  18.599  0.00  0.00    +0.000 A 
ATOM     19  S   UNL     1       6.992   7.147  17.201  0.00  0.00    +0.000 S 
ENDBRANCH  14  15
ENDBRANCH  12  14
ENDBRANCH   1  12
TORSDOF 5
ENDMDL
MODEL 6
REMARK VINA RESULT:      -6.5      1.354      2.075
REMARK  Name = 
REMARK  7 active torsions:
REMARK  status: ('A' for Active; 'I' for Inactive)
REMARK    1  A    between atoms: C_1  and  C_2
REMARK    2  A    between atoms: C_2  and  C_3
REMARK    3  A    between atoms: C_2  and  C_14
REMARK    4  A    between atoms: C_3  and  N_4
REMARK    5  A    between atoms: N_4  and  S_5
REMARK    6  A    between atoms: S_5  and  C_8
REMARK    7  A    between atoms: C_12  and  C_13
REMARK                            x       y       z     vdW  Elec       q    Type
REMARK                         _______ _______ _______ _____ _____    ______ ____
ROOT
ATOM      1  N   UNL     1       4.056   4.667  17.045  0.00  0.00    +0.000 NA
ATOM      2  H   UNL     1       3.434   5.423  16.741  0.00  0.00    +0.000 HD
ENDROOT
BRANCH   1   3
ATOM      3  S   UNL     1       3.107   3.514  17.842  0.00  0.00    +0.000 S 
ATOM      4  O   UNL     1       1.893   3.396  17.063  0.00  0.00    +0.000 OA
ATOM      5  O   UNL     1       3.957   2.368  18.084  0.00  0.00    +0.000 OA
BRANCH   3   6
ATOM      6  C   UNL     1       2.752   4.307  19.388  0.00  0.00    +0.000 C 
ATOM      7  C   UNL     1       2.740   5.816  19.325  0.00  0.00    +0.000 C 
ATOM      8  C   UNL     1       1.948   6.146  20.567  0.00  0.00    +0.000 C 
ATOM      9  O   UNL     1       0.937   5.137  20.672  0.00  0.00    +0.000 OA
ATOM     10  C   UNL     1       1.358   3.986  19.902  0.00  0.00    +0.000 C 
ATOM     11  C   UNL     1       1.318   2.771  20.815  0.00  0.00    +0.000 C 
ENDBRANCH   3   6
ENDBRANCH   1   3
BRANCH   1  12
ATOM     12  C   UNL     1       4.937   4.180  15.951  0.00  0.00    +0.000 C 
BRANCH  12  14
ATOM     13  C   UNL     1       6.963   4.696  14.486  0.00  0.00    +0.000 C 
ATOM     14  C   UNL     1       6.066   5.183  15.629  0.00  0.00    +0.000 C 
BRANCH  14  15
ATOM     15  C   UNL     1       6.861   5.542  16.867  0.00  0.00    +0.000 A 
ATOM     16  C   UNL     1       7.460   4.713  17.799  0.00  0.00    +0.000 A 
ATOM     17  C   UNL     1       8.092   5.440  18.848  0.00  0.00    +0.000 A 
ATOM     18  C   UNL     1       7.965   6.799  18.685  0.00  0.00    +0.000 A 
ATOM     19  S   UNL     1       7.099   7.197  17.268  0.00  0.00    +0.000 S 
ENDBRANCH  14  15
ENDBRANCH  12  14
ENDBRANCH   1  12
TORSDOF 5
ENDMDL
MODEL 7
REMARK VINA RESULT:      -6.5      2.864      5.990
REMARK  Name = 
REMARK  7 active torsions:
REMARK  status: ('A' for Active; 'I' for Inactive)
REMARK    1  A    between atoms: C_1  and  C_2
REMARK    2  A    between atoms: C_2  and  C_3
REMARK    3  A    between atoms: C_2  and  C_14
REMARK    4  A    between atoms: C_3  and  N_4
REMARK    5  A    between atoms: N_4  and  S_5
REMARK    6  A    between atoms: S_5  and  C_8
REMARK    7  A    between atoms: C_12  and  C_13
REMARK                            x       y       z     vdW  Elec       q    Type
REMARK                         _______ _______ _______ _____ _____    ______ ____
ROOT
ATOM      1  N   UNL     1       3.951   5.668  17.728  0.00  0.00    +0.000 NA
ATOM      2  H   UNL     1       4.672   6.084  18.326  0.00  0.00    +0.000 HD
ENDROOT
BRANCH   1   3
ATOM      3  S   UNL     1       4.314   4.025  17.553  0.00  0.00    +0.000 S 
ATOM      4  O   UNL     1       4.706   3.566  18.868  0.00  0.00    +0.000 OA
ATOM      5  O   UNL     1       3.203   3.423  16.850  0.00  0.00    +0.000 OA
BRANCH   3   6
ATOM      6  C   UNL     1       5.729   4.053  16.483  0.00  0.00    +0.000 C 
ATOM      7  C   UNL     1       5.413   4.382  15.043  0.00  0.00    +0.000 C 
ATOM      8  C   UNL     1       6.770   4.817  14.547  0.00  0.00    +0.000 C 
ATOM      9  O   UNL     1       7.379   5.529  15.630  0.00  0.00    +0.000 OA
ATOM     10  C   UNL     1       6.724   5.137  16.859  0.00  0.00    +0.000 C 
ATOM     11  C   UNL     1       7.795   4.661  17.829  0.00  0.00    +0.000 C 
ENDBRANCH   3   6
ENDBRANCH   1   3
BRANCH   1  12
ATOM     12  C   UNL     1       2.575   6.015  18.171  0.00  0.00    +0.000 C 
BRANCH  12  14
ATOM     13  C   UNL     1       1.912   5.391  20.557  0.00  0.00    +0.000 C 
ATOM     14  C   UNL     1       2.538   6.457  19.650  0.00  0.00    +0.000 C 
BRANCH  14  15
ATOM     15  C   UNL     1       1.872   7.808  19.811  0.00  0.00    +0.000 A 
ATOM     16  C   UNL     1       1.262   8.361  20.922  0.00  0.00    +0.000 A 
ATOM     17  C   UNL     1       0.720   9.652  20.659  0.00  0.00    +0.000 A 
ATOM     18  C   UNL     1       0.936  10.049  19.360  0.00  0.00    +0.000 A 
ATOM     19  S   UNL     1       1.799   8.877  18.467  0.00  0.00    +0.000 S 
ENDBRANCH  14  15
ENDBRANCH  12  14
ENDBRANCH   1  12
TORSDOF 5
ENDMDL
MODEL 8
REMARK VINA RESULT:      -6.4      1.648      1.921
REMARK  Name = 
REMARK  7 active torsions:
REMARK  status: ('A' for Active; 'I' for Inactive)
REMARK    1  A    between atoms: C_1  and  C_2
REMARK    2  A    between atoms: C_2  and  C_3
REMARK    3  A    between atoms: C_2  and  C_14
REMARK    4  A    between atoms: C_3  and  N_4
REMARK    5  A    between atoms: N_4  and  S_5
REMARK    6  A    between atoms: S_5  and  C_8
REMARK    7  A    between atoms: C_12  and  C_13
REMARK                            x       y       z     vdW  Elec       q    Type
REMARK                         _______ _______ _______ _____ _____    ______ ____
ROOT
ATOM      1  N   UNL     1       4.557   2.882  17.288  0.00  0.00    +0.000 NA
ATOM      2  H   UNL     1       5.563   2.696  17.219  0.00  0.00    +0.000 HD
ENDROOT
BRANCH   1   3
ATOM      3  S   UNL     1       4.057   2.431  18.840  0.00  0.00    +0.000 S 
ATOM      4  O   UNL     1       3.601   1.063  18.726  0.00  0.00    +0.000 OA
ATOM      5  O   UNL     1       5.126   2.791  19.745  0.00  0.00    +0.000 OA
BRANCH   3   6
ATOM      6  C   UNL     1       2.672   3.501  19.127  0.00  0.00    +0.000 C 
ATOM      7  C   UNL     1       1.446   2.801  19.665  0.00  0.00    +0.000 C 
ATOM      8  C   UNL     1       0.691   3.967  20.257  0.00  0.00    +0.000 C 
ATOM      9  O   UNL     1       1.680   4.836  20.821  0.00  0.00    +0.000 OA
ATOM     10  C   UNL     1       2.952   4.545  20.195  0.00  0.00    +0.000 C 
ATOM     11  C   UNL     1       3.506   5.846  19.634  0.00  0.00    +0.000 C 
ENDBRANCH   3   6
ENDBRANCH   1   3
BRANCH   1  12
ATOM     12  C   UNL     1       4.198   4.250  16.830  0.00  0.00    +0.000 C 
BRANCH  12  14
ATOM     13  C   UNL     1       6.105   3.861  15.178  0.00  0.00    +0.000 C 
ATOM     14  C   UNL     1       5.326   4.896  15.998  0.00  0.00    +0.000 C 
BRANCH  14  15
ATOM     15  C   UNL     1       6.237   5.746  16.859  0.00  0.00    +0.000 A 
ATOM     16  C   UNL     1       6.372   7.121  16.905  0.00  0.00    +0.000 A 
ATOM     17  C   UNL     1       7.368   7.540  17.832  0.00  0.00    +0.000 A 
ATOM     18  C   UNL     1       7.960   6.476  18.472  0.00  0.00    +0.000 A 
ATOM     19  S   UNL     1       7.307   4.981  17.965  0.00  0.00    +0.000 S 
ENDBRANCH  14  15
ENDBRANCH  12  14
ENDBRANCH   1  12
TORSDOF 5
ENDMDL
MODEL 9
REMARK VINA RESULT:      -6.4      1.412      2.160
REMARK  Name = 
REMARK  7 active torsions:
REMARK  status: ('A' for Active; 'I' for Inactive)
REMARK    1  A    between atoms: C_1  and  C_2
REMARK    2  A    between atoms: C_2  and  C_3
REMARK    3  A    between atoms: C_2  and  C_14
REMARK    4  A    between atoms: C_3  and  N_4
REMARK    5  A    between atoms: N_4  and  S_5
REMARK    6  A    between atoms: S_5  and  C_8
REMARK    7  A    between atoms: C_12  and  C_13
REMARK                            x       y       z     vdW  Elec       q    Type
REMARK                         _______ _______ _______ _____ _____    ______ ____
ROOT
ATOM      1  N   UNL     1       3.877   3.821  17.536  0.00  0.00    +0.000 NA
ATOM      2  H   UNL     1       2.947   3.785  17.107  0.00  0.00    +0.000 HD
ENDROOT
BRANCH   1   3
ATOM      3  S   UNL     1       3.820   2.908  18.959  0.00  0.00    +0.000 S 
ATOM      4  O   UNL     1       2.963   1.780  18.670  0.00  0.00    +0.000 OA
ATOM      5  O   UNL     1       5.188   2.720  19.390  0.00  0.00    +0.000 OA
BRANCH   3   6
ATOM      6  C   UNL     1       3.004   4.005  20.090  0.00  0.00    +0.000 C 
ATOM      7  C   UNL     1       2.855   5.420  19.586  0.00  0.00    +0.000 C 
ATOM      8  C   UNL     1       1.744   5.923  20.475  0.00  0.00    +0.000 C 
ATOM      9  O   UNL     1       0.848   4.820  20.652  0.00  0.00    +0.000 OA
ATOM     10  C   UNL     1       1.566   3.597  20.363  0.00  0.00    +0.000 C 
ATOM     11  C   UNL     1       1.420   2.673  21.563  0.00  0.00    +0.000 C 
ENDBRANCH   3   6
ENDBRANCH   1   3
BRANCH   1  12
ATOM     12  C   UNL     1       4.962   3.505  16.570  0.00  0.00    +0.000 C 
BRANCH  12  14
ATOM     13  C   UNL     1       6.191   4.415  14.525  0.00  0.00    +0.000 C 
ATOM     14  C   UNL     1       5.461   4.763  15.827  0.00  0.00    +0.000 C 
BRANCH  14  15
ATOM     15  C   UNL     1       6.292   5.650  16.730  0.00  0.00    +0.000 A 
ATOM     16  C   UNL     1       6.306   7.028  16.840  0.00  0.00    +0.000 A 
ATOM     17  C   UNL     1       7.261   7.490  17.789  0.00  0.00    +0.000 A 
ATOM     18  C   UNL     1       7.944   6.454  18.382  0.00  0.00    +0.000 A 
ATOM     19  S   UNL     1       7.426   4.932  17.805  0.00  0.00    +0.000 S 
ENDBRANCH  14  15
ENDBRANCH  12  14
ENDBRANCH   1  12
TORSDOF 5
ENDMDL
