MODEL 1
REMARK VINA RESULT:      -6.3      0.000      0.000
REMARK  Name = 
REMARK  10 active torsions:
REMARK  status: ('A' for Active; 'I' for Inactive)
REMARK    1  A    between atoms: O_1  and  C_2
REMARK    2  A    between atoms: C_2  and  C_3
REMARK    3  A    between atoms: C_2  and  C_13
REMARK    4  A    between atoms: C_3  and  N_4
REMARK    5  A    between atoms: N_4  and  C_5
REMARK    6  A    between atoms: C_5  and  C_6
REMARK    7  A    between atoms: C_6  and  C_7
REMARK    8  A    between atoms: C_7  and  N_8
REMARK    9  A    between atoms: C_13  and  O_14
REMARK   10  A    between atoms: O_14  and  C_15
REMARK                            x       y       z     vdW  Elec       q    Type
REMARK                         _______ _______ _______ _____ _____    ______ ____
ROOT
ATOM      1  C   UNL     1       1.737   4.029  20.196  0.00  0.00    +0.000 C 
ENDROOT
BRANCH   1   2
ATOM      2  O   UNL     1       0.722   3.226  20.819  0.00  0.00    +0.000 OA
ATOM      3  H   UNL     1      -0.024   3.811  21.031  0.00  0.00    +0.000 HD
ENDBRANCH   1   2
BRANCH   1   4
ATOM      4  C   UNL     1       1.457   4.054  18.681  0.00  0.00    +0.000 C 
BRANCH   4   5
ATOM      5  N   UNL     1       1.521   2.722  18.072  0.00  0.00    +0.000 NA
ATOM      6  H   UNL     1       0.843   2.657  17.313  0.00  0.00    +0.000 HD
BRANCH   5   7
ATOM      7  C   UNL     1       2.861   2.425  17.571  0.00  0.00    +0.000 C 
BRANCH   7   8
ATOM      8  C   UNL     1       3.517   3.719  17.096  0.00  0.00    +0.000 C 
BRANCH   8   9
ATOM      9  C   UNL     1       4.949   3.817  17.611  0.00  0.00    +0.000 C 
BRANCH   9  10
ATOM     10  N   UNL     1       5.849   4.377  16.624  0.00  0.00    +0.000 N 
ATOM     11  C   UNL     1       6.051   3.907  15.357  0.00  0.00    +0.000 A 
ATOM     12  C   UNL     1       6.960   4.777  14.800  0.00  0.00    +0.000 A 
ATOM     13  N   UNL     1       7.311   5.753  15.696  0.00  0.00    +0.000 NA
ATOM     14  C   UNL     1       6.625   5.488  16.785  0.00  0.00    +0.000 A 
ENDBRANCH   9  10
ENDBRANCH   8   9
ENDBRANCH   7   8
ENDBRANCH   5   7
ENDBRANCH   4   5
ENDBRANCH   1   4
BRANCH   1  15
ATOM     15  C   UNL     1       1.688   5.444  20.791  0.00  0.00    +0.000 C 
BRANCH  15  16
ATOM     16  O   UNL     1       2.524   6.318  20.022  0.00  0.00    +0.000 OA
BRANCH  16  17
ATOM     17  C   UNL     1       2.012   7.562  19.750  0.00  0.00    +0.000 A 
ATOM     18  C   UNL     1       1.216   8.290  20.642  0.00  0.00    +0.000 A 
ATOM     19  C   UNL     1       0.753   9.564  20.304  0.00  0.00    +0.000 A 
ATOM     20  C   UNL     1       1.088  10.123  19.074  0.00  0.00    +0.000 A 
ATOM     21 CL   UNL     1       0.512  11.691  18.668  0.00  0.00    +0.000 Cl
ATOM     22  C   UNL     1       1.887   9.420  18.178  0.00  0.00    +0.000 A 
ATOM     23  C   UNL     1       2.352   8.147  18.518  0.00  0.00    +0.000 A 
ATOM     24 CL   UNL     1       3.337   7.312  17.367  0.00  0.00    +0.000 Cl
ENDBRANCH  16  17
ENDBRANCH  15  16
ENDBRANCH   1  15
TORSDOF 10
ENDMDL
MODEL 2
REMARK VINA RESULT:      -6.2      3.201      5.776
REMARK  Name = 
REMARK  10 active torsions:
REMARK  status: ('A' for Active; 'I' for Inactive)
REMARK    1  A    between atoms: O_1  and  C_2
REMARK    2  A    between atoms: C_2  and  C_3
REMARK    3  A    between atoms: C_2  and  C_13
REMARK    4  A    between atoms: C_3  and  N_4
REMARK    5  A    between atoms: N_4  and  C_5
REMARK    6  A    between atoms: C_5  and  C_6
REMARK    7  A    between atoms: C_6  and  C_7
REMARK    8  A    between atoms: C_7  and  N_8
REMARK    9  A    between atoms: C_13  and  O_14
REMARK   10  A    between atoms: O_14  and  C_15
REMARK                            x       y       z     vdW  Elec       q    Type
REMARK                         _______ _______ _______ _____ _____    ______ ____
ROOT
ATOM      1  C   UNL     1       2.050   2.994  17.734  0.00  0.00    +0.000 C 
ENDROOT
BRANCH   1   2
ATOM      2  O   UNL     1       1.260   1.845  18.080  0.00  0.00    +0.000 OA
ATOM      3  H   UNL     1       0.473   1.850  17.511  0.00  0.00    +0.000 HD
ENDBRANCH   1   2
BRANCH   1   4
ATOM      4  C   UNL     1       1.569   4.176  18.599  0.00  0.00    +0.000 C 
BRANCH   4   5
ATOM      5  N   UNL     1       1.788   3.954  20.031  0.00  0.00    +0.000 NA
ATOM      6  H   UNL     1       2.325   3.098  20.170  0.00  0.00    +0.000 HD
BRANCH   5   7
ATOM      7  C   UNL     1       2.480   5.083  20.649  0.00  0.00    +0.000 C 
BRANCH   7   8
ATOM      8  C   UNL     1       2.462   6.269  19.688  0.00  0.00    +0.000 C 
BRANCH   8   9
ATOM      9  C   UNL     1       1.728   7.454  20.308  0.00  0.00    +0.000 C 
BRANCH   9  10
ATOM     10  N   UNL     1       1.639   8.579  19.400  0.00  0.00    +0.000 N 
ATOM     11  C   UNL     1       1.037   9.778  19.657  0.00  0.00    +0.000 A 
ATOM     12  C   UNL     1       1.237  10.522  18.517  0.00  0.00    +0.000 A 
ATOM     13  N   UNL     1       1.939   9.804  17.584  0.00  0.00    +0.000 NA
ATOM     14  C   UNL     1       2.169   8.638  18.144  0.00  0.00    +0.000 A 
ENDBRANCH   9  10
ENDBRANCH   8   9
ENDBRANCH   7   8
ENDBRANCH   5   7
ENDBRANCH   4   5
ENDBRANCH   1   4
BRANCH   1  15
ATOM     15  C   UNL     1       3.529   2.680  18.000  0.00  0.00    +0.000 C 
BRANCH  15  16
ATOM     16  O   UNL     1       4.339   3.283  16.982  0.00  0.00    +0.000 OA
BRANCH  16  17
ATOM     17  C   UNL     1       5.226   4.242  17.401  0.00  0.00    +0.000 A 
ATOM     18  C   UNL     1       5.583   4.443  18.739  0.00  0.00    +0.000 A 
ATOM     19  C   UNL     1       6.514   5.425  19.087  0.00  0.00    +0.000 A 
ATOM     20  C   UNL     1       7.101   6.209  18.097  0.00  0.00    +0.000 A 
ATOM     21 CL   UNL     1       8.245   7.415  18.536  0.00  0.00    +0.000 Cl
ATOM     22  C   UNL     1       6.768   6.018  16.760  0.00  0.00    +0.000 A 
ATOM     23  C   UNL     1       5.838   5.034  16.414  0.00  0.00    +0.000 A 
ATOM     24 CL   UNL     1       5.452   4.840  14.739  0.00  0.00    +0.000 Cl
ENDBRANCH  16  17
ENDBRANCH  15  16
ENDBRANCH   1  15
TORSDOF 10
ENDMDL
MODEL 3
REMARK VINA RESULT:      -6.1      4.557      7.483
REMARK  Name = 
REMARK  10 active torsions:
REMARK  status: ('A' for Active; 'I' for Inactive)
REMARK    1  A    between atoms: O_1  and  C_2
REMARK    2  A    between atoms: C_2  and  C_3
REMARK    3  A    between atoms: C_2  and  C_13
REMARK    4  A    between atoms: C_3  and  N_4
REMARK    5  A    between atoms: N_4  and  C_5
REMARK    6  A    between atoms: C_5  and  C_6
REMARK    7  A    between atoms: C_6  and  C_7
REMARK    8  A    between atoms: C_7  and  N_8
REMARK    9  A    between atoms: C_13  and  O_14
REMARK   10  A    between atoms: O_14  and  C_15
REMARK                            x       y       z     vdW  Elec       q    Type
REMARK                         _______ _______ _______ _____ _____    ______ ____
ROOT
ATOM      1  C   UNL     1       6.974   4.607  17.488  0.00  0.00    +0.000 C 
ENDROOT
BRANCH   1   2
ATOM      2  O   UNL     1       8.317   4.136  17.681  0.00  0.00    +0.000 OA
ATOM      3  H   UNL     1       8.775   4.201  16.827  0.00  0.00    +0.000 HD
ENDBRANCH   1   2
BRANCH   1   4
ATOM      4  C   UNL     1       6.342   4.817  18.878  0.00  0.00    +0.000 C 
BRANCH   4   5
ATOM      5  N   UNL     1       5.418   3.740  19.246  0.00  0.00    +0.000 NA
ATOM      6  H   UNL     1       5.093   3.875  20.204  0.00  0.00    +0.000 HD
BRANCH   5   7
ATOM      7  C   UNL     1       4.276   3.677  18.336  0.00  0.00    +0.000 C 
BRANCH   7   8
ATOM      8  C   UNL     1       3.527   5.007  18.381  0.00  0.00    +0.000 C 
BRANCH   8   9
ATOM      9  C   UNL     1       3.116   5.347  19.810  0.00  0.00    +0.000 C 
BRANCH   9  10
ATOM     10  N   UNL     1       2.294   4.313  20.404  0.00  0.00    +0.000 N 
ATOM     11  C   UNL     1       1.174   3.757  19.854  0.00  0.00    +0.000 A 
ATOM     12  C   UNL     1       0.766   2.812  20.767  0.00  0.00    +0.000 A 
ATOM     13  N   UNL     1       1.607   2.786  21.849  0.00  0.00    +0.000 NA
ATOM     14  C   UNL     1       2.519   3.700  21.602  0.00  0.00    +0.000 A 
ENDBRANCH   9  10
ENDBRANCH   8   9
ENDBRANCH   7   8
ENDBRANCH   5   7
ENDBRANCH   4   5
ENDBRANCH   1   4
BRANCH   1  15
ATOM     15  C   UNL     1       7.015   5.922  16.696  0.00  0.00    +0.000 C 
BRANCH  15  16
ATOM     16  O   UNL     1       7.689   5.710  15.447  0.00  0.00    +0.000 OA
BRANCH  16  17
ATOM     17  C   UNL     1       7.021   4.951  14.520  0.00  0.00    +0.000 A 
ATOM     18  C   UNL     1       5.867   4.212  14.801  0.00  0.00    +0.000 A 
ATOM     19  C   UNL     1       5.227   3.483  13.796  0.00  0.00    +0.000 A 
ATOM     20  C   UNL     1       5.733   3.493  12.499  0.00  0.00    +0.000 A 
ATOM     21 CL   UNL     1       4.938   2.592  11.269  0.00  0.00    +0.000 Cl
ATOM     22  C   UNL     1       6.873   4.230  12.196  0.00  0.00    +0.000 A 
ATOM     23  C   UNL     1       7.510   4.961  13.202  0.00  0.00    +0.000 A 
ATOM     24 CL   UNL     1       8.928   5.856  12.776  0.00  0.00    +0.000 Cl
ENDBRANCH  16  17
ENDBRANCH  15  16
ENDBRANCH   1  15
TORSDOF 10
ENDMDL
MODEL 4
REMARK VINA RESULT:      -6.1      3.173      5.450
REMARK  Name = 
REMARK  10 active torsions:
REMARK  status: ('A' for Active; 'I' for Inactive)
REMARK    1  A    between atoms: O_1  and  C_2
REMARK    2  A    between atoms: C_2  and  C_3
REMARK    3  A    between atoms: C_2  and  C_13
REMARK    4  A    between atoms: C_3  and  N_4
REMARK    5  A    between atoms: N_4  and  C_5
REMARK    6  A    between atoms: C_5  and  C_6
REMARK    7  A    between atoms: C_6  and  C_7
REMARK    8  A    between atoms: C_7  and  N_8
REMARK    9  A    between atoms: C_13  and  O_14
REMARK   10  A    between atoms: O_14  and  C_15
REMARK                            x       y       z     vdW  Elec       q    Type
REMARK                         _______ _______ _______ _____ _____    ______ ____
ROOT
ATOM      1  C   UNL     1       3.116   2.192  17.478  0.00  0.00    +0.000 C 
ENDROOT
BRANCH   1   2
ATOM      2  O   UNL     1       4.022   1.592  18.416  0.00  0.00    +0.000 OA
ATOM      3  H   UNL     1       3.767   0.660  18.514  0.00  0.00    +0.000 HD
ENDBRANCH   1   2
BRANCH   1   4
ATOM      4  C   UNL     1       1.758   2.377  18.182  0.00  0.00    +0.000 C 
BRANCH   4   5
ATOM      5  N   UNL     1       1.898   2.659  19.614  0.00  0.00    +0.000 NA
ATOM      6  H   UNL     1       2.857   2.943  19.818  0.00  0.00    +0.000 HD
BRANCH   5   7
ATOM      7  C   UNL     1       0.967   3.697  20.050  0.00  0.00    +0.000 C 
BRANCH   7   8
ATOM      8  C   UNL     1       1.722   4.731  20.881  0.00  0.00    +0.000 C 
BRANCH   8   9
ATOM      9  C   UNL     1       2.894   5.305  20.092  0.00  0.00    +0.000 C 
BRANCH   9  10
ATOM     10  N   UNL     1       2.550   6.544  19.425  0.00  0.00    +0.000 N 
ATOM     11  C   UNL     1       2.014   7.655  20.013  0.00  0.00    +0.000 A 
ATOM     12  C   UNL     1       1.896   8.570  18.992  0.00  0.00    +0.000 A 
ATOM     13  N   UNL     1       2.344   8.040  17.809  0.00  0.00    +0.000 NA
ATOM     14  C   UNL     1       2.733   6.819  18.101  0.00  0.00    +0.000 A 
ENDBRANCH   9  10
ENDBRANCH   8   9
ENDBRANCH   7   8
ENDBRANCH   5   7
ENDBRANCH   4   5
ENDBRANCH   1   4
BRANCH   1  15
ATOM     15  C   UNL     1       3.692   3.541  17.022  0.00  0.00    +0.000 C 
BRANCH  15  16
ATOM     16  O   UNL     1       5.112   3.430  16.864  0.00  0.00    +0.000 OA
BRANCH  16  17
ATOM     17  C   UNL     1       5.856   4.498  17.298  0.00  0.00    +0.000 A 
ATOM     18  C   UNL     1       6.182   4.729  18.639  0.00  0.00    +0.000 A 
ATOM     19  C   UNL     1       6.967   5.826  19.001  0.00  0.00    +0.000 A 
ATOM     20  C   UNL     1       7.437   6.698  18.024  0.00  0.00    +0.000 A 
ATOM     21 CL   UNL     1       8.401   8.047  18.481  0.00  0.00    +0.000 Cl
ATOM     22  C   UNL     1       7.134   6.481  16.684  0.00  0.00    +0.000 A 
ATOM     23  C   UNL     1       6.351   5.381  16.323  0.00  0.00    +0.000 A 
ATOM     24 CL   UNL     1       5.995   5.158  14.645  0.00  0.00    +0.000 Cl
ENDBRANCH  16  17
ENDBRANCH  15  16
ENDBRANCH   1  15
TORSDOF 10
ENDMDL
MODEL 5
REMARK VINA RESULT:      -6.1      2.162      4.615
REMARK  Name = 
REMARK  10 active torsions:
REMARK  status: ('A' for Active; 'I' for Inactive)
REMARK    1  A    between atoms: O_1  and  C_2
REMARK    2  A    between atoms: C_2  and  C_3
REMARK    3  A    between atoms: C_2  and  C_13
REMARK    4  A    between atoms: C_3  and  N_4
REMARK    5  A    between atoms: N_4  and  C_5
REMARK    6  A    between atoms: C_5  and  C_6
REMARK    7  A    between atoms: C_6  and  C_7
REMARK    8  A    between atoms: C_7  and  N_8
REMARK    9  A    between atoms: C_13  and  O_14
REMARK   10  A    between atoms: O_14  and  C_15
REMARK                            x       y       z     vdW  Elec       q    Type
REMARK                         _______ _______ _______ _____ _____    ______ ____
ROOT
ATOM      1  C   UNL     1       5.045   5.801  16.482  0.00  0.00    +0.000 C 
ENDROOT
BRANCH   1   2
ATOM      2  O   UNL     1       5.997   6.207  15.486  0.00  0.00    +0.000 OA
ATOM      3  H   UNL     1       5.498   6.566  14.734  0.00  0.00    +0.000 HD
ENDBRANCH   1   2
BRANCH   1   4
ATOM      4  C   UNL     1       5.769   4.878  17.481  0.00  0.00    +0.000 C 
BRANCH   4   5
ATOM      5  N   UNL     1       5.131   3.564  17.601  0.00  0.00    +0.000 NA
ATOM      6  H   UNL     1       4.793   3.429  18.554  0.00  0.00    +0.000 HD
BRANCH   5   7
ATOM      7  C   UNL     1       4.027   3.415  16.655  0.00  0.00    +0.000 C 
BRANCH   7   8
ATOM      8  C   UNL     1       2.748   3.095  17.424  0.00  0.00    +0.000 C 
BRANCH   8   9
ATOM      9  C   UNL     1       2.988   1.969  18.425  0.00  0.00    +0.000 C 
BRANCH   9  10
ATOM     10  N   UNL     1       2.545   2.319  19.759  0.00  0.00    +0.000 N 
ATOM     11  C   UNL     1       1.250   2.486  20.162  0.00  0.00    +0.000 A 
ATOM     12  C   UNL     1       1.335   2.778  21.504  0.00  0.00    +0.000 A 
ATOM     13  N   UNL     1       2.642   2.794  21.917  0.00  0.00    +0.000 NA
ATOM     14  C   UNL     1       3.349   2.513  20.845  0.00  0.00    +0.000 A 
ENDBRANCH   9  10
ENDBRANCH   8   9
ENDBRANCH   7   8
ENDBRANCH   5   7
ENDBRANCH   4   5
ENDBRANCH   1   4
BRANCH   1  15
ATOM     15  C   UNL     1       4.493   7.051  17.183  0.00  0.00    +0.000 C 
BRANCH  15  16
ATOM     16  O   UNL     1       3.350   6.694  17.973  0.00  0.00    +0.000 OA
BRANCH  16  17
ATOM     17  C   UNL     1       2.585   7.735  18.436  0.00  0.00    +0.000 A 
ATOM     18  C   UNL     1       2.368   8.921  17.725  0.00  0.00    +0.000 A 
ATOM     19  C   UNL     1       1.554   9.926  18.251  0.00  0.00    +0.000 A 
ATOM     20  C   UNL     1       0.944   9.751  19.490  0.00  0.00    +0.000 A 
ATOM     21 CL   UNL     1      -0.055  10.996  20.130  0.00  0.00    +0.000 Cl
ATOM     22  C   UNL     1       1.138   8.575  20.209  0.00  0.00    +0.000 A 
ATOM     23  C   UNL     1       1.950   7.569  19.679  0.00  0.00    +0.000 A 
ATOM     24 CL   UNL     1       2.166   6.129  20.613  0.00  0.00    +0.000 Cl
ENDBRANCH  16  17
ENDBRANCH  15  16
ENDBRANCH   1  15
TORSDOF 10
ENDMDL
MODEL 6
REMARK VINA RESULT:      -6.1      4.473      6.872
REMARK  Name = 
REMARK  10 active torsions:
REMARK  status: ('A' for Active; 'I' for Inactive)
REMARK    1  A    between atoms: O_1  and  C_2
REMARK    2  A    between atoms: C_2  and  C_3
REMARK    3  A    between atoms: C_2  and  C_13
REMARK    4  A    between atoms: C_3  and  N_4
REMARK    5  A    between atoms: N_4  and  C_5
REMARK    6  A    between atoms: C_5  and  C_6
REMARK    7  A    between atoms: C_6  and  C_7
REMARK    8  A    between atoms: C_7  and  N_8
REMARK    9  A    between atoms: C_13  and  O_14
REMARK   10  A    between atoms: O_14  and  C_15
REMARK                            x       y       z     vdW  Elec       q    Type
REMARK                         _______ _______ _______ _____ _____    ______ ____
ROOT
ATOM      1  C   UNL     1       6.266   4.826  15.798  0.00  0.00    +0.000 C 
ENDROOT
BRANCH   1   2
ATOM      2  O   UNL     1       5.939   5.857  14.852  0.00  0.00    +0.000 OA
ATOM      3  H   UNL     1       5.794   6.676  15.353  0.00  0.00    +0.000 HD
ENDBRANCH   1   2
BRANCH   1   4
ATOM      4  C   UNL     1       7.314   5.394  16.774  0.00  0.00    +0.000 C 
BRANCH   4   5
ATOM      5  N   UNL     1       7.559   6.825  16.570  0.00  0.00    +0.000 NA
ATOM      6  H   UNL     1       6.821   7.222  15.989  0.00  0.00    +0.000 HD
BRANCH   5   7
ATOM      7  C   UNL     1       7.634   7.543  17.841  0.00  0.00    +0.000 C 
BRANCH   7   8
ATOM      8  C   UNL     1       8.183   8.946  17.592  0.00  0.00    +0.000 C 
BRANCH   8   9
ATOM      9  C   UNL     1       8.895   9.473  18.834  0.00  0.00    +0.000 C 
BRANCH   9  10
ATOM     10  N   UNL     1       9.360  10.834  18.661  0.00  0.00    +0.000 N 
ATOM     11  C   UNL     1      10.601  11.309  18.979  0.00  0.00    +0.000 A 
ATOM     12  C   UNL     1      10.575  12.634  18.609  0.00  0.00    +0.000 A 
ATOM     13  N   UNL     1       9.355  12.968  18.080  0.00  0.00    +0.000 NA
ATOM     14  C   UNL     1       8.644  11.863  18.123  0.00  0.00    +0.000 A 
ENDBRANCH   9  10
ENDBRANCH   8   9
ENDBRANCH   7   8
ENDBRANCH   5   7
ENDBRANCH   4   5
ENDBRANCH   1   4
BRANCH   1  15
ATOM     15  C   UNL     1       4.988   4.407  16.540  0.00  0.00    +0.000 C 
BRANCH  15  16
ATOM     16  O   UNL     1       5.007   4.943  17.870  0.00  0.00    +0.000 OA
BRANCH  16  17
ATOM     17  C   UNL     1       4.181   4.333  18.781  0.00  0.00    +0.000 A 
ATOM     18  C   UNL     1       4.504   3.150  19.456  0.00  0.00    +0.000 A 
ATOM     19  C   UNL     1       3.622   2.602  20.390  0.00  0.00    +0.000 A 
ATOM     20  C   UNL     1       2.413   3.237  20.662  0.00  0.00    +0.000 A 
ATOM     21 CL   UNL     1       1.334   2.553  21.813  0.00  0.00    +0.000 Cl
ATOM     22  C   UNL     1       2.078   4.419  20.010  0.00  0.00    +0.000 A 
ATOM     23  C   UNL     1       2.963   4.967  19.077  0.00  0.00    +0.000 A 
ATOM     24 CL   UNL     1       2.498   6.435  18.288  0.00  0.00    +0.000 Cl
ENDBRANCH  16  17
ENDBRANCH  15  16
ENDBRANCH   1  15
TORSDOF 10
ENDMDL
MODEL 7
REMARK VINA RESULT:      -6.0      3.263      6.176
REMARK  Name = 
REMARK  10 active torsions:
REMARK  status: ('A' for Active; 'I' for Inactive)
REMARK    1  A    between atoms: O_1  and  C_2
REMARK    2  A    between atoms: C_2  and  C_3
REMARK    3  A    between atoms: C_2  and  C_13
REMARK    4  A    between atoms: C_3  and  N_4
REMARK    5  A    between atoms: N_4  and  C_5
REMARK    6  A    between atoms: C_5  and  C_6
REMARK    7  A    between atoms: C_6  and  C_7
REMARK    8  A    between atoms: C_7  and  N_8
REMARK    9  A    between atoms: C_13  and  O_14
REMARK   10  A    between atoms: O_14  and  C_15
REMARK                            x       y       z     vdW  Elec       q    Type
REMARK                         _______ _______ _______ _____ _____    ______ ____
ROOT
ATOM      1  C   UNL     1       2.684   2.865  18.772  0.00  0.00    +0.000 C 
ENDROOT
BRANCH   1   2
ATOM      2  O   UNL     1       1.867   1.882  18.117  0.00  0.00    +0.000 OA
ATOM      3  H   UNL     1       1.250   2.356  17.536  0.00  0.00    +0.000 HD
ENDBRANCH   1   2
BRANCH   1   4
ATOM      4  C   UNL     1       2.637   2.586  20.287  0.00  0.00    +0.000 C 
BRANCH   4   5
ATOM      5  N   UNL     1       2.382   3.795  21.076  0.00  0.00    +0.000 NA
ATOM      6  H   UNL     1       3.235   4.351  21.141  0.00  0.00    +0.000 HD
BRANCH   5   7
ATOM      7  C   UNL     1       1.306   4.597  20.497  0.00  0.00    +0.000 C 
BRANCH   7   8
ATOM      8  C   UNL     1       1.628   6.077  20.684  0.00  0.00    +0.000 C 
BRANCH   8   9
ATOM      9  C   UNL     1       2.600   6.557  19.611  0.00  0.00    +0.000 C 
BRANCH   9  10
ATOM     10  N   UNL     1       2.187   7.812  19.019  0.00  0.00    +0.000 N 
ATOM     11  C   UNL     1       1.429   8.777  19.619  0.00  0.00    +0.000 A 
ATOM     12  C   UNL     1       1.329   9.779  18.682  0.00  0.00    +0.000 A 
ATOM     13  N   UNL     1       2.003   9.444  17.537  0.00  0.00    +0.000 NA
ATOM     14  C   UNL     1       2.511   8.254  17.769  0.00  0.00    +0.000 A 
ENDBRANCH   9  10
ENDBRANCH   8   9
ENDBRANCH   7   8
ENDBRANCH   5   7
ENDBRANCH   4   5
ENDBRANCH   1   4
BRANCH   1  15
ATOM     15  C   UNL     1       4.119   2.760  18.235  0.00  0.00    +0.000 C 
BRANCH  15  16
ATOM     16  O   UNL     1       4.672   4.073  18.079  0.00  0.00    +0.000 OA
BRANCH  16  17
ATOM     17  C   UNL     1       5.365   4.306  16.918  0.00  0.00    +0.000 A 
ATOM     18  C   UNL     1       4.853   4.052  15.640  0.00  0.00    +0.000 A 
ATOM     19  C   UNL     1       5.609   4.340  14.502  0.00  0.00    +0.000 A 
ATOM     20  C   UNL     1       6.881   4.890  14.632  0.00  0.00    +0.000 A 
ATOM     21 CL   UNL     1       7.805   5.239  13.223  0.00  0.00    +0.000 Cl
ATOM     22  C   UNL     1       7.405   5.159  15.892  0.00  0.00    +0.000 A 
ATOM     23  C   UNL     1       6.646   4.873  17.030  0.00  0.00    +0.000 A 
ATOM     24 CL   UNL     1       7.343   5.220  18.575  0.00  0.00    +0.000 Cl
ENDBRANCH  16  17
ENDBRANCH  15  16
ENDBRANCH   1  15
TORSDOF 10
ENDMDL
MODEL 8
REMARK VINA RESULT:      -6.0      4.981      7.438
REMARK  Name = 
REMARK  10 active torsions:
REMARK  status: ('A' for Active; 'I' for Inactive)
REMARK    1  A    between atoms: O_1  and  C_2
REMARK    2  A    between atoms: C_2  and  C_3
REMARK    3  A    between atoms: C_2  and  C_13
REMARK    4  A    between atoms: C_3  and  N_4
REMARK    5  A    between atoms: N_4  and  C_5
REMARK    6  A    between atoms: C_5  and  C_6
REMARK    7  A    between atoms: C_6  and  C_7
REMARK    8  A    between atoms: C_7  and  N_8
REMARK    9  A    between atoms: C_13  and  O_14
REMARK   10  A    between atoms: O_14  and  C_15
REMARK                            x       y       z     vdW  Elec       q    Type
REMARK                         _______ _______ _______ _____ _____    ______ ____
ROOT
ATOM      1  C   UNL     1       7.506   5.856  17.352  0.00  0.00    +0.000 C 
ENDROOT
BRANCH   1   2
ATOM      2  O   UNL     1       7.486   5.937  15.918  0.00  0.00    +0.000 OA
ATOM      3  H   UNL     1       8.341   5.610  15.595  0.00  0.00    +0.000 HD
ENDBRANCH   1   2
BRANCH   1   4
ATOM      4  C   UNL     1       7.235   7.267  17.910  0.00  0.00    +0.000 C 
BRANCH   4   5
ATOM      5  N   UNL     1       7.997   8.307  17.212  0.00  0.00    +0.000 NA
ATOM      6  H   UNL     1       7.615   8.446  16.276  0.00  0.00    +0.000 HD
BRANCH   5   7
ATOM      7  C   UNL     1       7.983   9.569  17.949  0.00  0.00    +0.000 C 
BRANCH   7   8
ATOM      8  C   UNL     1       9.140   9.581  18.945  0.00  0.00    +0.000 C 
BRANCH   8   9
ATOM      9  C   UNL     1       9.322  10.971  19.544  0.00  0.00    +0.000 C 
BRANCH   9  10
ATOM     10  N   UNL     1      10.037  11.862  18.653  0.00  0.00    +0.000 N 
ATOM     11  C   UNL     1      11.280  11.649  18.126  0.00  0.00    +0.000 A 
ATOM     12  C   UNL     1      11.515  12.745  17.329  0.00  0.00    +0.000 A 
ATOM     13  N   UNL     1      10.451  13.610  17.363  0.00  0.00    +0.000 NA
ATOM     14  C   UNL     1       9.576  13.051  18.168  0.00  0.00    +0.000 A 
ENDBRANCH   9  10
ENDBRANCH   8   9
ENDBRANCH   7   8
ENDBRANCH   5   7
ENDBRANCH   4   5
ENDBRANCH   1   4
BRANCH   1  15
ATOM     15  C   UNL     1       6.428   4.864  17.811  0.00  0.00    +0.000 C 
BRANCH  15  16
ATOM     16  O   UNL     1       5.298   4.940  16.931  0.00  0.00    +0.000 OA
BRANCH  16  17
ATOM     17  C   UNL     1       4.156   4.309  17.356  0.00  0.00    +0.000 A 
ATOM     18  C   UNL     1       3.988   2.920  17.360  0.00  0.00    +0.000 A 
ATOM     19  C   UNL     1       2.804   2.349  17.833  0.00  0.00    +0.000 A 
ATOM     20  C   UNL     1       1.781   3.162  18.312  0.00  0.00    +0.000 A 
ATOM     21 CL   UNL     1       0.327   2.449  18.891  0.00  0.00    +0.000 Cl
ATOM     22  C   UNL     1       1.932   4.545  18.327  0.00  0.00    +0.000 A 
ATOM     23  C   UNL     1       3.119   5.115  17.856  0.00  0.00    +0.000 A 
ATOM     24 CL   UNL     1       3.256   6.839  17.889  0.00  0.00    +0.000 Cl
ENDBRANCH  16  17
ENDBRANCH  15  16
ENDBRANCH   1  15
TORSDOF 10
ENDMDL
MODEL 9
REMARK VINA RESULT:      -6.0      4.294      7.486
REMARK  Name = 
REMARK  10 active torsions:
REMARK  status: ('A' for Active; 'I' for Inactive)
REMARK    1  A    between atoms: O_1  and  C_2
REMARK    2  A    between atoms: C_2  and  C_3
REMARK    3  A    between atoms: C_2  and  C_13
REMARK    4  A    between atoms: C_3  and  N_4
REMARK    5  A    between atoms: N_4  and  C_5
REMARK    6  A    between atoms: C_5  and  C_6
REMARK    7  A    between atoms: C_6  and  C_7
REMARK    8  A    between atoms: C_7  and  N_8
REMARK    9  A    between atoms: C_13  and  O_14
REMARK   10  A    between atoms: O_14  and  C_15
REMARK                            x       y       z     vdW  Elec       q    Type
REMARK                         _______ _______ _______ _____ _____    ______ ____
ROOT
ATOM      1  C   UNL     1       7.417   5.882  18.061  0.00  0.00    +0.000 C 
ENDROOT
BRANCH   1   2
ATOM      2  O   UNL     1       7.560   7.187  17.479  0.00  0.00    +0.000 OA
ATOM      3  H   UNL     1       6.960   7.234  16.717  0.00  0.00    +0.000 HD
ENDBRANCH   1   2
BRANCH   1   4
ATOM      4  C   UNL     1       6.016   5.798  18.699  0.00  0.00    +0.000 C 
BRANCH   4   5
ATOM      5  N   UNL     1       4.940   5.852  17.705  0.00  0.00    +0.000 NA
ATOM      6  H   UNL     1       5.335   5.821  16.765  0.00  0.00    +0.000 HD
BRANCH   5   7
ATOM      7  C   UNL     1       3.989   4.757  17.884  0.00  0.00    +0.000 C 
BRANCH   7   8
ATOM      8  C   UNL     1       2.580   5.331  18.008  0.00  0.00    +0.000 C 
BRANCH   8   9
ATOM      9  C   UNL     1       2.286   5.731  19.451  0.00  0.00    +0.000 C 
BRANCH   9  10
ATOM     10  N   UNL     1       1.979   4.586  20.284  0.00  0.00    +0.000 N 
ATOM     11  C   UNL     1       1.077   3.600  20.000  0.00  0.00    +0.000 A 
ATOM     12  C   UNL     1       1.161   2.731  21.063  0.00  0.00    +0.000 A 
ATOM     13  N   UNL     1       2.084   3.168  21.977  0.00  0.00    +0.000 NA
ATOM     14  C   UNL     1       2.562   4.287  21.481  0.00  0.00    +0.000 A 
ENDBRANCH   9  10
ENDBRANCH   8   9
ENDBRANCH   7   8
ENDBRANCH   5   7
ENDBRANCH   4   5
ENDBRANCH   1   4
BRANCH   1  15
ATOM     15  C   UNL     1       7.588   4.824  16.961  0.00  0.00    +0.000 C 
BRANCH  15  16
ATOM     16  O   UNL     1       7.565   5.459  15.675  0.00  0.00    +0.000 OA
BRANCH  16  17
ATOM     17  C   UNL     1       6.902   4.787  14.679  0.00  0.00    +0.000 A 
ATOM     18  C   UNL     1       5.742   4.033  14.886  0.00  0.00    +0.000 A 
ATOM     19  C   UNL     1       5.107   3.398  13.816  0.00  0.00    +0.000 A 
ATOM     20  C   UNL     1       5.625   3.518  12.529  0.00  0.00    +0.000 A 
ATOM     21 CL   UNL     1       4.836   2.730  11.219  0.00  0.00    +0.000 Cl
ATOM     22  C   UNL     1       6.771   4.271  12.300  0.00  0.00    +0.000 A 
ATOM     23  C   UNL     1       7.403   4.908  13.372  0.00  0.00    +0.000 A 
ATOM     24 CL   UNL     1       8.830   5.828  13.037  0.00  0.00    +0.000 Cl
ENDBRANCH  16  17
ENDBRANCH  15  16
ENDBRANCH   1  15
TORSDOF 10
ENDMDL
