MODEL 1
REMARK VINA RESULT:      -6.5      0.000      0.000
REMARK  Name = 
REMARK  12 active torsions:
REMARK  status: ('A' for Active; 'I' for Inactive)
REMARK    1  A    between atoms: C_1  and  C_2
REMARK    2  A    between atoms: C_2  and  O_3
REMARK    3  A    between atoms: O_3  and  C_4
REMARK    4  A    between atoms: C_7  and  C_8
REMARK    5  A    between atoms: C_8  and  C_10
REMARK    6  A    between atoms: C_10  and  C_11
REMARK    7  A    between atoms: C_11  and  C_12
REMARK    8  A    between atoms: C_12  and  C_13
REMARK    9  A    between atoms: C_13  and  C_15
REMARK   10  A    between atoms: C_18  and  O_19
REMARK   11  A    between atoms: O_19  and  C_20
REMARK   12  A    between atoms: C_20  and  C_21
REMARK                            x       y       z     vdW  Elec       q    Type
REMARK                         _______ _______ _______ _____ _____    ______ ____
ROOT
ATOM      1  C   UNL     1       1.805   2.274  20.111  0.00  0.00    +0.000 C 
ENDROOT
BRANCH   1   2
ATOM      2  C   UNL     1       2.782   2.017  18.962  0.00  0.00    +0.000 C 
BRANCH   2   3
ATOM      3  C   UNL     1       4.200   2.419  19.329  0.00  0.00    +0.000 C 
ATOM      4  O   UNL     1       4.886   1.764  20.110  0.00  0.00    +0.000 OA
BRANCH   3   8
ATOM      5  C   UNL     1       5.798   5.956  17.479  0.00  0.00    +0.000 A 
ATOM      6  C   UNL     1       5.107   5.006  16.731  0.00  0.00    +0.000 A 
ATOM      7  C   UNL     1       4.591   3.864  17.345  0.00  0.00    +0.000 A 
ATOM      8  C   UNL     1       4.777   3.654  18.717  0.00  0.00    +0.000 A 
ATOM      9  C   UNL     1       5.497   4.596  19.462  0.00  0.00    +0.000 A 
ATOM     10  C   UNL     1       6.013   5.740  18.841  0.00  0.00    +0.000 A 
BRANCH   5  11
ATOM     11  O   UNL     1       6.230   7.045  16.777  0.00  0.00    +0.000 OA
BRANCH  11  13
ATOM     12  C   UNL     1       7.903   8.388  17.803  0.00  0.00    +0.000 C 
ATOM     13  C   UNL     1       7.638   7.286  16.795  0.00  0.00    +0.000 C 
ENDBRANCH  11  13
ENDBRANCH   5  11
ENDBRANCH   3   8
ENDBRANCH   2   3
ENDBRANCH   1   2
BRANCH   1  14
ATOM     14  C   UNL     1       1.079   3.607  19.949  0.00  0.00    +0.000 C 
BRANCH  14  15
ATOM     15  C   UNL     1       1.850   4.752  20.587  0.00  0.00    +0.000 C 
ATOM     16  O   UNL     1       2.389   4.663  21.688  0.00  0.00    +0.000 OA
BRANCH  15  17
ATOM     17  C   UNL     1       1.911   6.050  19.862  0.00  0.00    +0.000 A 
ATOM     18  C   UNL     1       1.657   7.227  20.575  0.00  0.00    +0.000 A 
ATOM     19  C   UNL     1       1.690   8.463  19.925  0.00  0.00    +0.000 A 
ATOM     20  C   UNL     1       2.006   8.539  18.568  0.00  0.00    +0.000 A 
ATOM     21  C   UNL     1       2.260   7.367  17.856  0.00  0.00    +0.000 A 
ATOM     22  C   UNL     1       2.212   6.123  18.498  0.00  0.00    +0.000 A 
BRANCH  20  23
ATOM     23  O   UNL     1       1.992   9.795  18.029  0.00  0.00    +0.000 OA
BRANCH  23  24
ATOM     24  C   UNL     1       1.201  10.761  18.722  0.00  0.00    +0.000 C 
ATOM     25  C   UNL     1       1.890  12.107  18.612  0.00  0.00    +0.000 C 
ENDBRANCH  23  24
ENDBRANCH  20  23
ENDBRANCH  15  17
ENDBRANCH  14  15
ENDBRANCH   1  14
TORSDOF 10
ENDMDL
MODEL 2
REMARK VINA RESULT:      -6.2      0.950      1.735
REMARK  Name = 
REMARK  12 active torsions:
REMARK  status: ('A' for Active; 'I' for Inactive)
REMARK    1  A    between atoms: C_1  and  C_2
REMARK    2  A    between atoms: C_2  and  O_3
REMARK    3  A    between atoms: O_3  and  C_4
REMARK    4  A    between atoms: C_7  and  C_8
REMARK    5  A    between atoms: C_8  and  C_10
REMARK    6  A    between atoms: C_10  and  C_11
REMARK    7  A    between atoms: C_11  and  C_12
REMARK    8  A    between atoms: C_12  and  C_13
REMARK    9  A    between atoms: C_13  and  C_15
REMARK   10  A    between atoms: C_18  and  O_19
REMARK   11  A    between atoms: O_19  and  C_20
REMARK   12  A    between atoms: C_20  and  C_21
REMARK                            x       y       z     vdW  Elec       q    Type
REMARK                         _______ _______ _______ _____ _____    ______ ____
ROOT
ATOM      1  C   UNL     1       1.426   3.761  18.453  0.00  0.00    +0.000 C 
ENDROOT
BRANCH   1   2
ATOM      2  C   UNL     1       1.816   2.301  18.211  0.00  0.00    +0.000 C 
BRANCH   2   3
ATOM      3  C   UNL     1       3.318   2.099  18.301  0.00  0.00    +0.000 C 
ATOM      4  O   UNL     1       3.816   1.056  18.719  0.00  0.00    +0.000 OA
BRANCH   3   8
ATOM      5  C   UNL     1       5.968   5.281  17.144  0.00  0.00    +0.000 A 
ATOM      6  C   UNL     1       5.887   4.861  18.470  0.00  0.00    +0.000 A 
ATOM      7  C   UNL     1       5.025   3.825  18.831  0.00  0.00    +0.000 A 
ATOM      8  C   UNL     1       4.220   3.208  17.865  0.00  0.00    +0.000 A 
ATOM      9  C   UNL     1       4.280   3.651  16.539  0.00  0.00    +0.000 A 
ATOM     10  C   UNL     1       5.147   4.692  16.183  0.00  0.00    +0.000 A 
BRANCH   5  11
ATOM     11  O   UNL     1       6.868   6.281  16.907  0.00  0.00    +0.000 OA
BRANCH  11  13
ATOM     12  C   UNL     1       7.929   8.251  17.712  0.00  0.00    +0.000 C 
ATOM     13  C   UNL     1       6.605   7.527  17.553  0.00  0.00    +0.000 C 
ENDBRANCH  11  13
ENDBRANCH   5  11
ENDBRANCH   3   8
ENDBRANCH   2   3
ENDBRANCH   1   2
BRANCH   1  14
ATOM     14  C   UNL     1       1.058   4.013  19.913  0.00  0.00    +0.000 C 
BRANCH  14  15
ATOM     15  C   UNL     1       1.954   5.064  20.548  0.00  0.00    +0.000 C 
ATOM     16  O   UNL     1       2.724   4.816  21.474  0.00  0.00    +0.000 OA
BRANCH  15  17
ATOM     17  C   UNL     1       1.856   6.465  20.055  0.00  0.00    +0.000 A 
ATOM     18  C   UNL     1       2.366   6.766  18.787  0.00  0.00    +0.000 A 
ATOM     19  C   UNL     1       2.305   8.073  18.298  0.00  0.00    +0.000 A 
ATOM     20  C   UNL     1       1.710   9.083  19.055  0.00  0.00    +0.000 A 
ATOM     21  C   UNL     1       1.201   8.784  20.318  0.00  0.00    +0.000 A 
ATOM     22  C   UNL     1       1.274   7.480  20.822  0.00  0.00    +0.000 A 
BRANCH  20  23
ATOM     23  O   UNL     1       1.721  10.328  18.489  0.00  0.00    +0.000 OA
BRANCH  23  24
ATOM     24  C   UNL     1       0.951  11.324  19.162  0.00  0.00    +0.000 C 
ATOM     25  C   UNL     1      -0.401  11.419  18.483  0.00  0.00    +0.000 C 
ENDBRANCH  23  24
ENDBRANCH  20  23
ENDBRANCH  15  17
ENDBRANCH  14  15
ENDBRANCH   1  14
TORSDOF 10
ENDMDL
MODEL 3
REMARK VINA RESULT:      -6.2      2.063      6.865
REMARK  Name = 
REMARK  12 active torsions:
REMARK  status: ('A' for Active; 'I' for Inactive)
REMARK    1  A    between atoms: C_1  and  C_2
REMARK    2  A    between atoms: C_2  and  O_3
REMARK    3  A    between atoms: O_3  and  C_4
REMARK    4  A    between atoms: C_7  and  C_8
REMARK    5  A    between atoms: C_8  and  C_10
REMARK    6  A    between atoms: C_10  and  C_11
REMARK    7  A    between atoms: C_11  and  C_12
REMARK    8  A    between atoms: C_12  and  C_13
REMARK    9  A    between atoms: C_13  and  C_15
REMARK   10  A    between atoms: C_18  and  O_19
REMARK   11  A    between atoms: O_19  and  C_20
REMARK   12  A    between atoms: C_20  and  C_21
REMARK                            x       y       z     vdW  Elec       q    Type
REMARK                         _______ _______ _______ _____ _____    ______ ____
ROOT
ATOM      1  C   UNL     1       4.798   6.803  16.524  0.00  0.00    +0.000 C 
ENDROOT
BRANCH   1   2
ATOM      2  C   UNL     1       4.208   7.688  17.623  0.00  0.00    +0.000 C 
BRANCH   2   3
ATOM      3  C   UNL     1       2.860   7.173  18.096  0.00  0.00    +0.000 C 
ATOM      4  O   UNL     1       2.477   6.029  17.866  0.00  0.00    +0.000 OA
BRANCH   3   8
ATOM      5  C   UNL     1       0.258   9.861  20.216  0.00  0.00    +0.000 A 
ATOM      6  C   UNL     1       0.515  10.034  18.857  0.00  0.00    +0.000 A 
ATOM      7  C   UNL     1       1.359   9.151  18.181  0.00  0.00    +0.000 A 
ATOM      8  C   UNL     1       1.970   8.094  18.866  0.00  0.00    +0.000 A 
ATOM      9  C   UNL     1       1.734   7.940  20.237  0.00  0.00    +0.000 A 
ATOM     10  C   UNL     1       0.886   8.827  20.911  0.00  0.00    +0.000 A 
BRANCH   5  11
ATOM     11  O   UNL     1      -0.607  10.766  20.762  0.00  0.00    +0.000 OA
BRANCH  11  13
ATOM     12  C   UNL     1      -1.136  10.697  23.080  0.00  0.00    +0.000 C 
ATOM     13  C   UNL     1      -0.229  11.308  22.029  0.00  0.00    +0.000 C 
ENDBRANCH  11  13
ENDBRANCH   5  11
ENDBRANCH   3   8
ENDBRANCH   2   3
ENDBRANCH   1   2
BRANCH   1  14
ATOM     14  C   UNL     1       6.288   6.549  16.741  0.00  0.00    +0.000 C 
BRANCH  14  15
ATOM     15  C   UNL     1       6.575   5.086  17.038  0.00  0.00    +0.000 C 
ATOM     16  O   UNL     1       7.629   4.535  16.729  0.00  0.00    +0.000 OA
BRANCH  15  17
ATOM     17  C   UNL     1       5.509   4.277  17.690  0.00  0.00    +0.000 A 
ATOM     18  C   UNL     1       4.656   3.518  16.881  0.00  0.00    +0.000 A 
ATOM     19  C   UNL     1       3.634   2.759  17.457  0.00  0.00    +0.000 A 
ATOM     20  C   UNL     1       3.474   2.726  18.842  0.00  0.00    +0.000 A 
ATOM     21  C   UNL     1       4.323   3.482  19.650  0.00  0.00    +0.000 A 
ATOM     22  C   UNL     1       5.338   4.259  19.078  0.00  0.00    +0.000 A 
BRANCH  20  23
ATOM     23  O   UNL     1       2.432   1.966  19.298  0.00  0.00    +0.000 OA
BRANCH  23  24
ATOM     24  C   UNL     1       1.126   2.477  19.029  0.00  0.00    +0.000 C 
ATOM     25  C   UNL     1       0.877   3.654  19.952  0.00  0.00    +0.000 C 
ENDBRANCH  23  24
ENDBRANCH  20  23
ENDBRANCH  15  17
ENDBRANCH  14  15
ENDBRANCH   1  14
TORSDOF 10
ENDMDL
MODEL 4
REMARK VINA RESULT:      -6.2      1.516      5.589
REMARK  Name = 
REMARK  12 active torsions:
REMARK  status: ('A' for Active; 'I' for Inactive)
REMARK    1  A    between atoms: C_1  and  C_2
REMARK    2  A    between atoms: C_2  and  O_3
REMARK    3  A    between atoms: O_3  and  C_4
REMARK    4  A    between atoms: C_7  and  C_8
REMARK    5  A    between atoms: C_8  and  C_10
REMARK    6  A    between atoms: C_10  and  C_11
REMARK    7  A    between atoms: C_11  and  C_12
REMARK    8  A    between atoms: C_12  and  C_13
REMARK    9  A    between atoms: C_13  and  C_15
REMARK   10  A    between atoms: C_18  and  O_19
REMARK   11  A    between atoms: O_19  and  C_20
REMARK   12  A    between atoms: C_20  and  C_21
REMARK                            x       y       z     vdW  Elec       q    Type
REMARK                         _______ _______ _______ _____ _____    ______ ____
ROOT
ATOM      1  C   UNL     1       3.529   3.488  18.513  0.00  0.00    +0.000 C 
ENDROOT
BRANCH   1   2
ATOM      2  C   UNL     1       2.156   3.873  19.068  0.00  0.00    +0.000 C 
BRANCH   2   3
ATOM      3  C   UNL     1       2.264   4.936  20.147  0.00  0.00    +0.000 C 
ATOM      4  O   UNL     1       2.503   4.658  21.320  0.00  0.00    +0.000 OA
BRANCH   3   8
ATOM      5  C   UNL     1       1.723   9.029  18.946  0.00  0.00    +0.000 A 
ATOM      6  C   UNL     1       2.240   8.084  18.062  0.00  0.00    +0.000 A 
ATOM      7  C   UNL     1       2.407   6.758  18.465  0.00  0.00    +0.000 A 
ATOM      8  C   UNL     1       2.072   6.368  19.767  0.00  0.00    +0.000 A 
ATOM      9  C   UNL     1       1.580   7.325  20.663  0.00  0.00    +0.000 A 
ATOM     10  C   UNL     1       1.414   8.654  20.254  0.00  0.00    +0.000 A 
BRANCH   5  11
ATOM     11  O   UNL     1       1.576  10.286  18.431  0.00  0.00    +0.000 OA
BRANCH  11  13
ATOM     12  C   UNL     1      -0.650  11.123  18.464  0.00  0.00    +0.000 C 
ATOM     13  C   UNL     1       0.703  11.159  19.149  0.00  0.00    +0.000 C 
ENDBRANCH  11  13
ENDBRANCH   5  11
ENDBRANCH   3   8
ENDBRANCH   2   3
ENDBRANCH   1   2
BRANCH   1  14
ATOM     14  C   UNL     1       3.658   3.837  17.032  0.00  0.00    +0.000 C 
BRANCH  14  15
ATOM     15  C   UNL     1       5.111   3.903  16.591  0.00  0.00    +0.000 C 
ATOM     16  O   UNL     1       5.630   3.054  15.870  0.00  0.00    +0.000 OA
BRANCH  15  17
ATOM     17  C   UNL     1       5.952   5.021  17.099  0.00  0.00    +0.000 A 
ATOM     18  C   UNL     1       7.009   4.724  17.967  0.00  0.00    +0.000 A 
ATOM     19  C   UNL     1       7.809   5.750  18.475  0.00  0.00    +0.000 A 
ATOM     20  C   UNL     1       7.583   7.074  18.099  0.00  0.00    +0.000 A 
ATOM     21  C   UNL     1       6.531   7.372  17.233  0.00  0.00    +0.000 A 
ATOM     22  C   UNL     1       5.713   6.351  16.734  0.00  0.00    +0.000 A 
BRANCH  20  23
ATOM     23  O   UNL     1       8.413   7.999  18.670  0.00  0.00    +0.000 OA
BRANCH  23  24
ATOM     24  C   UNL     1       8.309   9.328  18.158  0.00  0.00    +0.000 C 
ATOM     25  C   UNL     1       9.207  10.227  18.985  0.00  0.00    +0.000 C 
ENDBRANCH  23  24
ENDBRANCH  20  23
ENDBRANCH  15  17
ENDBRANCH  14  15
ENDBRANCH   1  14
TORSDOF 10
ENDMDL
MODEL 5
REMARK VINA RESULT:      -6.2      2.091      6.922
REMARK  Name = 
REMARK  12 active torsions:
REMARK  status: ('A' for Active; 'I' for Inactive)
REMARK    1  A    between atoms: C_1  and  C_2
REMARK    2  A    between atoms: C_2  and  O_3
REMARK    3  A    between atoms: O_3  and  C_4
REMARK    4  A    between atoms: C_7  and  C_8
REMARK    5  A    between atoms: C_8  and  C_10
REMARK    6  A    between atoms: C_10  and  C_11
REMARK    7  A    between atoms: C_11  and  C_12
REMARK    8  A    between atoms: C_12  and  C_13
REMARK    9  A    between atoms: C_13  and  C_15
REMARK   10  A    between atoms: C_18  and  O_19
REMARK   11  A    between atoms: O_19  and  C_20
REMARK   12  A    between atoms: C_20  and  C_21
REMARK                            x       y       z     vdW  Elec       q    Type
REMARK                         _______ _______ _______ _____ _____    ______ ____
ROOT
ATOM      1  C   UNL     1       4.852   6.838  16.446  0.00  0.00    +0.000 C 
ENDROOT
BRANCH   1   2
ATOM      2  C   UNL     1       4.219   7.800  17.453  0.00  0.00    +0.000 C 
BRANCH   2   3
ATOM      3  C   UNL     1       2.914   7.257  18.006  0.00  0.00    +0.000 C 
ATOM      4  O   UNL     1       2.589   6.078  17.883  0.00  0.00    +0.000 OA
BRANCH   3   8
ATOM      5  C   UNL     1       0.302   9.901  20.168  0.00  0.00    +0.000 A 
ATOM      6  C   UNL     1       0.896   8.809  20.796  0.00  0.00    +0.000 A 
ATOM      7  C   UNL     1       1.745   7.960  20.082  0.00  0.00    +0.000 A 
ATOM      8  C   UNL     1       1.993   8.190  18.723  0.00  0.00    +0.000 A 
ATOM      9  C   UNL     1       1.373   9.271  18.087  0.00  0.00    +0.000 A 
ATOM     10  C   UNL     1       0.523  10.119  18.807  0.00  0.00    +0.000 A 
BRANCH   5  11
ATOM     11  O   UNL     1      -0.482  10.677  20.973  0.00  0.00    +0.000 OA
BRANCH  11  13
ATOM     12  C   UNL     1      -1.432  11.099  23.112  0.00  0.00    +0.000 C 
ATOM     13  C   UNL     1      -0.200  10.615  22.372  0.00  0.00    +0.000 C 
ENDBRANCH  11  13
ENDBRANCH   5  11
ENDBRANCH   3   8
ENDBRANCH   2   3
ENDBRANCH   1   2
BRANCH   1  14
ATOM     14  C   UNL     1       6.304   6.524  16.800  0.00  0.00    +0.000 C 
BRANCH  14  15
ATOM     15  C   UNL     1       6.526   5.036  17.013  0.00  0.00    +0.000 C 
ATOM     16  O   UNL     1       7.513   4.439  16.590  0.00  0.00    +0.000 OA
BRANCH  15  17
ATOM     17  C   UNL     1       5.472   4.262  17.725  0.00  0.00    +0.000 A 
ATOM     18  C   UNL     1       4.605   3.462  16.972  0.00  0.00    +0.000 A 
ATOM     19  C   UNL     1       3.595   2.734  17.605  0.00  0.00    +0.000 A 
ATOM     20  C   UNL     1       3.460   2.772  18.993  0.00  0.00    +0.000 A 
ATOM     21  C   UNL     1       4.324   3.568  19.745  0.00  0.00    +0.000 A 
ATOM     22  C   UNL     1       5.328   4.314  19.116  0.00  0.00    +0.000 A 
BRANCH  20  23
ATOM     23  O   UNL     1       2.428   2.037  19.506  0.00  0.00    +0.000 OA
BRANCH  23  24
ATOM     24  C   UNL     1       1.719   2.633  20.592  0.00  0.00    +0.000 C 
ATOM     25  C   UNL     1       0.918   3.802  20.052  0.00  0.00    +0.000 C 
ENDBRANCH  23  24
ENDBRANCH  20  23
ENDBRANCH  15  17
ENDBRANCH  14  15
ENDBRANCH   1  14
TORSDOF 10
ENDMDL
MODEL 6
REMARK VINA RESULT:      -6.1      1.961      4.573
REMARK  Name = 
REMARK  12 active torsions:
REMARK  status: ('A' for Active; 'I' for Inactive)
REMARK    1  A    between atoms: C_1  and  C_2
REMARK    2  A    between atoms: C_2  and  O_3
REMARK    3  A    between atoms: O_3  and  C_4
REMARK    4  A    between atoms: C_7  and  C_8
REMARK    5  A    between atoms: C_8  and  C_10
REMARK    6  A    between atoms: C_10  and  C_11
REMARK    7  A    between atoms: C_11  and  C_12
REMARK    8  A    between atoms: C_12  and  C_13
REMARK    9  A    between atoms: C_13  and  C_15
REMARK   10  A    between atoms: C_18  and  O_19
REMARK   11  A    between atoms: O_19  and  C_20
REMARK   12  A    between atoms: C_20  and  C_21
REMARK                            x       y       z     vdW  Elec       q    Type
REMARK                         _______ _______ _______ _____ _____    ______ ____
ROOT
ATOM      1  C   UNL     1       5.004   6.623  17.351  0.00  0.00    +0.000 C 
ENDROOT
BRANCH   1   2
ATOM      2  C   UNL     1       5.319   5.992  15.993  0.00  0.00    +0.000 C 
BRANCH   2   3
ATOM      3  C   UNL     1       5.230   4.477  16.043  0.00  0.00    +0.000 C 
ATOM      4  O   UNL     1       5.835   3.757  15.252  0.00  0.00    +0.000 OA
BRANCH   3   8
ATOM      5  C   UNL     1       2.691   2.640  18.987  0.00  0.00    +0.000 A 
ATOM      6  C   UNL     1       2.163   3.151  17.803  0.00  0.00    +0.000 A 
ATOM      7  C   UNL     1       3.000   3.742  16.855  0.00  0.00    +0.000 A 
ATOM      8  C   UNL     1       4.376   3.841  17.092  0.00  0.00    +0.000 A 
ATOM      9  C   UNL     1       4.900   3.354  18.295  0.00  0.00    +0.000 A 
ATOM     10  C   UNL     1       4.057   2.762  19.243  0.00  0.00    +0.000 A 
BRANCH   5  11
ATOM     11  O   UNL     1       1.781   2.058  19.824  0.00  0.00    +0.000 OA
BRANCH  11  13
ATOM     12  C   UNL     1       1.952   3.126  21.942  0.00  0.00    +0.000 C 
ATOM     13  C   UNL     1       1.089   2.941  20.708  0.00  0.00    +0.000 C 
ENDBRANCH  11  13
ENDBRANCH   5  11
ENDBRANCH   3   8
ENDBRANCH   2   3
ENDBRANCH   1   2
BRANCH   1  14
ATOM     14  C   UNL     1       3.644   7.317  17.350  0.00  0.00    +0.000 C 
BRANCH  14  15
ATOM     15  C   UNL     1       2.923   7.150  18.678  0.00  0.00    +0.000 C 
ATOM     16  O   UNL     1       3.102   6.186  19.419  0.00  0.00    +0.000 OA
BRANCH  15  17
ATOM     17  C   UNL     1       1.921   8.179  19.070  0.00  0.00    +0.000 A 
ATOM     18  C   UNL     1       1.428   9.043  18.086  0.00  0.00    +0.000 A 
ATOM     19  C   UNL     1       0.498  10.030  18.421  0.00  0.00    +0.000 A 
ATOM     20  C   UNL     1       0.031  10.145  19.730  0.00  0.00    +0.000 A 
ATOM     21  C   UNL     1       0.521   9.284  20.712  0.00  0.00    +0.000 A 
ATOM     22  C   UNL     1       1.466   8.304  20.387  0.00  0.00    +0.000 A 
BRANCH  20  23
ATOM     23  O   UNL     1      -0.862  11.156  19.951  0.00  0.00    +0.000 OA
BRANCH  23  24
ATOM     24  C   UNL     1      -1.290  11.872  18.792  0.00  0.00    +0.000 C 
ATOM     25  C   UNL     1      -2.787  11.682  18.642  0.00  0.00    +0.000 C 
ENDBRANCH  23  24
ENDBRANCH  20  23
ENDBRANCH  15  17
ENDBRANCH  14  15
ENDBRANCH   1  14
TORSDOF 10
ENDMDL
MODEL 7
REMARK VINA RESULT:      -6.1      2.075      6.901
REMARK  Name = 
REMARK  12 active torsions:
REMARK  status: ('A' for Active; 'I' for Inactive)
REMARK    1  A    between atoms: C_1  and  C_2
REMARK    2  A    between atoms: C_2  and  O_3
REMARK    3  A    between atoms: O_3  and  C_4
REMARK    4  A    between atoms: C_7  and  C_8
REMARK    5  A    between atoms: C_8  and  C_10
REMARK    6  A    between atoms: C_10  and  C_11
REMARK    7  A    between atoms: C_11  and  C_12
REMARK    8  A    between atoms: C_12  and  C_13
REMARK    9  A    between atoms: C_13  and  C_15
REMARK   10  A    between atoms: C_18  and  O_19
REMARK   11  A    between atoms: O_19  and  C_20
REMARK   12  A    between atoms: C_20  and  C_21
REMARK                            x       y       z     vdW  Elec       q    Type
REMARK                         _______ _______ _______ _____ _____    ______ ____
ROOT
ATOM      1  C   UNL     1       4.923   6.743  17.242  0.00  0.00    +0.000 C 
ENDROOT
BRANCH   1   2
ATOM      2  C   UNL     1       3.576   7.468  17.230  0.00  0.00    +0.000 C 
BRANCH   2   3
ATOM      3  C   UNL     1       2.770   7.177  18.484  0.00  0.00    +0.000 C 
ATOM      4  O   UNL     1       2.824   6.094  19.062  0.00  0.00    +0.000 OA
BRANCH   3   8
ATOM      5  C   UNL     1       0.244  10.227  20.158  0.00  0.00    +0.000 A 
ATOM      6  C   UNL     1       0.800   9.235  20.963  0.00  0.00    +0.000 A 
ATOM      7  C   UNL     1       1.621   8.253  20.406  0.00  0.00    +0.000 A 
ATOM      8  C   UNL     1       1.880   8.246  19.030  0.00  0.00    +0.000 A 
ATOM      9  C   UNL     1       1.296   9.225  18.219  0.00  0.00    +0.000 A 
ATOM     10  C   UNL     1       0.473  10.209  18.782  0.00  0.00    +0.000 A 
BRANCH   5  11
ATOM     11  O   UNL     1      -0.516  11.150  20.818  0.00  0.00    +0.000 OA
BRANCH  11  13
ATOM     12  C   UNL     1      -1.165  12.224  22.838  0.00  0.00    +0.000 C 
ATOM     13  C   UNL     1      -0.715  10.917  22.213  0.00  0.00    +0.000 C 
ENDBRANCH  11  13
ENDBRANCH   5  11
ENDBRANCH   3   8
ENDBRANCH   2   3
ENDBRANCH   1   2
BRANCH   1  14
ATOM     14  C   UNL     1       5.143   5.937  15.964  0.00  0.00    +0.000 C 
BRANCH  14  15
ATOM     15  C   UNL     1       5.366   4.463  16.256  0.00  0.00    +0.000 C 
ATOM     16  O   UNL     1       6.255   3.802  15.721  0.00  0.00    +0.000 OA
BRANCH  15  17
ATOM     17  C   UNL     1       4.435   3.781  17.196  0.00  0.00    +0.000 A 
ATOM     18  C   UNL     1       4.875   3.513  18.497  0.00  0.00    +0.000 A 
ATOM     19  C   UNL     1       4.033   2.861  19.402  0.00  0.00    +0.000 A 
ATOM     20  C   UNL     1       2.739   2.499  19.027  0.00  0.00    +0.000 A 
ATOM     21  C   UNL     1       2.299   2.766  17.731  0.00  0.00    +0.000 A 
ATOM     22  C   UNL     1       3.143   3.404  16.814  0.00  0.00    +0.000 A 
BRANCH  20  23
ATOM     23  O   UNL     1       2.008   1.850  19.984  0.00  0.00    +0.000 OA
BRANCH  23  24
ATOM     24  C   UNL     1       1.737   2.595  21.171  0.00  0.00    +0.000 C 
ATOM     25  C   UNL     1       0.981   3.850  20.782  0.00  0.00    +0.000 C 
ENDBRANCH  23  24
ENDBRANCH  20  23
ENDBRANCH  15  17
ENDBRANCH  14  15
ENDBRANCH   1  14
TORSDOF 10
ENDMDL
MODEL 8
REMARK VINA RESULT:      -6.1      3.051      7.120
REMARK  Name = 
REMARK  12 active torsions:
REMARK  status: ('A' for Active; 'I' for Inactive)
REMARK    1  A    between atoms: C_1  and  C_2
REMARK    2  A    between atoms: C_2  and  O_3
REMARK    3  A    between atoms: O_3  and  C_4
REMARK    4  A    between atoms: C_7  and  C_8
REMARK    5  A    between atoms: C_8  and  C_10
REMARK    6  A    between atoms: C_10  and  C_11
REMARK    7  A    between atoms: C_11  and  C_12
REMARK    8  A    between atoms: C_12  and  C_13
REMARK    9  A    between atoms: C_13  and  C_15
REMARK   10  A    between atoms: C_18  and  O_19
REMARK   11  A    between atoms: O_19  and  C_20
REMARK   12  A    between atoms: C_20  and  C_21
REMARK                            x       y       z     vdW  Elec       q    Type
REMARK                         _______ _______ _______ _____ _____    ______ ____
ROOT
ATOM      1  C   UNL     1       6.125   5.568  18.781  0.00  0.00    +0.000 C 
ENDROOT
BRANCH   1   2
ATOM      2  C   UNL     1       4.869   4.890  19.329  0.00  0.00    +0.000 C 
BRANCH   2   3
ATOM      3  C   UNL     1       3.651   5.187  18.473  0.00  0.00    +0.000 C 
ATOM      4  O   UNL     1       3.205   4.377  17.663  0.00  0.00    +0.000 OA
BRANCH   3   8
ATOM      5  C   UNL     1       1.699   8.980  19.012  0.00  0.00    +0.000 A 
ATOM      6  C   UNL     1       1.733   8.038  20.038  0.00  0.00    +0.000 A 
ATOM      7  C   UNL     1       2.373   6.812  19.850  0.00  0.00    +0.000 A 
ATOM      8  C   UNL     1       2.973   6.510  18.621  0.00  0.00    +0.000 A 
ATOM      9  C   UNL     1       2.912   7.446  17.582  0.00  0.00    +0.000 A 
ATOM     10  C   UNL     1       2.269   8.674  17.776  0.00  0.00    +0.000 A 
BRANCH   5  11
ATOM     11  O   UNL     1       1.072  10.154  19.322  0.00  0.00    +0.000 OA
BRANCH  11  13
ATOM     12  C   UNL     1      -1.179  10.900  19.491  0.00  0.00    +0.000 C 
ATOM     13  C   UNL     1      -0.078  10.476  18.539  0.00  0.00    +0.000 C 
ENDBRANCH  11  13
ENDBRANCH   5  11
ENDBRANCH   3   8
ENDBRANCH   2   3
ENDBRANCH   1   2
BRANCH   1  14
ATOM     14  C   UNL     1       6.786   4.734  17.685  0.00  0.00    +0.000 C 
BRANCH  14  15
ATOM     15  C   UNL     1       7.070   5.559  16.441  0.00  0.00    +0.000 C 
ATOM     16  O   UNL     1       7.541   6.694  16.484  0.00  0.00    +0.000 OA
BRANCH  15  17
ATOM     17  C   UNL     1       6.716   4.982  15.116  0.00  0.00    +0.000 A 
ATOM     18  C   UNL     1       5.504   4.295  14.987  0.00  0.00    +0.000 A 
ATOM     19  C   UNL     1       5.146   3.726  13.762  0.00  0.00    +0.000 A 
ATOM     20  C   UNL     1       5.977   3.863  12.650  0.00  0.00    +0.000 A 
ATOM     21  C   UNL     1       7.186   4.548  12.777  0.00  0.00    +0.000 A 
ATOM     22  C   UNL     1       7.559   5.105  14.006  0.00  0.00    +0.000 A 
BRANCH  20  23
ATOM     23  O   UNL     1       5.539   3.252  11.508  0.00  0.00    +0.000 OA
BRANCH  23  24
ATOM     24  C   UNL     1       4.141   2.970  11.450  0.00  0.00    +0.000 C 
ATOM     25  C   UNL     1       3.552   3.722  10.273  0.00  0.00    +0.000 C 
ENDBRANCH  23  24
ENDBRANCH  20  23
ENDBRANCH  15  17
ENDBRANCH  14  15
ENDBRANCH   1  14
TORSDOF 10
ENDMDL
MODEL 9
REMARK VINA RESULT:      -6.1      1.920      4.581
REMARK  Name = 
REMARK  12 active torsions:
REMARK  status: ('A' for Active; 'I' for Inactive)
REMARK    1  A    between atoms: C_1  and  C_2
REMARK    2  A    between atoms: C_2  and  O_3
REMARK    3  A    between atoms: O_3  and  C_4
REMARK    4  A    between atoms: C_7  and  C_8
REMARK    5  A    between atoms: C_8  and  C_10
REMARK    6  A    between atoms: C_10  and  C_11
REMARK    7  A    between atoms: C_11  and  C_12
REMARK    8  A    between atoms: C_12  and  C_13
REMARK    9  A    between atoms: C_13  and  C_15
REMARK   10  A    between atoms: C_18  and  O_19
REMARK   11  A    between atoms: O_19  and  C_20
REMARK   12  A    between atoms: C_20  and  C_21
REMARK                            x       y       z     vdW  Elec       q    Type
REMARK                         _______ _______ _______ _____ _____    ______ ____
ROOT
ATOM      1  C   UNL     1       4.862   6.712  16.456  0.00  0.00    +0.000 C 
ENDROOT
BRANCH   1   2
ATOM      2  C   UNL     1       6.340   6.436  16.734  0.00  0.00    +0.000 C 
BRANCH   2   3
ATOM      3  C   UNL     1       6.584   4.979  17.087  0.00  0.00    +0.000 C 
ATOM      4  O   UNL     1       7.662   4.426  16.885  0.00  0.00    +0.000 OA
BRANCH   3   8
ATOM      5  C   UNL     1       3.392   2.778  18.945  0.00  0.00    +0.000 A 
ATOM      6  C   UNL     1       4.260   3.560  19.704  0.00  0.00    +0.000 A 
ATOM      7  C   UNL     1       5.290   4.272  19.086  0.00  0.00    +0.000 A 
ATOM      8  C   UNL     1       5.471   4.193  17.700  0.00  0.00    +0.000 A 
ATOM      9  C   UNL     1       4.616   3.383  16.944  0.00  0.00    +0.000 A 
ATOM     10  C   UNL     1       3.584   2.671  17.567  0.00  0.00    +0.000 A 
BRANCH   5  11
ATOM     11  O   UNL     1       2.406   2.152  19.654  0.00  0.00    +0.000 OA
BRANCH  11  13
ATOM     12  C   UNL     1       0.865   3.855  20.273  0.00  0.00    +0.000 C 
ATOM     13  C   UNL     1       1.075   2.617  19.421  0.00  0.00    +0.000 C 
ENDBRANCH  11  13
ENDBRANCH   5  11
ENDBRANCH   3   8
ENDBRANCH   2   3
ENDBRANCH   1   2
BRANCH   1  14
ATOM     14  C   UNL     1       4.253   7.641  17.504  0.00  0.00    +0.000 C 
BRANCH  14  15
ATOM     15  C   UNL     1       2.919   7.121  18.014  0.00  0.00    +0.000 C 
ATOM     16  O   UNL     1       2.511   5.985  17.781  0.00  0.00    +0.000 OA
BRANCH  15  17
ATOM     17  C   UNL     1       2.051   8.048  18.790  0.00  0.00    +0.000 A 
ATOM     18  C   UNL     1       1.471   9.135  18.127  0.00  0.00    +0.000 A 
ATOM     19  C   UNL     1       0.663  10.034  18.826  0.00  0.00    +0.000 A 
ATOM     20  C   UNL     1       0.402   9.841  20.183  0.00  0.00    +0.000 A 
ATOM     21  C   UNL     1       0.979   8.758  20.846  0.00  0.00    +0.000 A 
ATOM     22  C   UNL     1       1.804   7.862  20.155  0.00  0.00    +0.000 A 
BRANCH  20  23
ATOM     23  O   UNL     1      -0.386  10.791  20.773  0.00  0.00    +0.000 OA
BRANCH  23  24
ATOM     24  C   UNL     1      -0.687  11.933  19.972  0.00  0.00    +0.000 C 
ATOM     25  C   UNL     1      -2.082  12.409  20.329  0.00  0.00    +0.000 C 
ENDBRANCH  23  24
ENDBRANCH  20  23
ENDBRANCH  15  17
ENDBRANCH  14  15
ENDBRANCH   1  14
TORSDOF 10
ENDMDL
