MODEL 1
REMARK VINA RESULT:      -7.5      0.000      0.000
REMARK  Name = 
REMARK  10 active torsions:
REMARK  status: ('A' for Active; 'I' for Inactive)
REMARK    1  A    between atoms: C_1  and  C_2
REMARK    2  A    between atoms: C_4  and  C_5
REMARK    3  A    between atoms: N_7  and  CA_8
REMARK    4  A    between atoms: CA_8  and  C_9
REMARK    5  A    between atoms: CA_8  and  C_17
REMARK    6  A    between atoms: C_9  and  C_10
REMARK    7  A    between atoms: N_19  and  CA_20
REMARK    8  A    between atoms: CA_20  and  C_21
REMARK    9  A    between atoms: CA_20  and  C_23
REMARK   10  A    between atoms: C_23  and  C_24
REMARK                            x       y       z     vdW  Elec       q    Type
REMARK                         _______ _______ _______ _____ _____    ______ ____
ROOT
ATOM      1  CA  UNL     1       0.570   9.810  18.693  0.00  0.00    +0.000 C 
ENDROOT
BRANCH   1   4
ATOM      2  C   UNL     1       1.423  12.068  19.368  0.00  0.00    +0.000 C 
ATOM      3  O   UNL     1       0.811  12.074  20.432  0.00  0.00    +0.000 OA
ATOM      4  N   UNL     1       1.425  10.988  18.515  0.00  0.00    +0.000 N 
ATOM      5  H   UNL     1       1.971  11.056  17.657  0.00  0.00    +0.000 HD
BRANCH   2   9
ATOM      6  C   UNL     1       2.810  16.717  17.851  0.00  0.00    +0.000 C 
ATOM      7  C   UNL     1       2.652  15.302  18.234  0.00  0.00    +0.000 A 
ATOM      8  C   UNL     1       1.655  14.586  18.846  0.00  0.00    +0.000 A 
ATOM      9  C   UNL     1       2.136  13.250  18.872  0.00  0.00    +0.000 A 
ATOM     10  N   UNL     1       3.354  13.175  18.305  0.00  0.00    +0.000 NA
ATOM     11  O   UNL     1       3.671  14.465  17.917  0.00  0.00    +0.000 OA
ENDBRANCH   2   9
ENDBRANCH   1   4
BRANCH   1  12
ATOM     12  C   UNL     1       1.478   8.625  19.114  0.00  0.00    +0.000 C 
ATOM     13  O   UNL     1       1.771   8.420  20.293  0.00  0.00    +0.000 OA
ATOM     14  N   UNL     1       1.875   7.772  18.105  0.00  0.00    +0.000 N 
ATOM     15  H   UNL     1       1.655   7.976  17.137  0.00  0.00    +0.000 HD
BRANCH  14  16
ATOM     16  CA  UNL     1       2.740   6.616  18.325  0.00  0.00    +0.000 C 
BRANCH  16  17
ATOM     17  C   UNL     1       4.067   6.857  17.618  0.00  0.00    +0.000 C 
ATOM     18  O   UNL     1       5.127   6.339  17.966  0.00  0.00    +0.000 OA
ENDBRANCH  16  17
BRANCH  16  19
ATOM     19  C   UNL     1       2.094   5.339  17.776  0.00  0.00    +0.000 C 
BRANCH  19  20
ATOM     20  C   UNL     1       2.010   4.234  18.838  0.00  0.00    +0.000 C 
ATOM     21  C   UNL     1       1.700   4.796  20.226  0.00  0.00    +0.000 C 
ATOM     22  C   UNL     1       1.470   3.626  21.170  0.00  0.00    +0.000 C 
ATOM     23  C   UNL     1       2.747   2.810  21.259  0.00  0.00    +0.000 C 
ATOM     24  N   UNL     1       3.334   2.513  19.965  0.00  0.00    +0.000 N 
ATOM     25  C   UNL     1       3.251   3.355  18.883  0.00  0.00    +0.000 C 
ATOM     26  O   UNL     1       4.066   3.277  17.969  0.00  0.00    +0.000 OA
ATOM     27  H   UNL     1       4.159   1.924  19.948  0.00  0.00    +0.000 HD
ENDBRANCH  19  20
ENDBRANCH  16  19
ENDBRANCH  14  16
ENDBRANCH   1  12
BRANCH   1  28
ATOM     28  C   UNL     1      -0.278   9.472  17.443  0.00  0.00    +0.000 C 
BRANCH  28  29
ATOM     29  C   UNL     1      -1.653  10.109  17.447  0.00  0.00    +0.000 A 
ATOM     30  C   UNL     1      -2.501   9.964  16.338  0.00  0.00    +0.000 A 
ATOM     31  C   UNL     1      -3.709  10.658  16.278  0.00  0.00    +0.000 A 
ATOM     32  C   UNL     1      -4.076  11.486  17.331  0.00  0.00    +0.000 A 
ATOM     33  F   UNL     1      -5.218  12.182  17.258  0.00  0.00    +0.000 F 
ATOM     34  C   UNL     1      -3.277  11.605  18.457  0.00  0.00    +0.000 A 
ATOM     35  C   UNL     1      -2.076  10.903  18.522  0.00  0.00    +0.000 A 
ENDBRANCH  28  29
ENDBRANCH   1  28
TORSDOF 9
ENDMDL
MODEL 2
REMARK VINA RESULT:      -7.4      3.754      8.568
REMARK  Name = 
REMARK  10 active torsions:
REMARK  status: ('A' for Active; 'I' for Inactive)
REMARK    1  A    between atoms: C_1  and  C_2
REMARK    2  A    between atoms: C_4  and  C_5
REMARK    3  A    between atoms: N_7  and  CA_8
REMARK    4  A    between atoms: CA_8  and  C_9
REMARK    5  A    between atoms: CA_8  and  C_17
REMARK    6  A    between atoms: C_9  and  C_10
REMARK    7  A    between atoms: N_19  and  CA_20
REMARK    8  A    between atoms: CA_20  and  C_21
REMARK    9  A    between atoms: CA_20  and  C_23
REMARK   10  A    between atoms: C_23  and  C_24
REMARK                            x       y       z     vdW  Elec       q    Type
REMARK                         _______ _______ _______ _____ _____    ______ ____
ROOT
ATOM      1  CA  UNL     1       1.656   6.611  19.742  0.00  0.00    +0.000 C 
ENDROOT
BRANCH   1   4
ATOM      2  C   UNL     1       3.275   7.242  17.935  0.00  0.00    +0.000 C 
ATOM      3  O   UNL     1       2.522   8.073  17.435  0.00  0.00    +0.000 OA
ATOM      4  N   UNL     1       2.967   6.556  19.088  0.00  0.00    +0.000 N 
ATOM      5  H   UNL     1       3.652   5.893  19.449  0.00  0.00    +0.000 HD
BRANCH   2   9
ATOM      6  C   UNL     1       7.068   4.765  15.629  0.00  0.00    +0.000 C 
ATOM      7  C   UNL     1       6.127   5.689  16.289  0.00  0.00    +0.000 A 
ATOM      8  C   UNL     1       4.811   5.599  16.667  0.00  0.00    +0.000 A 
ATOM      9  C   UNL     1       4.532   6.843  17.294  0.00  0.00    +0.000 A 
ATOM     10  N   UNL     1       5.624   7.630  17.289  0.00  0.00    +0.000 NA
ATOM     11  O   UNL     1       6.613   6.903  16.651  0.00  0.00    +0.000 OA
ENDBRANCH   2   9
ENDBRANCH   1   4
BRANCH   1  12
ATOM     12  C   UNL     1       1.603   7.908  20.591  0.00  0.00    +0.000 C 
ATOM     13  O   UNL     1       2.188   7.999  21.672  0.00  0.00    +0.000 OA
ATOM     14  N   UNL     1       0.929   8.975  20.034  0.00  0.00    +0.000 N 
ATOM     15  H   UNL     1       0.423   8.871  19.162  0.00  0.00    +0.000 HD
BRANCH  14  16
ATOM     16  CA  UNL     1       0.772  10.263  20.703  0.00  0.00    +0.000 C 
BRANCH  16  17
ATOM     17  C   UNL     1      -0.216  10.102  21.851  0.00  0.00    +0.000 C 
ATOM     18  O   UNL     1      -0.044  10.584  22.969  0.00  0.00    +0.000 OA
ENDBRANCH  16  17
BRANCH  16  19
ATOM     19  C   UNL     1       0.253  11.325  19.727  0.00  0.00    +0.000 C 
BRANCH  19  20
ATOM     20  C   UNL     1      -1.211  11.080  19.334  0.00  0.00    +0.000 C 
ATOM     21  C   UNL     1      -1.335  10.470  17.937  0.00  0.00    +0.000 C 
ATOM     22  C   UNL     1      -2.793  10.108  17.706  0.00  0.00    +0.000 C 
ATOM     23  C   UNL     1      -3.626  11.377  17.749  0.00  0.00    +0.000 C 
ATOM     24  N   UNL     1      -3.325  12.227  18.886  0.00  0.00    +0.000 N 
ATOM     25  C   UNL     1      -2.077  12.325  19.451  0.00  0.00    +0.000 C 
ATOM     26  O   UNL     1      -1.768  13.312  20.114  0.00  0.00    +0.000 OA
ATOM     27  H   UNL     1      -3.882  13.065  19.007  0.00  0.00    +0.000 HD
ENDBRANCH  19  20
ENDBRANCH  16  19
ENDBRANCH  14  16
ENDBRANCH   1  12
BRANCH   1  28
ATOM     28  C   UNL     1       1.338   5.353  20.587  0.00  0.00    +0.000 C 
BRANCH  28  29
ATOM     29  C   UNL     1       1.916   4.073  20.019  0.00  0.00    +0.000 A 
ATOM     30  C   UNL     1       3.047   3.487  20.608  0.00  0.00    +0.000 A 
ATOM     31  C   UNL     1       3.664   2.388  20.011  0.00  0.00    +0.000 A 
ATOM     32  C   UNL     1       3.143   1.866  18.834  0.00  0.00    +0.000 A 
ATOM     33  F   UNL     1       3.756   0.835  18.239  0.00  0.00    +0.000 F 
ATOM     34  C   UNL     1       1.997   2.399  18.263  0.00  0.00    +0.000 A 
ATOM     35  C   UNL     1       1.374   3.489  18.865  0.00  0.00    +0.000 A 
ENDBRANCH  28  29
ENDBRANCH   1  28
TORSDOF 9
ENDMDL
MODEL 3
REMARK VINA RESULT:      -7.4      3.080      5.098
REMARK  Name = 
REMARK  10 active torsions:
REMARK  status: ('A' for Active; 'I' for Inactive)
REMARK    1  A    between atoms: C_1  and  C_2
REMARK    2  A    between atoms: C_4  and  C_5
REMARK    3  A    between atoms: N_7  and  CA_8
REMARK    4  A    between atoms: CA_8  and  C_9
REMARK    5  A    between atoms: CA_8  and  C_17
REMARK    6  A    between atoms: C_9  and  C_10
REMARK    7  A    between atoms: N_19  and  CA_20
REMARK    8  A    between atoms: CA_20  and  C_21
REMARK    9  A    between atoms: CA_20  and  C_23
REMARK   10  A    between atoms: C_23  and  C_24
REMARK                            x       y       z     vdW  Elec       q    Type
REMARK                         _______ _______ _______ _____ _____    ______ ____
ROOT
ATOM      1  CA  UNL     1       0.967   9.848  19.122  0.00  0.00    +0.000 C 
ENDROOT
BRANCH   1   4
ATOM      2  C   UNL     1      -0.813  11.278  18.086  0.00  0.00    +0.000 C 
ATOM      3  O   UNL     1      -0.163  12.313  18.196  0.00  0.00    +0.000 OA
ATOM      4  N   UNL     1      -0.312  10.043  18.432  0.00  0.00    +0.000 N 
ATOM      5  H   UNL     1      -0.910   9.228  18.297  0.00  0.00    +0.000 HD
BRANCH   2   9
ATOM      6  C   UNL     1      -5.887  11.428  17.813  0.00  0.00    +0.000 C 
ATOM      7  C   UNL     1      -4.425  11.358  17.634  0.00  0.00    +0.000 A 
ATOM      8  C   UNL     1      -3.352  11.544  18.469  0.00  0.00    +0.000 A 
ATOM      9  C   UNL     1      -2.216  11.279  17.659  0.00  0.00    +0.000 A 
ATOM     10  N   UNL     1      -2.592  10.953  16.409  0.00  0.00    +0.000 NA
ATOM     11  O   UNL     1      -3.975  11.013  16.402  0.00  0.00    +0.000 OA
ENDBRANCH   2   9
ENDBRANCH   1   4
BRANCH   1  12
ATOM     12  C   UNL     1       1.799   8.831  18.298  0.00  0.00    +0.000 C 
ATOM     13  O   UNL     1       2.301   9.131  17.213  0.00  0.00    +0.000 OA
ATOM     14  N   UNL     1       2.009   7.599  18.882  0.00  0.00    +0.000 N 
ATOM     15  H   UNL     1       1.558   7.357  19.758  0.00  0.00    +0.000 HD
BRANCH  14  16
ATOM     16  CA  UNL     1       2.757   6.522  18.240  0.00  0.00    +0.000 C 
BRANCH  16  17
ATOM     17  C   UNL     1       1.897   5.266  18.231  0.00  0.00    +0.000 C 
ATOM     18  O   UNL     1       2.042   4.336  19.022  0.00  0.00    +0.000 OA
ENDBRANCH  16  17
BRANCH  16  19
ATOM     19  C   UNL     1       4.063   6.242  18.992  0.00  0.00    +0.000 C 
BRANCH  19  20
ATOM     20  C   UNL     1       5.209   5.873  18.039  0.00  0.00    +0.000 C 
ATOM     21  C   UNL     1       4.813   6.050  16.572  0.00  0.00    +0.000 C 
ATOM     22  C   UNL     1       6.050   5.827  15.717  0.00  0.00    +0.000 C 
ATOM     23  C   UNL     1       6.532   4.401  15.914  0.00  0.00    +0.000 C 
ATOM     24  N   UNL     1       6.607   4.004  17.307  0.00  0.00    +0.000 N 
ATOM     25  C   UNL     1       5.757   4.474  18.278  0.00  0.00    +0.000 C 
ATOM     26  O   UNL     1       5.584   3.842  19.316  0.00  0.00    +0.000 OA
ATOM     27  H   UNL     1       6.974   3.081  17.514  0.00  0.00    +0.000 HD
ENDBRANCH  19  20
ENDBRANCH  16  19
ENDBRANCH  14  16
ENDBRANCH   1  12
BRANCH   1  28
ATOM     28  C   UNL     1       0.808   9.406  20.597  0.00  0.00    +0.000 C 
BRANCH  28  29
ATOM     29  C   UNL     1       0.181  10.459  21.487  0.00  0.00    +0.000 A 
ATOM     30  C   UNL     1      -0.743  10.088  22.476  0.00  0.00    +0.000 A 
ATOM     31  C   UNL     1      -1.425  11.061  23.206  0.00  0.00    +0.000 A 
ATOM     32  C   UNL     1      -1.175  12.404  22.957  0.00  0.00    +0.000 A 
ATOM     33  F   UNL     1      -1.856  13.340  23.630  0.00  0.00    +0.000 F 
ATOM     34  C   UNL     1      -0.230  12.792  22.019  0.00  0.00    +0.000 A 
ATOM     35  C   UNL     1       0.460  11.820  21.298  0.00  0.00    +0.000 A 
ENDBRANCH  28  29
ENDBRANCH   1  28
TORSDOF 9
ENDMDL
MODEL 4
REMARK VINA RESULT:      -7.4      1.394      1.682
REMARK  Name = 
REMARK  10 active torsions:
REMARK  status: ('A' for Active; 'I' for Inactive)
REMARK    1  A    between atoms: C_1  and  C_2
REMARK    2  A    between atoms: C_4  and  C_5
REMARK    3  A    between atoms: N_7  and  CA_8
REMARK    4  A    between atoms: CA_8  and  C_9
REMARK    5  A    between atoms: CA_8  and  C_17
REMARK    6  A    between atoms: C_9  and  C_10
REMARK    7  A    between atoms: N_19  and  CA_20
REMARK    8  A    between atoms: CA_20  and  C_21
REMARK    9  A    between atoms: CA_20  and  C_23
REMARK   10  A    between atoms: C_23  and  C_24
REMARK                            x       y       z     vdW  Elec       q    Type
REMARK                         _______ _______ _______ _____ _____    ______ ____
ROOT
ATOM      1  CA  UNL     1       0.572   9.800  19.197  0.00  0.00    +0.000 C 
ENDROOT
BRANCH   1   4
ATOM      2  C   UNL     1       1.297  11.787  20.543  0.00  0.00    +0.000 C 
ATOM      3  O   UNL     1       0.729  11.409  21.563  0.00  0.00    +0.000 OA
ATOM      4  N   UNL     1       1.337  11.036  19.390  0.00  0.00    +0.000 N 
ATOM      5  H   UNL     1       1.843  11.413  18.589  0.00  0.00    +0.000 HD
BRANCH   2   9
ATOM      6  C   UNL     1       3.664  16.022  19.026  0.00  0.00    +0.000 C 
ATOM      7  C   UNL     1       2.948  14.918  19.692  0.00  0.00    +0.000 A 
ATOM      8  C   UNL     1       2.437  13.719  19.264  0.00  0.00    +0.000 A 
ATOM      9  C   UNL     1       1.908  13.116  20.437  0.00  0.00    +0.000 A 
ATOM     10  N   UNL     1       2.096  13.913  21.505  0.00  0.00    +0.000 NA
ATOM     11  O   UNL     1       2.740  15.041  21.027  0.00  0.00    +0.000 OA
ENDBRANCH   2   9
ENDBRANCH   1   4
BRANCH   1  12
ATOM     12  C   UNL     1       1.510   8.607  19.515  0.00  0.00    +0.000 C 
ATOM     13  O   UNL     1       1.624   8.158  20.657  0.00  0.00    +0.000 OA
ATOM     14  N   UNL     1       2.150   8.029  18.438  0.00  0.00    +0.000 N 
ATOM     15  H   UNL     1       2.073   8.435  17.511  0.00  0.00    +0.000 HD
BRANCH  14  16
ATOM     16  CA  UNL     1       3.077   6.908  18.560  0.00  0.00    +0.000 C 
BRANCH  16  17
ATOM     17  C   UNL     1       4.289   7.177  17.680  0.00  0.00    +0.000 C 
ATOM     18  O   UNL     1       4.368   6.827  16.503  0.00  0.00    +0.000 OA
ENDBRANCH  16  17
BRANCH  16  19
ATOM     19  C   UNL     1       2.408   5.599  18.124  0.00  0.00    +0.000 C 
BRANCH  19  20
ATOM     20  C   UNL     1       1.813   4.832  19.313  0.00  0.00    +0.000 C 
ATOM     21  C   UNL     1       2.840   4.613  20.425  0.00  0.00    +0.000 C 
ATOM     22  C   UNL     1       2.123   4.002  21.619  0.00  0.00    +0.000 C 
ATOM     23  C   UNL     1       1.560   2.652  21.215  0.00  0.00    +0.000 C 
ATOM     24  N   UNL     1       0.844   2.679  19.953  0.00  0.00    +0.000 N 
ATOM     25  C   UNL     1       1.172   3.512  18.911  0.00  0.00    +0.000 C 
ATOM     26  O   UNL     1       0.831   3.240  17.764  0.00  0.00    +0.000 OA
ATOM     27  H   UNL     1       0.394   1.823  19.649  0.00  0.00    +0.000 HD
ENDBRANCH  19  20
ENDBRANCH  16  19
ENDBRANCH  14  16
ENDBRANCH   1  12
BRANCH   1  28
ATOM     28  C   UNL     1      -0.058   9.681  17.788  0.00  0.00    +0.000 C 
BRANCH  28  29
ATOM     29  C   UNL     1      -1.432  10.310  17.677  0.00  0.00    +0.000 A 
ATOM     30  C   UNL     1      -1.915  11.136  18.704  0.00  0.00    +0.000 A 
ATOM     31  C   UNL     1      -3.227  11.607  18.673  0.00  0.00    +0.000 A 
ATOM     32  C   UNL     1      -4.053  11.264  17.610  0.00  0.00    +0.000 A 
ATOM     33  F   UNL     1      -5.324  11.684  17.598  0.00  0.00    +0.000 F 
ATOM     34  C   UNL     1      -3.580  10.491  16.560  0.00  0.00    +0.000 A 
ATOM     35  C   UNL     1      -2.266  10.030  16.586  0.00  0.00    +0.000 A 
ENDBRANCH  28  29
ENDBRANCH   1  28
TORSDOF 9
ENDMDL
MODEL 5
REMARK VINA RESULT:      -7.4      5.291      9.274
REMARK  Name = 
REMARK  10 active torsions:
REMARK  status: ('A' for Active; 'I' for Inactive)
REMARK    1  A    between atoms: C_1  and  C_2
REMARK    2  A    between atoms: C_4  and  C_5
REMARK    3  A    between atoms: N_7  and  CA_8
REMARK    4  A    between atoms: CA_8  and  C_9
REMARK    5  A    between atoms: CA_8  and  C_17
REMARK    6  A    between atoms: C_9  and  C_10
REMARK    7  A    between atoms: N_19  and  CA_20
REMARK    8  A    between atoms: CA_20  and  C_21
REMARK    9  A    between atoms: CA_20  and  C_23
REMARK   10  A    between atoms: C_23  and  C_24
REMARK                            x       y       z     vdW  Elec       q    Type
REMARK                         _______ _______ _______ _____ _____    ______ ____
ROOT
ATOM      1  CA  UNL     1       7.298   7.054  17.440  0.00  0.00    +0.000 C 
ENDROOT
BRANCH   1   4
ATOM      2  C   UNL     1       7.298   5.108  15.860  0.00  0.00    +0.000 C 
ATOM      3  O   UNL     1       7.761   4.329  16.687  0.00  0.00    +0.000 OA
ATOM      4  N   UNL     1       6.972   6.410  16.164  0.00  0.00    +0.000 N 
ATOM      5  H   UNL     1       6.577   6.991  15.425  0.00  0.00    +0.000 HD
BRANCH   2   9
ATOM      6  C   UNL     1       6.039   2.934  11.441  0.00  0.00    +0.000 C 
ATOM      7  C   UNL     1       6.535   3.734  12.576  0.00  0.00    +0.000 A 
ATOM      8  C   UNL     1       6.280   3.736  13.924  0.00  0.00    +0.000 A 
ATOM      9  C   UNL     1       7.134   4.742  14.449  0.00  0.00    +0.000 A 
ATOM     10  N   UNL     1       7.859   5.308  13.467  0.00  0.00    +0.000 NA
ATOM     11  O   UNL     1       7.470   4.676  12.298  0.00  0.00    +0.000 OA
ENDBRANCH   2   9
ENDBRANCH   1   4
BRANCH   1  12
ATOM     12  C   UNL     1       6.646   6.220  18.573  0.00  0.00    +0.000 C 
ATOM     13  O   UNL     1       7.263   5.924  19.598  0.00  0.00    +0.000 OA
ATOM     14  N   UNL     1       5.317   5.891  18.402  0.00  0.00    +0.000 N 
ATOM     15  H   UNL     1       4.836   6.111  17.537  0.00  0.00    +0.000 HD
BRANCH  14  16
ATOM     16  CA  UNL     1       4.555   5.100  19.364  0.00  0.00    +0.000 C 
BRANCH  16  17
ATOM     17  C   UNL     1       4.828   3.624  19.108  0.00  0.00    +0.000 C 
ATOM     18  O   UNL     1       5.101   2.818  19.996  0.00  0.00    +0.000 OA
ENDBRANCH  16  17
BRANCH  16  19
ATOM     19  C   UNL     1       3.053   5.374  19.226  0.00  0.00    +0.000 C 
BRANCH  19  20
ATOM     20  C   UNL     1       2.678   6.782  19.707  0.00  0.00    +0.000 C 
ATOM     21  C   UNL     1       1.482   6.762  20.661  0.00  0.00    +0.000 C 
ATOM     22  C   UNL     1       1.293   8.166  21.212  0.00  0.00    +0.000 C 
ATOM     23  C   UNL     1       0.972   9.105  20.063  0.00  0.00    +0.000 C 
ATOM     24  N   UNL     1       1.862   8.953  18.928  0.00  0.00    +0.000 N 
ATOM     25  C   UNL     1       2.433   7.757  18.565  0.00  0.00    +0.000 C 
ATOM     26  O   UNL     1       2.831   7.578  17.417  0.00  0.00    +0.000 OA
ATOM     27  H   UNL     1       1.740   9.587  18.146  0.00  0.00    +0.000 HD
ENDBRANCH  19  20
ENDBRANCH  16  19
ENDBRANCH  14  16
ENDBRANCH   1  12
BRANCH   1  28
ATOM     28  C   UNL     1       6.876   8.543  17.503  0.00  0.00    +0.000 C 
BRANCH  28  29
ATOM     29  C   UNL     1       7.976   9.471  17.976  0.00  0.00    +0.000 A 
ATOM     30  C   UNL     1       8.818   9.087  19.031  0.00  0.00    +0.000 A 
ATOM     31  C   UNL     1       9.742   9.989  19.561  0.00  0.00    +0.000 A 
ATOM     32  C   UNL     1       9.834  11.267  19.027  0.00  0.00    +0.000 A 
ATOM     33  F   UNL     1      10.694  12.146  19.558  0.00  0.00    +0.000 F 
ATOM     34  C   UNL     1       9.047  11.650  17.951  0.00  0.00    +0.000 A 
ATOM     35  C   UNL     1       8.132  10.746  17.415  0.00  0.00    +0.000 A 
ENDBRANCH  28  29
ENDBRANCH   1  28
TORSDOF 9
ENDMDL
MODEL 6
REMARK VINA RESULT:      -7.4      3.183      5.329
REMARK  Name = 
REMARK  10 active torsions:
REMARK  status: ('A' for Active; 'I' for Inactive)
REMARK    1  A    between atoms: C_1  and  C_2
REMARK    2  A    between atoms: C_4  and  C_5
REMARK    3  A    between atoms: N_7  and  CA_8
REMARK    4  A    between atoms: CA_8  and  C_9
REMARK    5  A    between atoms: CA_8  and  C_17
REMARK    6  A    between atoms: C_9  and  C_10
REMARK    7  A    between atoms: N_19  and  CA_20
REMARK    8  A    between atoms: CA_20  and  C_21
REMARK    9  A    between atoms: CA_20  and  C_23
REMARK   10  A    between atoms: C_23  and  C_24
REMARK                            x       y       z     vdW  Elec       q    Type
REMARK                         _______ _______ _______ _____ _____    ______ ____
ROOT
ATOM      1  CA  UNL     1       1.377   9.233  19.083  0.00  0.00    +0.000 C 
ENDROOT
BRANCH   1   4
ATOM      2  C   UNL     1      -0.400  10.717  18.121  0.00  0.00    +0.000 C 
ATOM      3  O   UNL     1       0.276  11.736  18.229  0.00  0.00    +0.000 OA
ATOM      4  N   UNL     1       0.083   9.467  18.433  0.00  0.00    +0.000 N 
ATOM      5  H   UNL     1      -0.536   8.667  18.302  0.00  0.00    +0.000 HD
BRANCH   2   9
ATOM      6  C   UNL     1      -5.402  11.556  17.784  0.00  0.00    +0.000 C 
ATOM      7  C   UNL     1      -3.983  11.175  17.664  0.00  0.00    +0.000 A 
ATOM      8  C   UNL     1      -2.838  11.539  18.328  0.00  0.00    +0.000 A 
ATOM      9  C   UNL     1      -1.814  10.756  17.734  0.00  0.00    +0.000 A 
ATOM     10  N   UNL     1      -2.321   9.967  16.768  0.00  0.00    +0.000 NA
ATOM     11  O   UNL     1      -3.676  10.243  16.727  0.00  0.00    +0.000 OA
ENDBRANCH   2   9
ENDBRANCH   1   4
BRANCH   1  12
ATOM     12  C   UNL     1       2.150   8.188  18.238  0.00  0.00    +0.000 C 
ATOM     13  O   UNL     1       2.637   8.473  17.142  0.00  0.00    +0.000 OA
ATOM     14  N   UNL     1       2.328   6.947  18.814  0.00  0.00    +0.000 N 
ATOM     15  H   UNL     1       1.890   6.719  19.699  0.00  0.00    +0.000 HD
BRANCH  14  16
ATOM     16  CA  UNL     1       3.020   5.846  18.151  0.00  0.00    +0.000 C 
BRANCH  16  17
ATOM     17  C   UNL     1       2.588   4.536  18.796  0.00  0.00    +0.000 C 
ATOM     18  O   UNL     1       1.416   4.170  18.874  0.00  0.00    +0.000 OA
ENDBRANCH  16  17
BRANCH  16  19
ATOM     19  C   UNL     1       4.540   6.001  18.279  0.00  0.00    +0.000 C 
BRANCH  19  20
ATOM     20  C   UNL     1       5.244   5.916  16.917  0.00  0.00    +0.000 C 
ATOM     21  C   UNL     1       4.981   4.581  16.219  0.00  0.00    +0.000 C 
ATOM     22  C   UNL     1       5.571   4.654  14.819  0.00  0.00    +0.000 C 
ATOM     23  C   UNL     1       7.073   4.848  14.931  0.00  0.00    +0.000 C 
ATOM     24  N   UNL     1       7.453   5.889  15.867  0.00  0.00    +0.000 N 
ATOM     25  C   UNL     1       6.739   6.189  17.001  0.00  0.00    +0.000 C 
ATOM     26  O   UNL     1       7.277   6.762  17.944  0.00  0.00    +0.000 OA
ATOM     27  H   UNL     1       8.440   6.109  15.949  0.00  0.00    +0.000 HD
ENDBRANCH  19  20
ENDBRANCH  16  19
ENDBRANCH  14  16
ENDBRANCH   1  12
BRANCH   1  28
ATOM     28  C   UNL     1       1.250   8.798  20.564  0.00  0.00    +0.000 C 
BRANCH  28  29
ATOM     29  C   UNL     1       0.536   9.809  21.439  0.00  0.00    +0.000 A 
ATOM     30  C   UNL     1      -0.337   9.376  22.449  0.00  0.00    +0.000 A 
ATOM     31  C   UNL     1      -1.100  10.298  23.166  0.00  0.00    +0.000 A 
ATOM     32  C   UNL     1      -0.981  11.652  22.882  0.00  0.00    +0.000 A 
ATOM     33  F   UNL     1      -1.741  12.535  23.543  0.00  0.00    +0.000 F 
ATOM     34  C   UNL     1      -0.088  12.104  21.923  0.00  0.00    +0.000 A 
ATOM     35  C   UNL     1       0.682  11.185  21.215  0.00  0.00    +0.000 A 
ENDBRANCH  28  29
ENDBRANCH   1  28
TORSDOF 9
ENDMDL
MODEL 7
REMARK VINA RESULT:      -7.3      3.937      6.639
REMARK  Name = 
REMARK  10 active torsions:
REMARK  status: ('A' for Active; 'I' for Inactive)
REMARK    1  A    between atoms: C_1  and  C_2
REMARK    2  A    between atoms: C_4  and  C_5
REMARK    3  A    between atoms: N_7  and  CA_8
REMARK    4  A    between atoms: CA_8  and  C_9
REMARK    5  A    between atoms: CA_8  and  C_17
REMARK    6  A    between atoms: C_9  and  C_10
REMARK    7  A    between atoms: N_19  and  CA_20
REMARK    8  A    between atoms: CA_20  and  C_21
REMARK    9  A    between atoms: CA_20  and  C_23
REMARK   10  A    between atoms: C_23  and  C_24
REMARK                            x       y       z     vdW  Elec       q    Type
REMARK                         _______ _______ _______ _____ _____    ______ ____
ROOT
ATOM      1  CA  UNL     1       2.083   6.757  20.415  0.00  0.00    +0.000 C 
ENDROOT
BRANCH   1   4
ATOM      2  C   UNL     1       1.034   8.941  21.058  0.00  0.00    +0.000 C 
ATOM      3  O   UNL     1       1.417   8.879  22.222  0.00  0.00    +0.000 OA
ATOM      4  N   UNL     1       1.377   8.006  20.109  0.00  0.00    +0.000 N 
ATOM      5  H   UNL     1       1.030   8.136  19.159  0.00  0.00    +0.000 HD
BRANCH   2   9
ATOM      6  C   UNL     1      -1.931  12.063  18.356  0.00  0.00    +0.000 C 
ATOM      7  C   UNL     1      -1.163  11.286  19.346  0.00  0.00    +0.000 A 
ATOM      8  C   UNL     1      -0.378  10.164  19.275  0.00  0.00    +0.000 A 
ATOM      9  C   UNL     1       0.099   9.975  20.599  0.00  0.00    +0.000 A 
ATOM     10  N   UNL     1      -0.376  10.934  21.415  0.00  0.00    +0.000 NA
ATOM     11  O   UNL     1      -1.171  11.744  20.623  0.00  0.00    +0.000 OA
ENDBRANCH   2   9
ENDBRANCH   1   4
BRANCH   1  12
ATOM     12  C   UNL     1       3.054   6.462  19.243  0.00  0.00    +0.000 C 
ATOM     13  O   UNL     1       2.814   6.835  18.093  0.00  0.00    +0.000 OA
ATOM     14  N   UNL     1       4.233   5.825  19.571  0.00  0.00    +0.000 N 
ATOM     15  H   UNL     1       4.397   5.493  20.515  0.00  0.00    +0.000 HD
BRANCH  14  16
ATOM     16  CA  UNL     1       5.250   5.460  18.589  0.00  0.00    +0.000 C 
BRANCH  16  17
ATOM     17  C   UNL     1       6.575   5.252  19.310  0.00  0.00    +0.000 C 
ATOM     18  O   UNL     1       7.498   6.064  19.285  0.00  0.00    +0.000 OA
ENDBRANCH  16  17
BRANCH  16  19
ATOM     19  C   UNL     1       5.409   6.561  17.535  0.00  0.00    +0.000 C 
BRANCH  19  20
ATOM     20  C   UNL     1       5.636   5.985  16.130  0.00  0.00    +0.000 C 
ATOM     21  C   UNL     1       5.034   4.587  15.980  0.00  0.00    +0.000 C 
ATOM     22  C   UNL     1       5.157   4.172  14.523  0.00  0.00    +0.000 C 
ATOM     23  C   UNL     1       6.629   4.101  14.156  0.00  0.00    +0.000 C 
ATOM     24  N   UNL     1       7.387   5.262  14.582  0.00  0.00    +0.000 N 
ATOM     25  C   UNL     1       7.100   5.983  15.716  0.00  0.00    +0.000 C 
ATOM     26  O   UNL     1       7.962   6.674  16.250  0.00  0.00    +0.000 OA
ATOM     27  H   UNL     1       8.366   5.306  14.321  0.00  0.00    +0.000 HD
ENDBRANCH  19  20
ENDBRANCH  16  19
ENDBRANCH  14  16
ENDBRANCH   1  12
BRANCH   1  28
ATOM     28  C   UNL     1       1.133   5.567  20.694  0.00  0.00    +0.000 C 
BRANCH  28  29
ATOM     29  C   UNL     1       1.635   4.245  20.151  0.00  0.00    +0.000 A 
ATOM     30  C   UNL     1       2.460   3.426  20.937  0.00  0.00    +0.000 A 
ATOM     31  C   UNL     1       3.036   2.276  20.397  0.00  0.00    +0.000 A 
ATOM     32  C   UNL     1       2.775   1.937  19.076  0.00  0.00    +0.000 A 
ATOM     33  F   UNL     1       3.357   0.854  18.545  0.00  0.00    +0.000 F 
ATOM     34  C   UNL     1       1.923   2.704  18.297  0.00  0.00    +0.000 A 
ATOM     35  C   UNL     1       1.339   3.846  18.839  0.00  0.00    +0.000 A 
ENDBRANCH  28  29
ENDBRANCH   1  28
TORSDOF 9
ENDMDL
MODEL 8
REMARK VINA RESULT:      -7.2      1.975      2.915
REMARK  Name = 
REMARK  10 active torsions:
REMARK  status: ('A' for Active; 'I' for Inactive)
REMARK    1  A    between atoms: C_1  and  C_2
REMARK    2  A    between atoms: C_4  and  C_5
REMARK    3  A    between atoms: N_7  and  CA_8
REMARK    4  A    between atoms: CA_8  and  C_9
REMARK    5  A    between atoms: CA_8  and  C_17
REMARK    6  A    between atoms: C_9  and  C_10
REMARK    7  A    between atoms: N_19  and  CA_20
REMARK    8  A    between atoms: CA_20  and  C_21
REMARK    9  A    between atoms: CA_20  and  C_23
REMARK   10  A    between atoms: C_23  and  C_24
REMARK                            x       y       z     vdW  Elec       q    Type
REMARK                         _______ _______ _______ _____ _____    ______ ____
ROOT
ATOM      1  CA  UNL     1       1.048   9.932  19.639  0.00  0.00    +0.000 C 
ENDROOT
BRANCH   1   4
ATOM      2  C   UNL     1       1.406  12.371  20.094  0.00  0.00    +0.000 C 
ATOM      3  O   UNL     1       1.512  12.216  21.306  0.00  0.00    +0.000 OA
ATOM      4  N   UNL     1       1.263  11.320  19.217  0.00  0.00    +0.000 N 
ATOM      5  H   UNL     1       1.196  11.531  18.222  0.00  0.00    +0.000 HD
BRANCH   2   9
ATOM      6  C   UNL     1      -0.042  16.879  18.244  0.00  0.00    +0.000 C 
ATOM      7  C   UNL     1       0.617  15.643  18.705  0.00  0.00    +0.000 A 
ATOM      8  C   UNL     1       0.202  14.558  19.436  0.00  0.00    +0.000 A 
ATOM      9  C   UNL     1       1.334  13.702  19.481  0.00  0.00    +0.000 A 
ATOM     10  N   UNL     1       2.367  14.248  18.813  0.00  0.00    +0.000 NA
ATOM     11  O   UNL     1       1.910  15.465  18.339  0.00  0.00    +0.000 OA
ENDBRANCH   2   9
ENDBRANCH   1   4
BRANCH   1  12
ATOM     12  C   UNL     1       1.778   9.011  18.629  0.00  0.00    +0.000 C 
ATOM     13  O   UNL     1       2.061   9.391  17.491  0.00  0.00    +0.000 OA
ATOM     14  N   UNL     1       2.160   7.771  19.098  0.00  0.00    +0.000 N 
ATOM     15  H   UNL     1       1.887   7.460  20.024  0.00  0.00    +0.000 HD
BRANCH  14  16
ATOM     16  CA  UNL     1       2.844   6.776  18.277  0.00  0.00    +0.000 C 
BRANCH  16  17
ATOM     17  C   UNL     1       1.903   5.602  18.045  0.00  0.00    +0.000 C 
ATOM     18  O   UNL     1       1.991   4.531  18.643  0.00  0.00    +0.000 OA
ENDBRANCH  16  17
BRANCH  16  19
ATOM     19  C   UNL     1       4.119   6.281  18.969  0.00  0.00    +0.000 C 
BRANCH  19  20
ATOM     20  C   UNL     1       5.208   5.892  17.960  0.00  0.00    +0.000 C 
ATOM     21  C   UNL     1       4.734   6.052  16.515  0.00  0.00    +0.000 C 
ATOM     22  C   UNL     1       5.921   5.809  15.596  0.00  0.00    +0.000 C 
ATOM     23  C   UNL     1       6.405   4.383  15.787  0.00  0.00    +0.000 C 
ATOM     24  N   UNL     1       6.554   4.004  17.179  0.00  0.00    +0.000 N 
ATOM     25  C   UNL     1       5.761   4.493  18.188  0.00  0.00    +0.000 C 
ATOM     26  O   UNL     1       5.642   3.876  19.243  0.00  0.00    +0.000 OA
ATOM     27  H   UNL     1       6.926   3.082  17.378  0.00  0.00    +0.000 HD
ENDBRANCH  19  20
ENDBRANCH  16  19
ENDBRANCH  14  16
ENDBRANCH   1  12
BRANCH   1  28
ATOM     28  C   UNL     1      -0.448   9.559  19.785  0.00  0.00    +0.000 C 
BRANCH  28  29
ATOM     29  C   UNL     1      -1.346  10.221  18.759  0.00  0.00    +0.000 A 
ATOM     30  C   UNL     1      -2.152  11.310  19.124  0.00  0.00    +0.000 A 
ATOM     31  C   UNL     1      -3.079  11.835  18.224  0.00  0.00    +0.000 A 
ATOM     32  C   UNL     1      -3.190  11.282  16.955  0.00  0.00    +0.000 A 
ATOM     33  F   UNL     1      -4.106  11.760  16.103  0.00  0.00    +0.000 F 
ATOM     34  C   UNL     1      -2.368  10.238  16.557  0.00  0.00    +0.000 A 
ATOM     35  C   UNL     1      -1.435   9.721  17.452  0.00  0.00    +0.000 A 
ENDBRANCH  28  29
ENDBRANCH   1  28
TORSDOF 9
ENDMDL
MODEL 9
REMARK VINA RESULT:      -7.1      3.076      5.014
REMARK  Name = 
REMARK  10 active torsions:
REMARK  status: ('A' for Active; 'I' for Inactive)
REMARK    1  A    between atoms: C_1  and  C_2
REMARK    2  A    between atoms: C_4  and  C_5
REMARK    3  A    between atoms: N_7  and  CA_8
REMARK    4  A    between atoms: CA_8  and  C_9
REMARK    5  A    between atoms: CA_8  and  C_17
REMARK    6  A    between atoms: C_9  and  C_10
REMARK    7  A    between atoms: N_19  and  CA_20
REMARK    8  A    between atoms: CA_20  and  C_21
REMARK    9  A    between atoms: CA_20  and  C_23
REMARK   10  A    between atoms: C_23  and  C_24
REMARK                            x       y       z     vdW  Elec       q    Type
REMARK                         _______ _______ _______ _____ _____    ______ ____
ROOT
ATOM      1  CA  UNL     1       1.621   8.696  19.906  0.00  0.00    +0.000 C 
ENDROOT
BRANCH   1   4
ATOM      2  C   UNL     1       0.351  10.156  18.312  0.00  0.00    +0.000 C 
ATOM      3  O   UNL     1       1.358  10.723  17.899  0.00  0.00    +0.000 OA
ATOM      4  N   UNL     1       0.398   9.118  19.215  0.00  0.00    +0.000 N 
ATOM      5  H   UNL     1      -0.482   8.688  19.498  0.00  0.00    +0.000 HD
BRANCH   2   9
ATOM      6  C   UNL     1      -4.179  10.874  16.120  0.00  0.00    +0.000 C 
ATOM      7  C   UNL     1      -2.946  10.842  16.928  0.00  0.00    +0.000 A 
ATOM      8  C   UNL     1      -1.823  10.054  16.923  0.00  0.00    +0.000 A 
ATOM      9  C   UNL     1      -0.999  10.596  17.945  0.00  0.00    +0.000 A 
ATOM     10  N   UNL     1      -1.599  11.651  18.526  0.00  0.00    +0.000 NA
ATOM     11  O   UNL     1      -2.819  11.791  17.889  0.00  0.00    +0.000 OA
ENDBRANCH   2   9
ENDBRANCH   1   4
BRANCH   1  12
ATOM     12  C   UNL     1       2.031   7.312  19.341  0.00  0.00    +0.000 C 
ATOM     13  O   UNL     1       2.220   7.133  18.136  0.00  0.00    +0.000 OA
ATOM     14  N   UNL     1       2.246   6.313  20.268  0.00  0.00    +0.000 N 
ATOM     15  H   UNL     1       2.051   6.467  21.251  0.00  0.00    +0.000 HD
BRANCH  14  16
ATOM     16  CA  UNL     1       2.624   4.949  19.907  0.00  0.00    +0.000 C 
BRANCH  16  17
ATOM     17  C   UNL     1       1.935   3.982  20.860  0.00  0.00    +0.000 C 
ATOM     18  O   UNL     1       2.528   3.106  21.487  0.00  0.00    +0.000 OA
ENDBRANCH  16  17
BRANCH  16  19
ATOM     19  C   UNL     1       4.143   4.763  19.998  0.00  0.00    +0.000 C 
BRANCH  19  20
ATOM     20  C   UNL     1       4.834   5.003  18.648  0.00  0.00    +0.000 C 
ATOM     21  C   UNL     1       4.436   3.956  17.607  0.00  0.00    +0.000 C 
ATOM     22  C   UNL     1       5.030   4.369  16.269  0.00  0.00    +0.000 C 
ATOM     23  C   UNL     1       6.544   4.377  16.387  0.00  0.00    +0.000 C 
ATOM     24  N   UNL     1       7.029   5.064  17.569  0.00  0.00    +0.000 N 
ATOM     25  C   UNL     1       6.349   5.094  18.762  0.00  0.00    +0.000 C 
ATOM     26  O   UNL     1       6.942   5.319  19.813  0.00  0.00    +0.000 OA
ATOM     27  H   UNL     1       8.032   5.154  17.682  0.00  0.00    +0.000 HD
ENDBRANCH  19  20
ENDBRANCH  16  19
ENDBRANCH  14  16
ENDBRANCH   1  12
BRANCH   1  28
ATOM     28  C   UNL     1       1.477   8.672  21.448  0.00  0.00    +0.000 C 
BRANCH  28  29
ATOM     29  C   UNL     1       0.605   9.781  21.998  0.00  0.00    +0.000 A 
ATOM     30  C   UNL     1      -0.399   9.491  22.934  0.00  0.00    +0.000 A 
ATOM     31  C   UNL     1      -1.293  10.482  23.341  0.00  0.00    +0.000 A 
ATOM     32  C   UNL     1      -1.174  11.765  22.824  0.00  0.00    +0.000 A 
ATOM     33  F   UNL     1      -2.055  12.707  23.185  0.00  0.00    +0.000 F 
ATOM     34  C   UNL     1      -0.159  12.085  21.936  0.00  0.00    +0.000 A 
ATOM     35  C   UNL     1       0.740  11.099  21.538  0.00  0.00    +0.000 A 
ENDBRANCH  28  29
ENDBRANCH   1  28
TORSDOF 9
ENDMDL
