MODEL 1
REMARK VINA RESULT:      -8.0      0.000      0.000
REMARK  Name = 
REMARK  10 active torsions:
REMARK  status: ('A' for Active; 'I' for Inactive)
REMARK    1  A    between atoms: C_1  and  C_2
REMARK    2  A    between atoms: C_7  and  O_8
REMARK    3  A    between atoms: O_8  and  C_9
REMARK    4  A    between atoms: C_9  and  C_10
REMARK    5  A    between atoms: C_10  and  O_11
REMARK    6  A    between atoms: C_10  and  C_12
REMARK    7  A    between atoms: C_12  and  N_13
REMARK    8  A    between atoms: N_16  and  C_17
REMARK    9  A    between atoms: C_17  and  C_18
REMARK   10  A    between atoms: C_18  and  N_19
REMARK                            x       y       z     vdW  Elec       q    Type
REMARK                         _______ _______ _______ _____ _____    ______ ____
ROOT
ATOM      1  N   UNL     1       3.790   5.633  18.073  0.00  0.00    +0.000 N 
ATOM      2  C   UNL     1       3.254   6.882  18.221  0.00  0.00    +0.000 A 
ATOM      3  N   UNL     1       3.518   7.883  17.458  0.00  0.00    +0.000 NA
ATOM      4  N   UNL     1       2.405   6.966  19.279  0.00  0.00    +0.000 N 
ATOM      5  C   UNL     1       2.408   5.721  19.815  0.00  0.00    +0.000 A 
ATOM      6  C   UNL     1       1.719   5.225  20.930  0.00  0.00    +0.000 A 
ATOM      7  C   UNL     1       1.929   3.879  21.290  0.00  0.00    +0.000 A 
ATOM      8  C   UNL     1       2.807   3.066  20.544  0.00  0.00    +0.000 A 
ATOM      9  C   UNL     1       3.477   3.581  19.423  0.00  0.00    +0.000 A 
ATOM     10  C   UNL     1       3.252   4.919  19.085  0.00  0.00    +0.000 A 
ATOM     11  H   UNL     1       4.160   7.819  16.657  0.00  0.00    +0.000 HD
ENDROOT
BRANCH   1  12
ATOM     12  C   UNL     1       4.769   5.143  17.085  0.00  0.00    +0.000 C 
BRANCH  12  13
ATOM     13  C   UNL     1       6.223   5.521  17.467  0.00  0.00    +0.000 C 
BRANCH  13  14
ATOM     14  O   UNL     1       6.408   6.912  17.381  0.00  0.00    +0.000 OA
ATOM     15  H   UNL     1       5.521   7.329  17.217  0.00  0.00    +0.000 HD
ENDBRANCH  13  14
BRANCH  13  16
ATOM     16  C   UNL     1       7.210   4.793  16.546  0.00  0.00    +0.000 C 
BRANCH  16  17
ATOM     17  O   UNL     1       7.371   5.397  15.308  0.00  0.00    +0.000 OA
BRANCH  17  24
ATOM     18  C   UNL     1       8.877   5.950  12.886  0.00  0.00    +0.000 C 
ATOM     19  C   UNL     1       7.690   5.025  12.938  0.00  0.00    +0.000 A 
ATOM     20  C   UNL     1       7.280   4.376  11.758  0.00  0.00    +0.000 A 
ATOM     21  C   UNL     1       6.183   3.513  11.761  0.00  0.00    +0.000 A 
ATOM     22  C   UNL     1       5.480   3.285  12.938  0.00  0.00    +0.000 A 
ATOM     23  C   UNL     1       5.870   3.913  14.114  0.00  0.00    +0.000 A 
ATOM     24  C   UNL     1       6.982   4.792  14.144  0.00  0.00    +0.000 A 
ENDBRANCH  17  24
ENDBRANCH  16  17
ENDBRANCH  13  16
ENDBRANCH  12  13
ENDBRANCH   1  12
BRANCH   4  25
ATOM     25  C   UNL     1       1.653   8.155  19.736  0.00  0.00    +0.000 C 
BRANCH  25  26
ATOM     26  C   UNL     1       1.210   8.032  21.212  0.00  0.00    +0.000 C 
BRANCH  26  27
ATOM     27  N   UNL     1       0.349   9.168  21.566  0.00  0.00    +0.000 NA
ATOM     28  C   UNL     1       0.278   9.484  23.000  0.00  0.00    +0.000 C 
ATOM     29  C   UNL     1      -0.947  10.376  23.175  0.00  0.00    +0.000 C 
ATOM     30  O   UNL     1      -0.788  11.586  22.447  0.00  0.00    +0.000 OA
ATOM     31  C   UNL     1      -0.606  11.321  21.062  0.00  0.00    +0.000 C 
ATOM     32  C   UNL     1       0.608  10.410  20.825  0.00  0.00    +0.000 C 
ENDBRANCH  26  27
ENDBRANCH  25  26
ENDBRANCH   4  25
TORSDOF 9
ENDMDL
MODEL 2
REMARK VINA RESULT:      -8.0      4.391      7.456
REMARK  Name = 
REMARK  10 active torsions:
REMARK  status: ('A' for Active; 'I' for Inactive)
REMARK    1  A    between atoms: C_1  and  C_2
REMARK    2  A    between atoms: C_7  and  O_8
REMARK    3  A    between atoms: O_8  and  C_9
REMARK    4  A    between atoms: C_9  and  C_10
REMARK    5  A    between atoms: C_10  and  O_11
REMARK    6  A    between atoms: C_10  and  C_12
REMARK    7  A    between atoms: C_12  and  N_13
REMARK    8  A    between atoms: N_16  and  C_17
REMARK    9  A    between atoms: C_17  and  C_18
REMARK   10  A    between atoms: C_18  and  N_19
REMARK                            x       y       z     vdW  Elec       q    Type
REMARK                         _______ _______ _______ _____ _____    ______ ____
ROOT
ATOM      1  N   UNL     1       6.499   5.680  17.494  0.00  0.00    +0.000 N 
ATOM      2  C   UNL     1       5.287   5.324  18.017  0.00  0.00    +0.000 A 
ATOM      3  N   UNL     1       4.902   5.596  19.214  0.00  0.00    +0.000 NA
ATOM      4  N   UNL     1       4.518   4.633  17.135  0.00  0.00    +0.000 N 
ATOM      5  C   UNL     1       5.278   4.554  16.014  0.00  0.00    +0.000 A 
ATOM      6  C   UNL     1       4.996   3.945  14.784  0.00  0.00    +0.000 A 
ATOM      7  C   UNL     1       5.989   3.987  13.785  0.00  0.00    +0.000 A 
ATOM      8  C   UNL     1       7.223   4.626  14.027  0.00  0.00    +0.000 A 
ATOM      9  C   UNL     1       7.478   5.239  15.264  0.00  0.00    +0.000 A 
ATOM     10  C   UNL     1       6.478   5.184  16.239  0.00  0.00    +0.000 A 
ATOM     11  H   UNL     1       5.483   6.119  19.882  0.00  0.00    +0.000 HD
ENDROOT
BRANCH   1  12
ATOM     12  C   UNL     1       7.621   6.396  18.130  0.00  0.00    +0.000 C 
BRANCH  12  13
ATOM     13  C   UNL     1       7.421   7.933  18.109  0.00  0.00    +0.000 C 
BRANCH  13  14
ATOM     14  O   UNL     1       7.077   8.366  16.816  0.00  0.00    +0.000 OA
ATOM     15  H   UNL     1       7.555   9.220  16.642  0.00  0.00    +0.000 HD
ENDBRANCH  13  14
BRANCH  13  16
ATOM     16  C   UNL     1       8.700   8.632  18.585  0.00  0.00    +0.000 C 
BRANCH  16  17
ATOM     17  O   UNL     1       8.579  10.010  18.691  0.00  0.00    +0.000 OA
BRANCH  17  24
ATOM     18  C   UNL     1       9.071  11.059  21.355  0.00  0.00    +0.000 C 
ATOM     19  C   UNL     1       9.946  11.356  20.166  0.00  0.00    +0.000 A 
ATOM     20  C   UNL     1      11.076  12.179  20.339  0.00  0.00    +0.000 A 
ATOM     21  C   UNL     1      11.912  12.482  19.263  0.00  0.00    +0.000 A 
ATOM     22  C   UNL     1      11.634  11.970  18.001  0.00  0.00    +0.000 A 
ATOM     23  C   UNL     1      10.526  11.154  17.808  0.00  0.00    +0.000 A 
ATOM     24  C   UNL     1       9.661  10.826  18.883  0.00  0.00    +0.000 A 
ENDBRANCH  17  24
ENDBRANCH  16  17
ENDBRANCH  13  16
ENDBRANCH  12  13
ENDBRANCH   1  12
BRANCH   4  25
ATOM     25  C   UNL     1       3.160   4.091  17.357  0.00  0.00    +0.000 C 
BRANCH  25  26
ATOM     26  C   UNL     1       3.192   2.631  17.865  0.00  0.00    +0.000 C 
BRANCH  26  27
ATOM     27  N   UNL     1       2.724   2.582  19.257  0.00  0.00    +0.000 NA
ATOM     28  C   UNL     1       3.780   2.543  20.278  0.00  0.00    +0.000 C 
ATOM     29  C   UNL     1       3.105   2.080  21.565  0.00  0.00    +0.000 C 
ATOM     30  O   UNL     1       2.114   3.013  21.969  0.00  0.00    +0.000 OA
ATOM     31  C   UNL     1       1.124   3.165  20.959  0.00  0.00    +0.000 C 
ATOM     32  C   UNL     1       1.749   3.615  19.630  0.00  0.00    +0.000 C 
ENDBRANCH  26  27
ENDBRANCH  25  26
ENDBRANCH   4  25
TORSDOF 9
ENDMDL
MODEL 3
REMARK VINA RESULT:      -7.9      3.724      6.650
REMARK  Name = 
REMARK  10 active torsions:
REMARK  status: ('A' for Active; 'I' for Inactive)
REMARK    1  A    between atoms: C_1  and  C_2
REMARK    2  A    between atoms: C_7  and  O_8
REMARK    3  A    between atoms: O_8  and  C_9
REMARK    4  A    between atoms: C_9  and  C_10
REMARK    5  A    between atoms: C_10  and  O_11
REMARK    6  A    between atoms: C_10  and  C_12
REMARK    7  A    between atoms: C_12  and  N_13
REMARK    8  A    between atoms: N_16  and  C_17
REMARK    9  A    between atoms: C_17  and  C_18
REMARK   10  A    between atoms: C_18  and  N_19
REMARK                            x       y       z     vdW  Elec       q    Type
REMARK                         _______ _______ _______ _____ _____    ______ ____
ROOT
ATOM      1  N   UNL     1      -0.219  10.659  19.196  0.00  0.00    +0.000 N 
ATOM      2  C   UNL     1      -0.633  11.950  19.026  0.00  0.00    +0.000 A 
ATOM      3  N   UNL     1      -0.596  12.586  17.908  0.00  0.00    +0.000 NA
ATOM      4  N   UNL     1      -1.087  12.511  20.177  0.00  0.00    +0.000 N 
ATOM      5  C   UNL     1      -0.953  11.532  21.106  0.00  0.00    +0.000 A 
ATOM      6  C   UNL     1      -1.258  11.549  22.474  0.00  0.00    +0.000 A 
ATOM      7  C   UNL     1      -0.990  10.386  23.223  0.00  0.00    +0.000 A 
ATOM      8  C   UNL     1      -0.433   9.248  22.605  0.00  0.00    +0.000 A 
ATOM      9  C   UNL     1      -0.147   9.250  21.231  0.00  0.00    +0.000 A 
ATOM     10  C   UNL     1      -0.422  10.415  20.509  0.00  0.00    +0.000 A 
ATOM     11  H   UNL     1      -0.253  12.161  17.037  0.00  0.00    +0.000 HD
ENDROOT
BRANCH   1  12
ATOM     12  C   UNL     1       0.367   9.725  18.217  0.00  0.00    +0.000 C 
BRANCH  12  13
ATOM     13  C   UNL     1       1.914   9.822  18.168  0.00  0.00    +0.000 C 
BRANCH  13  14
ATOM     14  O   UNL     1       2.314  10.843  17.287  0.00  0.00    +0.000 OA
ATOM     15  H   UNL     1       2.083  11.715  17.704  0.00  0.00    +0.000 HD
ENDBRANCH  13  14
BRANCH  13  16
ATOM     16  C   UNL     1       2.508   8.477  17.734  0.00  0.00    +0.000 C 
BRANCH  16  17
ATOM     17  O   UNL     1       2.441   7.494  18.710  0.00  0.00    +0.000 OA
BRANCH  17  24
ATOM     18  C   UNL     1       1.688   5.393  20.569  0.00  0.00    +0.000 C 
ATOM     19  C   UNL     1       2.606   5.179  19.396  0.00  0.00    +0.000 A 
ATOM     20  C   UNL     1       3.131   3.892  19.166  0.00  0.00    +0.000 A 
ATOM     21  C   UNL     1       3.988   3.651  18.091  0.00  0.00    +0.000 A 
ATOM     22  C   UNL     1       4.334   4.687  17.231  0.00  0.00    +0.000 A 
ATOM     23  C   UNL     1       3.826   5.964  17.438  0.00  0.00    +0.000 A 
ATOM     24  C   UNL     1       2.950   6.238  18.519  0.00  0.00    +0.000 A 
ENDBRANCH  17  24
ENDBRANCH  16  17
ENDBRANCH  13  16
ENDBRANCH  12  13
ENDBRANCH   1  12
BRANCH   4  25
ATOM     25  C   UNL     1      -1.606  13.883  20.366  0.00  0.00    +0.000 C 
BRANCH  25  26
ATOM     26  C   UNL     1      -0.567  14.812  21.035  0.00  0.00    +0.000 C 
BRANCH  26  27
ATOM     27  N   UNL     1       0.765  14.548  20.475  0.00  0.00    +0.000 NA
ATOM     28  C   UNL     1       1.143  15.381  19.324  0.00  0.00    +0.000 C 
ATOM     29  C   UNL     1       2.325  14.678  18.665  0.00  0.00    +0.000 C 
ATOM     30  O   UNL     1       3.424  14.610  19.561  0.00  0.00    +0.000 OA
ATOM     31  C   UNL     1       3.069  13.902  20.742  0.00  0.00    +0.000 C 
ATOM     32  C   UNL     1       1.869  14.557  21.443  0.00  0.00    +0.000 C 
ENDBRANCH  26  27
ENDBRANCH  25  26
ENDBRANCH   4  25
TORSDOF 9
ENDMDL
MODEL 4
REMARK VINA RESULT:      -7.7      2.495      8.977
REMARK  Name = 
REMARK  10 active torsions:
REMARK  status: ('A' for Active; 'I' for Inactive)
REMARK    1  A    between atoms: C_1  and  C_2
REMARK    2  A    between atoms: C_7  and  O_8
REMARK    3  A    between atoms: O_8  and  C_9
REMARK    4  A    between atoms: C_9  and  C_10
REMARK    5  A    between atoms: C_10  and  O_11
REMARK    6  A    between atoms: C_10  and  C_12
REMARK    7  A    between atoms: C_12  and  N_13
REMARK    8  A    between atoms: N_16  and  C_17
REMARK    9  A    between atoms: C_17  and  C_18
REMARK   10  A    between atoms: C_18  and  N_19
REMARK                            x       y       z     vdW  Elec       q    Type
REMARK                         _______ _______ _______ _____ _____    ______ ____
ROOT
ATOM      1  N   UNL     1       2.871   6.315  18.769  0.00  0.00    +0.000 N 
ATOM      2  C   UNL     1       3.644   5.953  17.702  0.00  0.00    +0.000 A 
ATOM      3  N   UNL     1       4.300   6.779  16.964  0.00  0.00    +0.000 NA
ATOM      4  N   UNL     1       3.646   4.612  17.486  0.00  0.00    +0.000 N 
ATOM      5  C   UNL     1       2.843   4.112  18.457  0.00  0.00    +0.000 A 
ATOM      6  C   UNL     1       2.472   2.786  18.718  0.00  0.00    +0.000 A 
ATOM      7  C   UNL     1       1.589   2.546  19.789  0.00  0.00    +0.000 A 
ATOM      8  C   UNL     1       1.100   3.616  20.568  0.00  0.00    +0.000 A 
ATOM      9  C   UNL     1       1.494   4.935  20.295  0.00  0.00    +0.000 A 
ATOM     10  C   UNL     1       2.372   5.148  19.228  0.00  0.00    +0.000 A 
ATOM     11  H   UNL     1       4.300   7.794  17.127  0.00  0.00    +0.000 HD
ENDROOT
BRANCH   1  12
ATOM     12  C   UNL     1       2.579   7.658  19.304  0.00  0.00    +0.000 C 
BRANCH  12  13
ATOM     13  C   UNL     1       1.602   8.449  18.397  0.00  0.00    +0.000 C 
BRANCH  13  14
ATOM     14  O   UNL     1       2.297   9.051  17.333  0.00  0.00    +0.000 OA
ATOM     15  H   UNL     1       3.117   8.516  17.162  0.00  0.00    +0.000 HD
ENDBRANCH  13  14
BRANCH  13  16
ATOM     16  C   UNL     1       0.867   9.511  19.224  0.00  0.00    +0.000 C 
BRANCH  16  17
ATOM     17  O   UNL     1       0.325  10.536  18.464  0.00  0.00    +0.000 OA
BRANCH  17  24
ATOM     18  C   UNL     1      -1.221  12.441  20.020  0.00  0.00    +0.000 C 
ATOM     19  C   UNL     1      -1.813  11.559  18.953  0.00  0.00    +0.000 A 
ATOM     20  C   UNL     1      -3.190  11.655  18.675  0.00  0.00    +0.000 A 
ATOM     21  C   UNL     1      -3.780  10.854  17.696  0.00  0.00    +0.000 A 
ATOM     22  C   UNL     1      -3.008   9.945  16.983  0.00  0.00    +0.000 A 
ATOM     23  C   UNL     1      -1.647   9.835  17.240  0.00  0.00    +0.000 A 
ATOM     24  C   UNL     1      -1.018  10.639  18.225  0.00  0.00    +0.000 A 
ENDBRANCH  17  24
ENDBRANCH  16  17
ENDBRANCH  13  16
ENDBRANCH  12  13
ENDBRANCH   1  12
BRANCH   4  25
ATOM     25  C   UNL     1       4.364   3.872  16.425  0.00  0.00    +0.000 C 
BRANCH  25  26
ATOM     26  C   UNL     1       5.883   4.163  16.438  0.00  0.00    +0.000 C 
BRANCH  26  27
ATOM     27  N   UNL     1       6.399   4.154  15.063  0.00  0.00    +0.000 NA
ATOM     28  C   UNL     1       5.410   3.846  14.019  0.00  0.00    +0.000 C 
ATOM     29  C   UNL     1       6.212   3.481  12.774  0.00  0.00    +0.000 C 
ATOM     30  O   UNL     1       6.998   4.585  12.348  0.00  0.00    +0.000 OA
ATOM     31  C   UNL     1       7.898   4.988  13.373  0.00  0.00    +0.000 C 
ATOM     32  C   UNL     1       7.146   5.353  14.662  0.00  0.00    +0.000 C 
ENDBRANCH  26  27
ENDBRANCH  25  26
ENDBRANCH   4  25
TORSDOF 9
ENDMDL
MODEL 5
REMARK VINA RESULT:      -7.7      2.599      8.398
REMARK  Name = 
REMARK  10 active torsions:
REMARK  status: ('A' for Active; 'I' for Inactive)
REMARK    1  A    between atoms: C_1  and  C_2
REMARK    2  A    between atoms: C_7  and  O_8
REMARK    3  A    between atoms: O_8  and  C_9
REMARK    4  A    between atoms: C_9  and  C_10
REMARK    5  A    between atoms: C_10  and  O_11
REMARK    6  A    between atoms: C_10  and  C_12
REMARK    7  A    between atoms: C_12  and  N_13
REMARK    8  A    between atoms: N_16  and  C_17
REMARK    9  A    between atoms: C_17  and  C_18
REMARK   10  A    between atoms: C_18  and  N_19
REMARK                            x       y       z     vdW  Elec       q    Type
REMARK                         _______ _______ _______ _____ _____    ______ ____
ROOT
ATOM      1  N   UNL     1       2.572   6.321  19.213  0.00  0.00    +0.000 N 
ATOM      2  C   UNL     1       3.369   6.272  18.104  0.00  0.00    +0.000 A 
ATOM      3  N   UNL     1       3.984   7.284  17.603  0.00  0.00    +0.000 NA
ATOM      4  N   UNL     1       3.441   5.026  17.566  0.00  0.00    +0.000 N 
ATOM      5  C   UNL     1       2.660   4.264  18.370  0.00  0.00    +0.000 A 
ATOM      6  C   UNL     1       2.357   2.898  18.291  0.00  0.00    +0.000 A 
ATOM      7  C   UNL     1       1.482   2.360  19.255  0.00  0.00    +0.000 A 
ATOM      8  C   UNL     1       0.934   3.180  20.263  0.00  0.00    +0.000 A 
ATOM      9  C   UNL     1       1.260   4.543  20.330  0.00  0.00    +0.000 A 
ATOM     10  C   UNL     1       2.131   5.054  19.363  0.00  0.00    +0.000 A 
ATOM     11  H   UNL     1       3.930   8.227  18.010  0.00  0.00    +0.000 HD
ENDROOT
BRANCH   1  12
ATOM     12  C   UNL     1       2.207   7.476  20.055  0.00  0.00    +0.000 C 
BRANCH  12  13
ATOM     13  C   UNL     1       1.232   8.441  19.334  0.00  0.00    +0.000 C 
BRANCH  13  14
ATOM     14  O   UNL     1       1.909   9.175  18.343  0.00  0.00    +0.000 OA
ATOM     15  H   UNL     1       1.959   8.611  17.526  0.00  0.00    +0.000 HD
ENDBRANCH  13  14
BRANCH  13  16
ATOM     16  C   UNL     1       0.586   9.388  20.353  0.00  0.00    +0.000 C 
BRANCH  16  17
ATOM     17  O   UNL     1      -0.322  10.276  19.796  0.00  0.00    +0.000 OA
BRANCH  17  24
ATOM     18  C   UNL     1      -1.819  11.741  17.783  0.00  0.00    +0.000 C 
ATOM     19  C   UNL     1      -0.729  12.353  18.622  0.00  0.00    +0.000 A 
ATOM     20  C   UNL     1      -0.411  13.713  18.440  0.00  0.00    +0.000 A 
ATOM     21  C   UNL     1       0.595  14.319  19.195  0.00  0.00    +0.000 A 
ATOM     22  C   UNL     1       1.297  13.579  20.139  0.00  0.00    +0.000 A 
ATOM     23  C   UNL     1       0.998  12.237  20.336  0.00  0.00    +0.000 A 
ATOM     24  C   UNL     1      -0.021  11.595  19.588  0.00  0.00    +0.000 A 
ENDBRANCH  17  24
ENDBRANCH  16  17
ENDBRANCH  13  16
ENDBRANCH  12  13
ENDBRANCH   1  12
BRANCH   4  25
ATOM     25  C   UNL     1       4.203   4.606  16.369  0.00  0.00    +0.000 C 
BRANCH  25  26
ATOM     26  C   UNL     1       5.614   4.087  16.730  0.00  0.00    +0.000 C 
BRANCH  26  27
ATOM     27  N   UNL     1       6.356   5.132  17.448  0.00  0.00    +0.000 NA
ATOM     28  C   UNL     1       7.302   4.651  18.464  0.00  0.00    +0.000 C 
ATOM     29  C   UNL     1       7.627   5.856  19.342  0.00  0.00    +0.000 C 
ATOM     30  O   UNL     1       8.257   6.872  18.575  0.00  0.00    +0.000 OA
ATOM     31  C   UNL     1       7.416   7.294  17.509  0.00  0.00    +0.000 C 
ATOM     32  C   UNL     1       7.040   6.115  16.598  0.00  0.00    +0.000 C 
ENDBRANCH  26  27
ENDBRANCH  25  26
ENDBRANCH   4  25
TORSDOF 9
ENDMDL
MODEL 6
REMARK VINA RESULT:      -7.7      4.179     10.363
REMARK  Name = 
REMARK  10 active torsions:
REMARK  status: ('A' for Active; 'I' for Inactive)
REMARK    1  A    between atoms: C_1  and  C_2
REMARK    2  A    between atoms: C_7  and  O_8
REMARK    3  A    between atoms: O_8  and  C_9
REMARK    4  A    between atoms: C_9  and  C_10
REMARK    5  A    between atoms: C_10  and  O_11
REMARK    6  A    between atoms: C_10  and  C_12
REMARK    7  A    between atoms: C_12  and  N_13
REMARK    8  A    between atoms: N_16  and  C_17
REMARK    9  A    between atoms: C_17  and  C_18
REMARK   10  A    between atoms: C_18  and  N_19
REMARK                            x       y       z     vdW  Elec       q    Type
REMARK                         _______ _______ _______ _____ _____    ______ ____
ROOT
ATOM      1  N   UNL     1      -0.036  10.648  19.268  0.00  0.00    +0.000 N 
ATOM      2  C   UNL     1       0.817   9.640  18.913  0.00  0.00    +0.000 A 
ATOM      3  N   UNL     1       1.225   9.419  17.714  0.00  0.00    +0.000 NA
ATOM      4  N   UNL     1       1.190   8.873  19.971  0.00  0.00    +0.000 N 
ATOM      5  C   UNL     1       0.548   9.423  21.031  0.00  0.00    +0.000 A 
ATOM      6  C   UNL     1       0.555   9.040  22.379  0.00  0.00    +0.000 A 
ATOM      7  C   UNL     1      -0.237   9.780  23.279  0.00  0.00    +0.000 A 
ATOM      8  C   UNL     1      -1.009  10.869  22.826  0.00  0.00    +0.000 A 
ATOM      9  C   UNL     1      -0.992  11.242  21.472  0.00  0.00    +0.000 A 
ATOM     10  C   UNL     1      -0.198  10.493  20.599  0.00  0.00    +0.000 A 
ATOM     11  H   UNL     1       0.943   9.999  16.913  0.00  0.00    +0.000 HD
ENDROOT
BRANCH   1  12
ATOM     12  C   UNL     1      -0.692  11.662  18.422  0.00  0.00    +0.000 C 
BRANCH  12  13
ATOM     13  C   UNL     1      -1.706  11.032  17.432  0.00  0.00    +0.000 C 
BRANCH  13  14
ATOM     14  O   UNL     1      -2.007  11.935  16.397  0.00  0.00    +0.000 OA
ATOM     15  H   UNL     1      -1.149  12.266  16.019  0.00  0.00    +0.000 HD
ENDBRANCH  13  14
BRANCH  13  16
ATOM     16  C   UNL     1      -2.982  10.629  18.179  0.00  0.00    +0.000 C 
BRANCH  16  17
ATOM     17  O   UNL     1      -3.964  11.609  18.179  0.00  0.00    +0.000 OA
BRANCH  17  24
ATOM     18  C   UNL     1      -6.786  10.981  18.472  0.00  0.00    +0.000 C 
ATOM     19  C   UNL     1      -5.981  11.711  19.513  0.00  0.00    +0.000 A 
ATOM     20  C   UNL     1      -6.613  12.110  20.707  0.00  0.00    +0.000 A 
ATOM     21  C   UNL     1      -5.904  12.791  21.698  0.00  0.00    +0.000 A 
ATOM     22  C   UNL     1      -4.558  13.085  21.514  0.00  0.00    +0.000 A 
ATOM     23  C   UNL     1      -3.914  12.698  20.345  0.00  0.00    +0.000 A 
ATOM     24  C   UNL     1      -4.607  12.001  19.322  0.00  0.00    +0.000 A 
ENDBRANCH  17  24
ENDBRANCH  16  17
ENDBRANCH  13  16
ENDBRANCH  12  13
ENDBRANCH   1  12
BRANCH   4  25
ATOM     25  C   UNL     1       2.094   7.702  19.959  0.00  0.00    +0.000 C 
BRANCH  25  26
ATOM     26  C   UNL     1       1.477   6.483  20.681  0.00  0.00    +0.000 C 
BRANCH  26  27
ATOM     27  N   UNL     1       2.317   5.299  20.456  0.00  0.00    +0.000 NA
ATOM     28  C   UNL     1       1.647   4.004  20.646  0.00  0.00    +0.000 C 
ATOM     29  C   UNL     1       2.760   2.969  20.778  0.00  0.00    +0.000 C 
ATOM     30  O   UNL     1       3.531   2.915  19.587  0.00  0.00    +0.000 OA
ATOM     31  C   UNL     1       4.112   4.181  19.304  0.00  0.00    +0.000 C 
ATOM     32  C   UNL     1       3.037   5.271  19.176  0.00  0.00    +0.000 C 
ENDBRANCH  26  27
ENDBRANCH  25  26
ENDBRANCH   4  25
TORSDOF 9
ENDMDL
MODEL 7
REMARK VINA RESULT:      -7.7      3.734      6.721
REMARK  Name = 
REMARK  10 active torsions:
REMARK  status: ('A' for Active; 'I' for Inactive)
REMARK    1  A    between atoms: C_1  and  C_2
REMARK    2  A    between atoms: C_7  and  O_8
REMARK    3  A    between atoms: O_8  and  C_9
REMARK    4  A    between atoms: C_9  and  C_10
REMARK    5  A    between atoms: C_10  and  O_11
REMARK    6  A    between atoms: C_10  and  C_12
REMARK    7  A    between atoms: C_12  and  N_13
REMARK    8  A    between atoms: N_16  and  C_17
REMARK    9  A    between atoms: C_17  and  C_18
REMARK   10  A    between atoms: C_18  and  N_19
REMARK                            x       y       z     vdW  Elec       q    Type
REMARK                         _______ _______ _______ _____ _____    ______ ____
ROOT
ATOM      1  N   UNL     1      -0.390  10.721  19.105  0.00  0.00    +0.000 N 
ATOM      2  C   UNL     1      -0.997  11.939  18.973  0.00  0.00    +0.000 A 
ATOM      3  N   UNL     1      -1.122  12.574  17.861  0.00  0.00    +0.000 NA
ATOM      4  N   UNL     1      -1.456  12.426  20.155  0.00  0.00    +0.000 N 
ATOM      5  C   UNL     1      -1.125  11.476  21.064  0.00  0.00    +0.000 A 
ATOM      6  C   UNL     1      -1.344  11.447  22.448  0.00  0.00    +0.000 A 
ATOM      7  C   UNL     1      -0.864  10.335  23.168  0.00  0.00    +0.000 A 
ATOM      8  C   UNL     1      -0.186   9.290  22.506  0.00  0.00    +0.000 A 
ATOM      9  C   UNL     1       0.011   9.336  21.117  0.00  0.00    +0.000 A 
ATOM     10  C   UNL     1      -0.474  10.448  20.424  0.00  0.00    +0.000 A 
ATOM     11  H   UNL     1      -0.775  12.205  16.966  0.00  0.00    +0.000 HD
ENDROOT
BRANCH   1  12
ATOM     12  C   UNL     1       0.264   9.883  18.082  0.00  0.00    +0.000 C 
BRANCH  12  13
ATOM     13  C   UNL     1       1.810   9.959  18.165  0.00  0.00    +0.000 C 
BRANCH  13  14
ATOM     14  O   UNL     1       2.296  11.003  17.358  0.00  0.00    +0.000 OA
ATOM     15  H   UNL     1       2.368  11.818  17.923  0.00  0.00    +0.000 HD
ENDBRANCH  13  14
BRANCH  13  16
ATOM     16  C   UNL     1       2.422   8.621  17.733  0.00  0.00    +0.000 C 
BRANCH  16  17
ATOM     17  O   UNL     1       2.260   7.604  18.662  0.00  0.00    +0.000 OA
BRANCH  17  24
ATOM     18  C   UNL     1       1.686   5.538  20.623  0.00  0.00    +0.000 C 
ATOM     19  C   UNL     1       2.628   5.350  19.464  0.00  0.00    +0.000 A 
ATOM     20  C   UNL     1       3.267   4.107  19.299  0.00  0.00    +0.000 A 
ATOM     21  C   UNL     1       4.150   3.890  18.240  0.00  0.00    +0.000 A 
ATOM     22  C   UNL     1       4.407   4.909  17.331  0.00  0.00    +0.000 A 
ATOM     23  C   UNL     1       3.785   6.144  17.472  0.00  0.00    +0.000 A 
ATOM     24  C   UNL     1       2.881   6.392  18.536  0.00  0.00    +0.000 A 
ENDBRANCH  17  24
ENDBRANCH  16  17
ENDBRANCH  13  16
ENDBRANCH  12  13
ENDBRANCH   1  12
BRANCH   4  25
ATOM     25  C   UNL     1      -2.157  13.708  20.388  0.00  0.00    +0.000 C 
BRANCH  25  26
ATOM     26  C   UNL     1      -1.198  14.812  20.892  0.00  0.00    +0.000 C 
BRANCH  26  27
ATOM     27  N   UNL     1      -1.633  15.275  22.217  0.00  0.00    +0.000 NA
ATOM     28  C   UNL     1      -3.002  14.901  22.600  0.00  0.00    +0.000 C 
ATOM     29  C   UNL     1      -3.375  15.808  23.768  0.00  0.00    +0.000 C 
ATOM     30  O   UNL     1      -2.512  15.575  24.872  0.00  0.00    +0.000 OA
ATOM     31  C   UNL     1      -1.158  15.821  24.514  0.00  0.00    +0.000 C 
ATOM     32  C   UNL     1      -0.729  14.945  23.327  0.00  0.00    +0.000 C 
ENDBRANCH  26  27
ENDBRANCH  25  26
ENDBRANCH   4  25
TORSDOF 9
ENDMDL
MODEL 8
REMARK VINA RESULT:      -7.7      3.586      6.485
REMARK  Name = 
REMARK  10 active torsions:
REMARK  status: ('A' for Active; 'I' for Inactive)
REMARK    1  A    between atoms: C_1  and  C_2
REMARK    2  A    between atoms: C_7  and  O_8
REMARK    3  A    between atoms: O_8  and  C_9
REMARK    4  A    between atoms: C_9  and  C_10
REMARK    5  A    between atoms: C_10  and  O_11
REMARK    6  A    between atoms: C_10  and  C_12
REMARK    7  A    between atoms: C_12  and  N_13
REMARK    8  A    between atoms: N_16  and  C_17
REMARK    9  A    between atoms: C_17  and  C_18
REMARK   10  A    between atoms: C_18  and  N_19
REMARK                            x       y       z     vdW  Elec       q    Type
REMARK                         _______ _______ _______ _____ _____    ______ ____
ROOT
ATOM      1  N   UNL     1       0.444  10.350  19.542  0.00  0.00    +0.000 N 
ATOM      2  C   UNL     1       0.266  11.203  20.596  0.00  0.00    +0.000 A 
ATOM      3  N   UNL     1       1.112  11.369  21.550  0.00  0.00    +0.000 NA
ATOM      4  N   UNL     1      -0.920  11.864  20.540  0.00  0.00    +0.000 N 
ATOM      5  C   UNL     1      -1.508  11.409  19.406  0.00  0.00    +0.000 A 
ATOM      6  C   UNL     1      -2.751  11.738  18.848  0.00  0.00    +0.000 A 
ATOM      7  C   UNL     1      -3.134  11.085  17.660  0.00  0.00    +0.000 A 
ATOM      8  C   UNL     1      -2.284  10.132  17.060  0.00  0.00    +0.000 A 
ATOM      9  C   UNL     1      -1.039   9.827  17.630  0.00  0.00    +0.000 A 
ATOM     10  C   UNL     1      -0.681  10.488  18.809  0.00  0.00    +0.000 A 
ATOM     11  H   UNL     1       2.010  10.869  21.592  0.00  0.00    +0.000 HD
ENDROOT
BRANCH   1  12
ATOM     12  C   UNL     1       1.565   9.435  19.256  0.00  0.00    +0.000 C 
BRANCH  12  13
ATOM     13  C   UNL     1       1.469   8.119  20.070  0.00  0.00    +0.000 C 
BRANCH  13  14
ATOM     14  O   UNL     1       1.636   8.378  21.443  0.00  0.00    +0.000 OA
ATOM     15  H   UNL     1       2.437   7.877  21.753  0.00  0.00    +0.000 HD
ENDBRANCH  13  14
BRANCH  13  16
ATOM     16  C   UNL     1       2.527   7.124  19.581  0.00  0.00    +0.000 C 
BRANCH  16  17
ATOM     17  O   UNL     1       2.231   6.550  18.353  0.00  0.00    +0.000 OA
BRANCH  17  24
ATOM     18  C   UNL     1       4.637   5.796  16.909  0.00  0.00    +0.000 C 
ATOM     19  C   UNL     1       3.613   4.807  17.399  0.00  0.00    +0.000 A 
ATOM     20  C   UNL     1       3.821   3.435  17.161  0.00  0.00    +0.000 A 
ATOM     21  C   UNL     1       2.896   2.485  17.596  0.00  0.00    +0.000 A 
ATOM     22  C   UNL     1       1.751   2.888  18.273  0.00  0.00    +0.000 A 
ATOM     23  C   UNL     1       1.526   4.237  18.520  0.00  0.00    +0.000 A 
ATOM     24  C   UNL     1       2.450   5.225  18.094  0.00  0.00    +0.000 A 
ENDBRANCH  17  24
ENDBRANCH  16  17
ENDBRANCH  13  16
ENDBRANCH  12  13
ENDBRANCH   1  12
BRANCH   4  25
ATOM     25  C   UNL     1      -1.444  12.855  21.505  0.00  0.00    +0.000 C 
BRANCH  25  26
ATOM     26  C   UNL     1      -2.210  12.185  22.669  0.00  0.00    +0.000 C 
BRANCH  26  27
ATOM     27  N   UNL     1      -3.472  12.899  22.905  0.00  0.00    +0.000 NA
ATOM     28  C   UNL     1      -4.175  12.546  24.146  0.00  0.00    +0.000 C 
ATOM     29  C   UNL     1      -5.602  13.062  23.984  0.00  0.00    +0.000 C 
ATOM     30  O   UNL     1      -5.605  14.475  23.843  0.00  0.00    +0.000 OA
ATOM     31  C   UNL     1      -4.842  14.870  22.710  0.00  0.00    +0.000 C 
ATOM     32  C   UNL     1      -3.395  14.363  22.809  0.00  0.00    +0.000 C 
ENDBRANCH  26  27
ENDBRANCH  25  26
ENDBRANCH   4  25
TORSDOF 9
ENDMDL
MODEL 9
REMARK VINA RESULT:      -7.6      4.427      7.146
REMARK  Name = 
REMARK  10 active torsions:
REMARK  status: ('A' for Active; 'I' for Inactive)
REMARK    1  A    between atoms: C_1  and  C_2
REMARK    2  A    between atoms: C_7  and  O_8
REMARK    3  A    between atoms: O_8  and  C_9
REMARK    4  A    between atoms: C_9  and  C_10
REMARK    5  A    between atoms: C_10  and  O_11
REMARK    6  A    between atoms: C_10  and  C_12
REMARK    7  A    between atoms: C_12  and  N_13
REMARK    8  A    between atoms: N_16  and  C_17
REMARK    9  A    between atoms: C_17  and  C_18
REMARK   10  A    between atoms: C_18  and  N_19
REMARK                            x       y       z     vdW  Elec       q    Type
REMARK                         _______ _______ _______ _____ _____    ______ ____
ROOT
ATOM      1  N   UNL     1       0.179  10.305  19.672  0.00  0.00    +0.000 N 
ATOM      2  C   UNL     1      -0.194  11.130  20.696  0.00  0.00    +0.000 A 
ATOM      3  N   UNL     1       0.495  11.321  21.765  0.00  0.00    +0.000 NA
ATOM      4  N   UNL     1      -1.391  11.733  20.474  0.00  0.00    +0.000 N 
ATOM      5  C   UNL     1      -1.784  11.269  19.261  0.00  0.00    +0.000 A 
ATOM      6  C   UNL     1      -2.947  11.546  18.531  0.00  0.00    +0.000 A 
ATOM      7  C   UNL     1      -3.119  10.895  17.293  0.00  0.00    +0.000 A 
ATOM      8  C   UNL     1      -2.144   9.996  16.815  0.00  0.00    +0.000 A 
ATOM      9  C   UNL     1      -0.981   9.743  17.558  0.00  0.00    +0.000 A 
ATOM     10  C   UNL     1      -0.832  10.400  18.783  0.00  0.00    +0.000 A 
ATOM     11  H   UNL     1       1.401  10.866  21.934  0.00  0.00    +0.000 HD
ENDROOT
BRANCH   1  12
ATOM     12  C   UNL     1       1.375   9.451  19.544  0.00  0.00    +0.000 C 
BRANCH  12  13
ATOM     13  C   UNL     1       1.296   8.195  20.449  0.00  0.00    +0.000 C 
BRANCH  13  14
ATOM     14  O   UNL     1       1.699   8.509  21.760  0.00  0.00    +0.000 OA
ATOM     15  H   UNL     1       1.405   9.438  21.956  0.00  0.00    +0.000 HD
ENDBRANCH  13  14
BRANCH  13  16
ATOM     16  C   UNL     1       2.177   7.081  19.872  0.00  0.00    +0.000 C 
BRANCH  16  17
ATOM     17  O   UNL     1       1.880   5.820  20.367  0.00  0.00    +0.000 OA
BRANCH  17  24
ATOM     18  C   UNL     1       1.822   3.232  21.688  0.00  0.00    +0.000 C 
ATOM     19  C   UNL     1       1.947   3.406  20.198  0.00  0.00    +0.000 A 
ATOM     20  C   UNL     1       2.032   2.261  19.382  0.00  0.00    +0.000 A 
ATOM     21  C   UNL     1       2.151   2.377  17.996  0.00  0.00    +0.000 A 
ATOM     22  C   UNL     1       2.189   3.634  17.405  0.00  0.00    +0.000 A 
ATOM     23  C   UNL     1       2.105   4.777  18.190  0.00  0.00    +0.000 A 
ATOM     24  C   UNL     1       1.978   4.691  19.600  0.00  0.00    +0.000 A 
ENDBRANCH  17  24
ENDBRANCH  16  17
ENDBRANCH  13  16
ENDBRANCH  12  13
ENDBRANCH   1  12
BRANCH   4  25
ATOM     25  C   UNL     1      -2.100  12.680  21.361  0.00  0.00    +0.000 C 
BRANCH  25  26
ATOM     26  C   UNL     1      -1.739  14.151  21.050  0.00  0.00    +0.000 C 
BRANCH  26  27
ATOM     27  N   UNL     1      -1.678  14.920  22.301  0.00  0.00    +0.000 NA
ATOM     28  C   UNL     1      -1.093  14.212  23.449  0.00  0.00    +0.000 C 
ATOM     29  C   UNL     1      -1.505  15.003  24.686  0.00  0.00    +0.000 C 
ATOM     30  O   UNL     1      -0.967  16.317  24.636  0.00  0.00    +0.000 OA
ATOM     31  C   UNL     1      -1.423  17.005  23.478  0.00  0.00    +0.000 C 
ATOM     32  C   UNL     1      -1.050  16.244  22.197  0.00  0.00    +0.000 C 
ENDBRANCH  26  27
ENDBRANCH  25  26
ENDBRANCH   4  25
TORSDOF 9
ENDMDL
