MODEL 1
REMARK VINA RESULT:      -8.1      0.000      0.000
REMARK  Name = 
REMARK  8 active torsions:
REMARK  status: ('A' for Active; 'I' for Inactive)
REMARK    1  A    between atoms: N_1  and  C_2
REMARK    2  A    between atoms: C_2  and  C_3
REMARK    3  A    between atoms: C_3  and  C_4
REMARK    4  A    between atoms: C_4  and  N_5
REMARK    5  A    between atoms: C_4  and  C_29
REMARK    6  A    between atoms: C_10  and  C_11
REMARK    7  A    between atoms: N_16  and  C_17
REMARK    8  A    between atoms: C_20  and  N_21
REMARK                            x       y       z     vdW  Elec       q    Type
REMARK                         _______ _______ _______ _____ _____    ______ ____
ROOT
ATOM      1  N   UNL     1      -2.824  12.458  21.522  0.00  0.00    +0.000 N 
ATOM      2  C   UNL     1      -1.832  12.700  20.574  0.00  0.00    +0.000 A 
ATOM      3  N   UNL     1      -1.552  13.937  20.152  0.00  0.00    +0.000 NA
ATOM      4  C   UNL     1      -0.530  14.066  19.283  0.00  0.00    +0.000 A 
ATOM      5  C   UNL     1       0.229  13.013  18.833  0.00  0.00    +0.000 A 
ATOM      6  C   UNL     1      -0.123  11.777  19.325  0.00  0.00    +0.000 A 
ATOM      7  N   UNL     1      -1.157  11.613  20.178  0.00  0.00    +0.000 NA
ATOM      8  H   UNL     1      -3.018  11.467  21.430  0.00  0.00    +0.000 HD
ENDROOT
BRANCH   6   9
ATOM      9  C   UNL     1       0.600  10.550  18.986  0.00  0.00    +0.000 A 
ATOM     10  C   UNL     1       1.163  10.123  17.786  0.00  0.00    +0.000 A 
ATOM     11  N   UNL     1       1.805   8.912  17.904  0.00  0.00    +0.000 NA
ATOM     12  C   UNL     1       1.635   8.587  19.168  0.00  0.00    +0.000 A 
ATOM     13  C   UNL     1       2.117   7.387  19.850  0.00  0.00    +0.000 A 
ATOM     14  N   UNL     1       2.904   6.456  19.197  0.00  0.00    +0.000 N 
ATOM     15  N   UNL     1       1.790   7.191  21.111  0.00  0.00    +0.000 NA
ATOM     16  C   UNL     1       1.027   8.139  21.758  0.00  0.00    +0.000 A 
ATOM     17  C   UNL     1       0.594   9.275  21.192  0.00  0.00    +0.000 A 
ATOM     18  N   UNL     1       0.891   9.512  19.861  0.00  0.00    +0.000 N 
ATOM     19  H   UNL     1       3.044   6.655  18.209  0.00  0.00    +0.000 HD
BRANCH  14  20
ATOM     20  C   UNL     1       2.978   5.063  19.618  0.00  0.00    +0.000 C 
ATOM     21  C   UNL     1       1.663   4.331  19.311  0.00  0.00    +0.000 C 
ATOM     22  C   UNL     1       1.480   4.048  17.819  0.00  0.00    +0.000 C 
ATOM     23  C   UNL     1       2.661   3.278  17.220  0.00  0.00    +0.000 C 
ATOM     24  C   UNL     1       3.971   4.029  17.485  0.00  0.00    +0.000 C 
ATOM     25  C   UNL     1       4.185   4.374  18.962  0.00  0.00    +0.000 C 
BRANCH  23  26
ATOM     26  N   UNL     1       2.706   1.915  17.747  0.00  0.00    +0.000 NA
ATOM     27  H   UNL     1       2.641   1.225  17.000  0.00  0.00    +0.000 HD
ATOM     28  H   UNL     1       1.906   1.749  18.355  0.00  0.00    +0.000 HD
ENDBRANCH  23  26
ENDBRANCH  14  20
ENDBRANCH   6   9
BRANCH   1  29
ATOM     29  C   UNL     1      -4.010  13.307  21.458  0.00  0.00    +0.000 C 
BRANCH  29  30
ATOM     30  C   UNL     1      -5.097  12.590  20.654  0.00  0.00    +0.000 A 
ATOM     31  C   UNL     1      -6.314  12.260  21.261  0.00  0.00    +0.000 A 
ATOM     32  C   UNL     1      -7.309  11.596  20.537  0.00  0.00    +0.000 A 
ATOM     33  C   UNL     1      -7.099  11.267  19.197  0.00  0.00    +0.000 A 
ATOM     34  C   UNL     1      -5.898  11.599  18.578  0.00  0.00    +0.000 A 
ATOM     35  C   UNL     1      -4.904  12.255  19.300  0.00  0.00    +0.000 A 
ENDBRANCH  29  30
BRANCH  29  36
ATOM     36  C   UNL     1      -4.545  13.633  22.876  0.00  0.00    +0.000 C 
BRANCH  36  37
ATOM     37  C   UNL     1      -3.875  12.823  23.987  0.00  0.00    +0.000 C 
BRANCH  37  38
ATOM     38  N   UNL     1      -4.841  11.919  24.621  0.00  0.00    +0.000 NA
ATOM     39  H   UNL     1      -4.574  10.955  24.421  0.00  0.00    +0.000 HD
ATOM     40  H   UNL     1      -5.760  12.045  24.197  0.00  0.00    +0.000 HD
ENDBRANCH  37  38
ENDBRANCH  36  37
ENDBRANCH  29  36
ENDBRANCH   1  29
TORSDOF 8
ENDMDL
MODEL 2
REMARK VINA RESULT:      -8.1      1.048      1.586
REMARK  Name = 
REMARK  8 active torsions:
REMARK  status: ('A' for Active; 'I' for Inactive)
REMARK    1  A    between atoms: N_1  and  C_2
REMARK    2  A    between atoms: C_2  and  C_3
REMARK    3  A    between atoms: C_3  and  C_4
REMARK    4  A    between atoms: C_4  and  N_5
REMARK    5  A    between atoms: C_4  and  C_29
REMARK    6  A    between atoms: C_10  and  C_11
REMARK    7  A    between atoms: N_16  and  C_17
REMARK    8  A    between atoms: C_20  and  N_21
REMARK                            x       y       z     vdW  Elec       q    Type
REMARK                         _______ _______ _______ _____ _____    ______ ____
ROOT
ATOM      1  N   UNL     1      -2.622  12.467  20.739  0.00  0.00    +0.000 N 
ATOM      2  C   UNL     1      -1.481  12.661  19.962  0.00  0.00    +0.000 A 
ATOM      3  N   UNL     1      -1.085  13.883  19.591  0.00  0.00    +0.000 NA
ATOM      4  C   UNL     1       0.069  13.964  18.899  0.00  0.00    +0.000 A 
ATOM      5  C   UNL     1       0.846  12.878  18.577  0.00  0.00    +0.000 A 
ATOM      6  C   UNL     1       0.367  11.660  19.005  0.00  0.00    +0.000 A 
ATOM      7  N   UNL     1      -0.796  11.545  19.680  0.00  0.00    +0.000 NA
ATOM      8  H   UNL     1      -2.840  11.485  20.616  0.00  0.00    +0.000 HD
ENDROOT
BRANCH   6   9
ATOM      9  C   UNL     1       1.084  10.402  18.788  0.00  0.00    +0.000 A 
ATOM     10  C   UNL     1       1.854   9.964  17.713  0.00  0.00    +0.000 A 
ATOM     11  N   UNL     1       2.400   8.720  17.928  0.00  0.00    +0.000 NA
ATOM     12  C   UNL     1       1.966   8.386  19.125  0.00  0.00    +0.000 A 
ATOM     13  C   UNL     1       2.243   7.154  19.859  0.00  0.00    +0.000 A 
ATOM     14  N   UNL     1       3.100   6.192  19.353  0.00  0.00    +0.000 N 
ATOM     15  N   UNL     1       1.662   6.957  21.025  0.00  0.00    +0.000 NA
ATOM     16  C   UNL     1       0.832   7.934  21.531  0.00  0.00    +0.000 A 
ATOM     17  C   UNL     1       0.576   9.099  20.917  0.00  0.00    +0.000 A 
ATOM     18  N   UNL     1       1.144   9.339  19.678  0.00  0.00    +0.000 N 
ATOM     19  H   UNL     1       3.443   6.397  18.418  0.00  0.00    +0.000 HD
BRANCH  14  20
ATOM     20  C   UNL     1       3.021   4.791  19.748  0.00  0.00    +0.000 C 
ATOM     21  C   UNL     1       1.653   4.198  19.377  0.00  0.00    +0.000 C 
ATOM     22  C   UNL     1       1.501   3.961  17.874  0.00  0.00    +0.000 C 
ATOM     23  C   UNL     1       2.624   3.089  17.302  0.00  0.00    +0.000 C 
ATOM     24  C   UNL     1       3.990   3.703  17.631  0.00  0.00    +0.000 C 
ATOM     25  C   UNL     1       4.179   3.998  19.121  0.00  0.00    +0.000 C 
BRANCH  23  26
ATOM     26  N   UNL     1       2.514   1.719  17.801  0.00  0.00    +0.000 NA
ATOM     27  H   UNL     1       2.935   1.053  17.154  0.00  0.00    +0.000 HD
ATOM     28  H   UNL     1       1.534   1.453  17.882  0.00  0.00    +0.000 HD
ENDBRANCH  23  26
ENDBRANCH  14  20
ENDBRANCH   6   9
BRANCH   1  29
ATOM     29  C   UNL     1      -3.745  13.364  20.483  0.00  0.00    +0.000 C 
BRANCH  29  30
ATOM     30  C   UNL     1      -4.971  12.535  20.094  0.00  0.00    +0.000 A 
ATOM     31  C   UNL     1      -5.039  11.939  18.830  0.00  0.00    +0.000 A 
ATOM     32  C   UNL     1      -6.161  11.187  18.462  0.00  0.00    +0.000 A 
ATOM     33  C   UNL     1      -7.216  11.018  19.359  0.00  0.00    +0.000 A 
ATOM     34  C   UNL     1      -7.155  11.596  20.623  0.00  0.00    +0.000 A 
ATOM     35  C   UNL     1      -6.042  12.349  20.989  0.00  0.00    +0.000 A 
ENDBRANCH  29  30
BRANCH  29  36
ATOM     36  C   UNL     1      -4.075  14.220  21.734  0.00  0.00    +0.000 C 
BRANCH  36  37
ATOM     37  C   UNL     1      -4.064  15.726  21.467  0.00  0.00    +0.000 C 
BRANCH  37  38
ATOM     38  N   UNL     1      -3.201  16.041  20.325  0.00  0.00    +0.000 NA
ATOM     39  H   UNL     1      -3.765  16.474  19.593  0.00  0.00    +0.000 HD
ATOM     40  H   UNL     1      -2.837  15.179  19.919  0.00  0.00    +0.000 HD
ENDBRANCH  37  38
ENDBRANCH  36  37
ENDBRANCH  29  36
ENDBRANCH   1  29
TORSDOF 8
ENDMDL
MODEL 3
REMARK VINA RESULT:      -8.0      1.123      2.125
REMARK  Name = 
REMARK  8 active torsions:
REMARK  status: ('A' for Active; 'I' for Inactive)
REMARK    1  A    between atoms: N_1  and  C_2
REMARK    2  A    between atoms: C_2  and  C_3
REMARK    3  A    between atoms: C_3  and  C_4
REMARK    4  A    between atoms: C_4  and  N_5
REMARK    5  A    between atoms: C_4  and  C_29
REMARK    6  A    between atoms: C_10  and  C_11
REMARK    7  A    between atoms: N_16  and  C_17
REMARK    8  A    between atoms: C_20  and  N_21
REMARK                            x       y       z     vdW  Elec       q    Type
REMARK                         _______ _______ _______ _____ _____    ______ ____
ROOT
ATOM      1  N   UNL     1      -3.368  12.554  22.189  0.00  0.00    +0.000 N 
ATOM      2  C   UNL     1      -2.052  12.669  21.747  0.00  0.00    +0.000 A 
ATOM      3  N   UNL     1      -1.475  13.861  21.565  0.00  0.00    +0.000 NA
ATOM      4  C   UNL     1      -0.177  13.859  21.200  0.00  0.00    +0.000 A 
ATOM      5  C   UNL     1       0.567  12.717  21.026  0.00  0.00    +0.000 A 
ATOM      6  C   UNL     1      -0.105  11.535  21.243  0.00  0.00    +0.000 A 
ATOM      7  N   UNL     1      -1.410  11.504  21.586  0.00  0.00    +0.000 NA
ATOM      8  H   UNL     1      -3.625  11.601  21.956  0.00  0.00    +0.000 HD
ENDROOT
BRANCH   6   9
ATOM      9  C   UNL     1       0.541  10.224  21.143  0.00  0.00    +0.000 A 
ATOM     10  C   UNL     1       0.773   9.245  22.105  0.00  0.00    +0.000 A 
ATOM     11  N   UNL     1       1.374   8.123  21.583  0.00  0.00    +0.000 NA
ATOM     12  C   UNL     1       1.518   8.407  20.306  0.00  0.00    +0.000 A 
ATOM     13  C   UNL     1       2.104   7.563  19.268  0.00  0.00    +0.000 A 
ATOM     14  N   UNL     1       2.527   6.274  19.543  0.00  0.00    +0.000 N 
ATOM     15  N   UNL     1       2.233   8.042  18.047  0.00  0.00    +0.000 NA
ATOM     16  C   UNL     1       1.784   9.317  17.780  0.00  0.00    +0.000 A 
ATOM     17  C   UNL     1       1.203  10.118  18.685  0.00  0.00    +0.000 A 
ATOM     18  N   UNL     1       1.069   9.668  19.987  0.00  0.00    +0.000 N 
ATOM     19  H   UNL     1       2.455   6.018  20.524  0.00  0.00    +0.000 HD
BRANCH  14  20
ATOM     20  C   UNL     1       3.543   5.598  18.745  0.00  0.00    +0.000 C 
ATOM     21  C   UNL     1       4.349   4.618  19.610  0.00  0.00    +0.000 C 
ATOM     22  C   UNL     1       3.556   3.363  19.974  0.00  0.00    +0.000 C 
ATOM     23  C   UNL     1       3.001   2.641  18.742  0.00  0.00    +0.000 C 
ATOM     24  C   UNL     1       2.157   3.606  17.900  0.00  0.00    +0.000 C 
ATOM     25  C   UNL     1       2.892   4.900  17.540  0.00  0.00    +0.000 C 
BRANCH  23  26
ATOM     26  N   UNL     1       4.088   2.053  17.959  0.00  0.00    +0.000 NA
ATOM     27  H   UNL     1       3.941   2.188  16.960  0.00  0.00    +0.000 HD
ATOM     28  H   UNL     1       4.118   1.045  18.106  0.00  0.00    +0.000 HD
ENDBRANCH  23  26
ENDBRANCH  14  20
ENDBRANCH   6   9
BRANCH   1  29
ATOM     29  C   UNL     1      -4.309  13.560  21.706  0.00  0.00    +0.000 C 
BRANCH  29  30
ATOM     30  C   UNL     1      -5.414  12.870  20.904  0.00  0.00    +0.000 A 
ATOM     31  C   UNL     1      -5.339  12.821  19.508  0.00  0.00    +0.000 A 
ATOM     32  C   UNL     1      -6.349  12.200  18.765  0.00  0.00    +0.000 A 
ATOM     33  C   UNL     1      -7.437  11.616  19.415  0.00  0.00    +0.000 A 
ATOM     34  C   UNL     1      -7.520  11.649  20.803  0.00  0.00    +0.000 A 
ATOM     35  C   UNL     1      -6.517  12.271  21.543  0.00  0.00    +0.000 A 
ENDBRANCH  29  30
BRANCH  29  36
ATOM     36  C   UNL     1      -4.940  14.350  22.883  0.00  0.00    +0.000 C 
BRANCH  36  37
ATOM     37  C   UNL     1      -4.315  14.031  24.241  0.00  0.00    +0.000 C 
BRANCH  37  38
ATOM     38  N   UNL     1      -4.877  12.791  24.789  0.00  0.00    +0.000 NA
ATOM     39  H   UNL     1      -4.123  12.237  25.195  0.00  0.00    +0.000 HD
ATOM     40  H   UNL     1      -5.261  12.224  24.034  0.00  0.00    +0.000 HD
ENDBRANCH  37  38
ENDBRANCH  36  37
ENDBRANCH  29  36
ENDBRANCH   1  29
TORSDOF 8
ENDMDL
MODEL 4
REMARK VINA RESULT:      -7.9      1.515      2.497
REMARK  Name = 
REMARK  8 active torsions:
REMARK  status: ('A' for Active; 'I' for Inactive)
REMARK    1  A    between atoms: N_1  and  C_2
REMARK    2  A    between atoms: C_2  and  C_3
REMARK    3  A    between atoms: C_3  and  C_4
REMARK    4  A    between atoms: C_4  and  N_5
REMARK    5  A    between atoms: C_4  and  C_29
REMARK    6  A    between atoms: C_10  and  C_11
REMARK    7  A    between atoms: N_16  and  C_17
REMARK    8  A    between atoms: C_20  and  N_21
REMARK                            x       y       z     vdW  Elec       q    Type
REMARK                         _______ _______ _______ _____ _____    ______ ____
ROOT
ATOM      1  N   UNL     1      -2.753  12.639  23.063  0.00  0.00    +0.000 N 
ATOM      2  C   UNL     1      -1.578  12.675  22.316  0.00  0.00    +0.000 A 
ATOM      3  N   UNL     1      -1.019  13.830  21.943  0.00  0.00    +0.000 NA
ATOM      4  C   UNL     1       0.153  13.753  21.281  0.00  0.00    +0.000 A 
ATOM      5  C   UNL     1       0.792  12.572  20.992  0.00  0.00    +0.000 A 
ATOM      6  C   UNL     1       0.150  11.432  21.420  0.00  0.00    +0.000 A 
ATOM      7  N   UNL     1      -1.035  11.476  22.064  0.00  0.00    +0.000 NA
ATOM      8  H   UNL     1      -3.093  11.691  22.945  0.00  0.00    +0.000 HD
ENDROOT
BRANCH   6   9
ATOM      9  C   UNL     1       0.704  10.089  21.234  0.00  0.00    +0.000 A 
ATOM     10  C   UNL     1       0.906   9.051  22.140  0.00  0.00    +0.000 A 
ATOM     11  N   UNL     1       1.413   7.921  21.544  0.00  0.00    +0.000 NA
ATOM     12  C   UNL     1       1.532   8.258  20.277  0.00  0.00    +0.000 A 
ATOM     13  C   UNL     1       2.026   7.430  19.179  0.00  0.00    +0.000 A 
ATOM     14  N   UNL     1       2.373   6.105  19.377  0.00  0.00    +0.000 N 
ATOM     15  N   UNL     1       2.144   7.959  17.979  0.00  0.00    +0.000 NA
ATOM     16  C   UNL     1       1.770   9.272  17.788  0.00  0.00    +0.000 A 
ATOM     17  C   UNL     1       1.274  10.063  18.751  0.00  0.00    +0.000 A 
ATOM     18  N   UNL     1       1.155   9.558  20.034  0.00  0.00    +0.000 N 
ATOM     19  H   UNL     1       2.318   5.805  20.347  0.00  0.00    +0.000 HD
BRANCH  14  20
ATOM     20  C   UNL     1       3.315   5.406  18.511  0.00  0.00    +0.000 C 
ATOM     21  C   UNL     1       4.338   4.620  19.344  0.00  0.00    +0.000 C 
ATOM     22  C   UNL     1       3.738   3.369  19.988  0.00  0.00    +0.000 C 
ATOM     23  C   UNL     1       3.074   2.444  18.963  0.00  0.00    +0.000 C 
ATOM     24  C   UNL     1       2.018   3.215  18.161  0.00  0.00    +0.000 C 
ATOM     25  C   UNL     1       2.558   4.500  17.527  0.00  0.00    +0.000 C 
BRANCH  23  26
ATOM     26  N   UNL     1       4.078   1.839  18.090  0.00  0.00    +0.000 NA
ATOM     27  H   UNL     1       4.381   2.489  17.366  0.00  0.00    +0.000 HD
ATOM     28  H   UNL     1       3.681   1.038  17.601  0.00  0.00    +0.000 HD
ENDBRANCH  23  26
ENDBRANCH  14  20
ENDBRANCH   6   9
BRANCH   1  29
ATOM     29  C   UNL     1      -3.746  13.668  22.769  0.00  0.00    +0.000 C 
BRANCH  29  30
ATOM     30  C   UNL     1      -4.928  13.031  22.036  0.00  0.00    +0.000 A 
ATOM     31  C   UNL     1      -4.785  12.614  20.708  0.00  0.00    +0.000 A 
ATOM     32  C   UNL     1      -5.864  12.040  20.027  0.00  0.00    +0.000 A 
ATOM     33  C   UNL     1      -7.089  11.869  20.672  0.00  0.00    +0.000 A 
ATOM     34  C   UNL     1      -7.241  12.269  21.996  0.00  0.00    +0.000 A 
ATOM     35  C   UNL     1      -6.170  12.846  22.674  0.00  0.00    +0.000 A 
ENDBRANCH  29  30
BRANCH  29  36
ATOM     36  C   UNL     1      -4.249  14.351  24.067  0.00  0.00    +0.000 C 
BRANCH  36  37
ATOM     37  C   UNL     1      -3.630  15.727  24.318  0.00  0.00    +0.000 C 
BRANCH  37  38
ATOM     38  N   UNL     1      -2.554  15.991  23.356  0.00  0.00    +0.000 NA
ATOM     39  H   UNL     1      -1.807  15.310  23.498  0.00  0.00    +0.000 HD
ATOM     40  H   UNL     1      -2.137  16.902  23.547  0.00  0.00    +0.000 HD
ENDBRANCH  37  38
ENDBRANCH  36  37
ENDBRANCH  29  36
ENDBRANCH   1  29
TORSDOF 8
ENDMDL
MODEL 5
REMARK VINA RESULT:      -7.9      0.926      1.111
REMARK  Name = 
REMARK  8 active torsions:
REMARK  status: ('A' for Active; 'I' for Inactive)
REMARK    1  A    between atoms: N_1  and  C_2
REMARK    2  A    between atoms: C_2  and  C_3
REMARK    3  A    between atoms: C_3  and  C_4
REMARK    4  A    between atoms: C_4  and  N_5
REMARK    5  A    between atoms: C_4  and  C_29
REMARK    6  A    between atoms: C_10  and  C_11
REMARK    7  A    between atoms: N_16  and  C_17
REMARK    8  A    between atoms: C_20  and  N_21
REMARK                            x       y       z     vdW  Elec       q    Type
REMARK                         _______ _______ _______ _____ _____    ______ ____
ROOT
ATOM      1  N   UNL     1      -3.616  12.728  21.757  0.00  0.00    +0.000 N 
ATOM      2  C   UNL     1      -2.519  13.036  20.954  0.00  0.00    +0.000 A 
ATOM      3  N   UNL     1      -2.146  14.300  20.733  0.00  0.00    +0.000 NA
ATOM      4  C   UNL     1      -1.032  14.484  19.996  0.00  0.00    +0.000 A 
ATOM      5  C   UNL     1      -0.273  13.459  19.487  0.00  0.00    +0.000 A 
ATOM      6  C   UNL     1      -0.726  12.190  19.771  0.00  0.00    +0.000 A 
ATOM      7  N   UNL     1      -1.850  11.974  20.486  0.00  0.00    +0.000 NA
ATOM      8  H   UNL     1      -3.839  11.770  21.514  0.00  0.00    +0.000 HD
ENDROOT
BRANCH   6   9
ATOM      9  C   UNL     1      -0.021  10.980  19.344  0.00  0.00    +0.000 A 
ATOM     10  C   UNL     1       0.278  10.497  18.073  0.00  0.00    +0.000 A 
ATOM     11  N   UNL     1       1.007   9.332  18.109  0.00  0.00    +0.000 NA
ATOM     12  C   UNL     1       1.154   9.090  19.394  0.00  0.00    +0.000 A 
ATOM     13  C   UNL     1       1.856   7.968  20.013  0.00  0.00    +0.000 A 
ATOM     14  N   UNL     1       2.532   7.033  19.250  0.00  0.00    +0.000 N 
ATOM     15  N   UNL     1       1.841   7.847  21.325  0.00  0.00    +0.000 NA
ATOM     16  C   UNL     1       1.187   8.799  22.076  0.00  0.00    +0.000 A 
ATOM     17  C   UNL     1       0.562   9.868  21.561  0.00  0.00    +0.000 A 
ATOM     18  N   UNL     1       0.530  10.024  20.187  0.00  0.00    +0.000 N 
ATOM     19  H   UNL     1       2.428   7.166  18.247  0.00  0.00    +0.000 HD
BRANCH  14  20
ATOM     20  C   UNL     1       2.792   5.678  19.723  0.00  0.00    +0.000 C 
ATOM     21  C   UNL     1       1.688   4.718  19.254  0.00  0.00    +0.000 C 
ATOM     22  C   UNL     1       1.780   4.398  17.762  0.00  0.00    +0.000 C 
ATOM     23  C   UNL     1       3.155   3.852  17.363  0.00  0.00    +0.000 C 
ATOM     24  C   UNL     1       4.256   4.830  17.788  0.00  0.00    +0.000 C 
ATOM     25  C   UNL     1       4.186   5.217  19.269  0.00  0.00    +0.000 C 
BRANCH  23  26
ATOM     26  N   UNL     1       3.365   2.522  17.935  0.00  0.00    +0.000 NA
ATOM     27  H   UNL     1       2.528   1.947  17.855  0.00  0.00    +0.000 HD
ATOM     28  H   UNL     1       3.561   2.598  18.931  0.00  0.00    +0.000 HD
ENDBRANCH  23  26
ENDBRANCH  14  20
ENDBRANCH   6   9
BRANCH   1  29
ATOM     29  C   UNL     1      -4.753  13.641  21.689  0.00  0.00    +0.000 C 
BRANCH  29  30
ATOM     30  C   UNL     1      -5.718  13.160  20.603  0.00  0.00    +0.000 A 
ATOM     31  C   UNL     1      -5.960  13.958  19.479  0.00  0.00    +0.000 A 
ATOM     32  C   UNL     1      -6.849  13.530  18.487  0.00  0.00    +0.000 A 
ATOM     33  C   UNL     1      -7.493  12.299  18.607  0.00  0.00    +0.000 A 
ATOM     34  C   UNL     1      -7.253  11.491  19.714  0.00  0.00    +0.000 A 
ATOM     35  C   UNL     1      -6.372  11.918  20.705  0.00  0.00    +0.000 A 
ENDBRANCH  29  30
BRANCH  29  36
ATOM     36  C   UNL     1      -5.496  13.715  23.047  0.00  0.00    +0.000 C 
BRANCH  36  37
ATOM     37  C   UNL     1      -4.659  13.235  24.233  0.00  0.00    +0.000 C 
BRANCH  37  38
ATOM     38  N   UNL     1      -5.017  11.859  24.594  0.00  0.00    +0.000 NA
ATOM     39  H   UNL     1      -6.029  11.797  24.702  0.00  0.00    +0.000 HD
ATOM     40  H   UNL     1      -4.627  11.630  25.508  0.00  0.00    +0.000 HD
ENDBRANCH  37  38
ENDBRANCH  36  37
ENDBRANCH  29  36
ENDBRANCH   1  29
TORSDOF 8
ENDMDL
MODEL 6
REMARK VINA RESULT:      -7.7      1.100      1.903
REMARK  Name = 
REMARK  8 active torsions:
REMARK  status: ('A' for Active; 'I' for Inactive)
REMARK    1  A    between atoms: N_1  and  C_2
REMARK    2  A    between atoms: C_2  and  C_3
REMARK    3  A    between atoms: C_3  and  C_4
REMARK    4  A    between atoms: C_4  and  N_5
REMARK    5  A    between atoms: C_4  and  C_29
REMARK    6  A    between atoms: C_10  and  C_11
REMARK    7  A    between atoms: N_16  and  C_17
REMARK    8  A    between atoms: C_20  and  N_21
REMARK                            x       y       z     vdW  Elec       q    Type
REMARK                         _______ _______ _______ _____ _____    ______ ____
ROOT
ATOM      1  N   UNL     1      -3.240  12.574  21.521  0.00  0.00    +0.000 N 
ATOM      2  C   UNL     1      -1.913  12.628  21.099  0.00  0.00    +0.000 A 
ATOM      3  N   UNL     1      -1.322  13.788  20.792  0.00  0.00    +0.000 NA
ATOM      4  C   UNL     1      -0.016  13.735  20.460  0.00  0.00    +0.000 A 
ATOM      5  C   UNL     1       0.721  12.576  20.436  0.00  0.00    +0.000 A 
ATOM      6  C   UNL     1       0.035  11.431  20.774  0.00  0.00    +0.000 A 
ATOM      7  N   UNL     1      -1.278  11.449  21.088  0.00  0.00    +0.000 NA
ATOM      8  H   UNL     1      -3.500  11.603  21.394  0.00  0.00    +0.000 HD
ENDROOT
BRANCH   6   9
ATOM      9  C   UNL     1       0.670  10.114  20.842  0.00  0.00    +0.000 A 
ATOM     10  C   UNL     1       0.865   9.248  21.915  0.00  0.00    +0.000 A 
ATOM     11  N   UNL     1       1.470   8.071  21.541  0.00  0.00    +0.000 NA
ATOM     12  C   UNL     1       1.654   8.208  20.245  0.00  0.00    +0.000 A 
ATOM     13  C   UNL     1       2.262   7.247  19.326  0.00  0.00    +0.000 A 
ATOM     14  N   UNL     1       2.664   5.996  19.757  0.00  0.00    +0.000 N 
ATOM     15  N   UNL     1       2.430   7.585  18.064  0.00  0.00    +0.000 NA
ATOM     16  C   UNL     1       2.001   8.824  17.641  0.00  0.00    +0.000 A 
ATOM     17  C   UNL     1       1.402   9.726  18.432  0.00  0.00    +0.000 A 
ATOM     18  N   UNL     1       1.226   9.426  19.772  0.00  0.00    +0.000 N 
ATOM     19  H   UNL     1       2.561   5.852  20.759  0.00  0.00    +0.000 HD
BRANCH  14  20
ATOM     20  C   UNL     1       3.696   5.228  19.071  0.00  0.00    +0.000 C 
ATOM     21  C   UNL     1       4.174   4.059  19.946  0.00  0.00    +0.000 C 
ATOM     22  C   UNL     1       3.148   2.928  20.032  0.00  0.00    +0.000 C 
ATOM     23  C   UNL     1       2.727   2.413  18.652  0.00  0.00    +0.000 C 
ATOM     24  C   UNL     1       2.206   3.570  17.792  0.00  0.00    +0.000 C 
ATOM     25  C   UNL     1       3.180   4.749  17.705  0.00  0.00    +0.000 C 
BRANCH  23  26
ATOM     26  N   UNL     1       3.838   1.717  18.002  0.00  0.00    +0.000 NA
ATOM     27  H   UNL     1       4.210   0.976  18.595  0.00  0.00    +0.000 HD
ATOM     28  H   UNL     1       4.609   2.363  17.841  0.00  0.00    +0.000 HD
ENDBRANCH  23  26
ENDBRANCH  14  20
ENDBRANCH   6   9
BRANCH   1  29
ATOM     29  C   UNL     1      -4.161  13.523  20.902  0.00  0.00    +0.000 C 
BRANCH  29  30
ATOM     30  C   UNL     1      -5.145  12.761  20.013  0.00  0.00    +0.000 A 
ATOM     31  C   UNL     1      -6.495  12.679  20.372  0.00  0.00    +0.000 A 
ATOM     32  C   UNL     1      -7.400  11.976  19.570  0.00  0.00    +0.000 A 
ATOM     33  C   UNL     1      -6.963  11.360  18.397  0.00  0.00    +0.000 A 
ATOM     34  C   UNL     1      -5.626  11.442  18.022  0.00  0.00    +0.000 A 
ATOM     35  C   UNL     1      -4.722  12.138  18.823  0.00  0.00    +0.000 A 
ENDBRANCH  29  30
BRANCH  29  36
ATOM     36  C   UNL     1      -4.945  14.324  21.975  0.00  0.00    +0.000 C 
BRANCH  36  37
ATOM     37  C   UNL     1      -4.674  13.862  23.407  0.00  0.00    +0.000 C 
BRANCH  37  38
ATOM     38  N   UNL     1      -5.918  13.839  24.185  0.00  0.00    +0.000 NA
ATOM     39  H   UNL     1      -6.710  13.813  23.543  0.00  0.00    +0.000 HD
ATOM     40  H   UNL     1      -6.013  14.709  24.707  0.00  0.00    +0.000 HD
ENDBRANCH  37  38
ENDBRANCH  36  37
ENDBRANCH  29  36
ENDBRANCH   1  29
TORSDOF 8
ENDMDL
MODEL 7
REMARK VINA RESULT:      -7.6      2.307     10.578
REMARK  Name = 
REMARK  8 active torsions:
REMARK  status: ('A' for Active; 'I' for Inactive)
REMARK    1  A    between atoms: N_1  and  C_2
REMARK    2  A    between atoms: C_2  and  C_3
REMARK    3  A    between atoms: C_3  and  C_4
REMARK    4  A    between atoms: C_4  and  N_5
REMARK    5  A    between atoms: C_4  and  C_29
REMARK    6  A    between atoms: C_10  and  C_11
REMARK    7  A    between atoms: N_16  and  C_17
REMARK    8  A    between atoms: C_20  and  N_21
REMARK                            x       y       z     vdW  Elec       q    Type
REMARK                         _______ _______ _______ _____ _____    ______ ____
ROOT
ATOM      1  N   UNL     1       5.587   5.442  19.252  0.00  0.00    +0.000 N 
ATOM      2  C   UNL     1       4.249   5.184  19.542  0.00  0.00    +0.000 A 
ATOM      3  N   UNL     1       3.782   3.936  19.646  0.00  0.00    +0.000 NA
ATOM      4  C   UNL     1       2.487   3.798  19.996  0.00  0.00    +0.000 A 
ATOM      5  C   UNL     1       1.649   4.855  20.258  0.00  0.00    +0.000 A 
ATOM      6  C   UNL     1       2.215   6.103  20.135  0.00  0.00    +0.000 A 
ATOM      7  N   UNL     1       3.501   6.274  19.764  0.00  0.00    +0.000 NA
ATOM      8  H   UNL     1       5.592   6.409  18.948  0.00  0.00    +0.000 HD
ENDROOT
BRANCH   6   9
ATOM      9  C   UNL     1       1.482   7.340  20.416  0.00  0.00    +0.000 A 
ATOM     10  C   UNL     1       0.653   7.689  21.478  0.00  0.00    +0.000 A 
ATOM     11  N   UNL     1       0.193   8.982  21.387  0.00  0.00    +0.000 NA
ATOM     12  C   UNL     1       0.729   9.430  20.271  0.00  0.00    +0.000 A 
ATOM     13  C   UNL     1       0.576  10.758  19.682  0.00  0.00    +0.000 A 
ATOM     14  N   UNL     1      -0.141  11.752  20.325  0.00  0.00    +0.000 N 
ATOM     15  N   UNL     1       1.132  11.010  18.514  0.00  0.00    +0.000 NA
ATOM     16  C   UNL     1       1.865  10.021  17.897  0.00  0.00    +0.000 A 
ATOM     17  C   UNL     1       2.070   8.800  18.411  0.00  0.00    +0.000 A 
ATOM     18  N   UNL     1       1.485   8.480  19.624  0.00  0.00    +0.000 N 
ATOM     19  H   UNL     1      -0.592  11.445  21.183  0.00  0.00    +0.000 HD
BRANCH  14  20
ATOM     20  C   UNL     1      -0.749  12.865  19.607  0.00  0.00    +0.000 C 
ATOM     21  C   UNL     1      -2.218  12.559  19.274  0.00  0.00    +0.000 C 
ATOM     22  C   UNL     1      -3.127  12.630  20.501  0.00  0.00    +0.000 C 
ATOM     23  C   UNL     1      -3.023  13.973  21.231  0.00  0.00    +0.000 C 
ATOM     24  C   UNL     1      -1.564  14.260  21.605  0.00  0.00    +0.000 C 
ATOM     25  C   UNL     1      -0.602  14.162  20.417  0.00  0.00    +0.000 C 
BRANCH  23  26
ATOM     26  N   UNL     1      -3.591  15.046  20.415  0.00  0.00    +0.000 NA
ATOM     27  H   UNL     1      -2.863  15.654  20.042  0.00  0.00    +0.000 HD
ATOM     28  H   UNL     1      -4.190  15.640  20.986  0.00  0.00    +0.000 HD
ENDBRANCH  23  26
ENDBRANCH  14  20
ENDBRANCH   6   9
BRANCH   1  29
ATOM     29  C   UNL     1       6.244   4.523  18.328  0.00  0.00    +0.000 C 
BRANCH  29  30
ATOM     30  C   UNL     1       5.877   4.905  16.893  0.00  0.00    +0.000 A 
ATOM     31  C   UNL     1       5.943   3.948  15.875  0.00  0.00    +0.000 A 
ATOM     32  C   UNL     1       5.618   4.291  14.558  0.00  0.00    +0.000 A 
ATOM     33  C   UNL     1       5.216   5.592  14.253  0.00  0.00    +0.000 A 
ATOM     34  C   UNL     1       5.136   6.551  15.257  0.00  0.00    +0.000 A 
ATOM     35  C   UNL     1       5.463   6.212  16.568  0.00  0.00    +0.000 A 
ENDBRANCH  29  30
BRANCH  29  36
ATOM     36  C   UNL     1       7.785   4.564  18.497  0.00  0.00    +0.000 C 
BRANCH  36  37
ATOM     37  C   UNL     1       8.273   5.682  19.418  0.00  0.00    +0.000 C 
BRANCH  37  38
ATOM     38  N   UNL     1       8.263   5.240  20.817  0.00  0.00    +0.000 NA
ATOM     39  H   UNL     1       7.390   5.540  21.253  0.00  0.00    +0.000 HD
ATOM     40  H   UNL     1       9.005   5.711  21.333  0.00  0.00    +0.000 HD
ENDBRANCH  37  38
ENDBRANCH  36  37
ENDBRANCH  29  36
ENDBRANCH   1  29
TORSDOF 8
ENDMDL
MODEL 8
REMARK VINA RESULT:      -7.6      1.815      2.789
REMARK  Name = 
REMARK  8 active torsions:
REMARK  status: ('A' for Active; 'I' for Inactive)
REMARK    1  A    between atoms: N_1  and  C_2
REMARK    2  A    between atoms: C_2  and  C_3
REMARK    3  A    between atoms: C_3  and  C_4
REMARK    4  A    between atoms: C_4  and  N_5
REMARK    5  A    between atoms: C_4  and  C_29
REMARK    6  A    between atoms: C_10  and  C_11
REMARK    7  A    between atoms: N_16  and  C_17
REMARK    8  A    between atoms: C_20  and  N_21
REMARK                            x       y       z     vdW  Elec       q    Type
REMARK                         _______ _______ _______ _____ _____    ______ ____
ROOT
ATOM      1  N   UNL     1      -2.000  13.433  23.398  0.00  0.00    +0.000 N 
ATOM      2  C   UNL     1      -1.032  13.289  22.406  0.00  0.00    +0.000 A 
ATOM      3  N   UNL     1      -0.529  14.345  21.758  0.00  0.00    +0.000 NA
ATOM      4  C   UNL     1       0.450  14.100  20.866  0.00  0.00    +0.000 A 
ATOM      5  C   UNL     1       0.955  12.849  20.607  0.00  0.00    +0.000 A 
ATOM      6  C   UNL     1       0.385  11.821  21.324  0.00  0.00    +0.000 A 
ATOM      7  N   UNL     1      -0.613  12.032  22.208  0.00  0.00    +0.000 NA
ATOM      8  H   UNL     1      -2.396  12.505  23.493  0.00  0.00    +0.000 HD
ENDROOT
BRANCH   6   9
ATOM      9  C   UNL     1       0.825  10.430  21.207  0.00  0.00    +0.000 A 
ATOM     10  C   UNL     1       0.960   9.431  22.168  0.00  0.00    +0.000 A 
ATOM     11  N   UNL     1       1.362   8.231  21.629  0.00  0.00    +0.000 NA
ATOM     12  C   UNL     1       1.483   8.486  20.343  0.00  0.00    +0.000 A 
ATOM     13  C   UNL     1       1.885   7.560  19.287  0.00  0.00    +0.000 A 
ATOM     14  N   UNL     1       2.128   6.225  19.555  0.00  0.00    +0.000 N 
ATOM     15  N   UNL     1       2.022   8.011  18.056  0.00  0.00    +0.000 NA
ATOM     16  C   UNL     1       1.751   9.337  17.797  0.00  0.00    +0.000 A 
ATOM     17  C   UNL     1       1.340  10.218  18.721  0.00  0.00    +0.000 A 
ATOM     18  N   UNL     1       1.208   9.797  20.032  0.00  0.00    +0.000 N 
ATOM     19  H   UNL     1       2.069   5.985  20.541  0.00  0.00    +0.000 HD
BRANCH  14  20
ATOM     20  C   UNL     1       2.992   5.404  18.715  0.00  0.00    +0.000 C 
ATOM     21  C   UNL     1       3.894   4.507  19.577  0.00  0.00    +0.000 C 
ATOM     22  C   UNL     1       3.132   3.349  20.221  0.00  0.00    +0.000 C 
ATOM     23  C   UNL     1       2.377   2.500  19.192  0.00  0.00    +0.000 C 
ATOM     24  C   UNL     1       1.441   3.386  18.361  0.00  0.00    +0.000 C 
ATOM     25  C   UNL     1       2.148   4.587  17.725  0.00  0.00    +0.000 C 
BRANCH  23  26
ATOM     26  N   UNL     1       3.316   1.765  18.346  0.00  0.00    +0.000 NA
ATOM     27  H   UNL     1       3.081   1.861  17.359  0.00  0.00    +0.000 HD
ATOM     28  H   UNL     1       3.266   0.768  18.552  0.00  0.00    +0.000 HD
ENDBRANCH  23  26
ENDBRANCH  14  20
ENDBRANCH   6   9
BRANCH   1  29
ATOM     29  C   UNL     1      -2.991  14.486  23.195  0.00  0.00    +0.000 C 
BRANCH  29  30
ATOM     30  C   UNL     1      -4.375  13.851  23.046  0.00  0.00    +0.000 A 
ATOM     31  C   UNL     1      -5.015  13.299  24.161  0.00  0.00    +0.000 A 
ATOM     32  C   UNL     1      -6.277  12.708  24.031  0.00  0.00    +0.000 A 
ATOM     33  C   UNL     1      -6.910  12.674  22.789  0.00  0.00    +0.000 A 
ATOM     34  C   UNL     1      -6.289  13.229  21.674  0.00  0.00    +0.000 A 
ATOM     35  C   UNL     1      -5.031  13.813  21.800  0.00  0.00    +0.000 A 
ENDBRANCH  29  30
BRANCH  29  36
ATOM     36  C   UNL     1      -3.003  15.481  24.384  0.00  0.00    +0.000 C 
BRANCH  36  37
ATOM     37  C   UNL     1      -2.092  15.069  25.540  0.00  0.00    +0.000 C 
BRANCH  37  38
ATOM     38  N   UNL     1      -0.724  15.550  25.316  0.00  0.00    +0.000 NA
ATOM     39  H   UNL     1      -0.752  16.334  24.664  0.00  0.00    +0.000 HD
ATOM     40  H   UNL     1      -0.177  14.825  24.852  0.00  0.00    +0.000 HD
ENDBRANCH  37  38
ENDBRANCH  36  37
ENDBRANCH  29  36
ENDBRANCH   1  29
TORSDOF 8
ENDMDL
MODEL 9
REMARK VINA RESULT:      -7.4      1.539      2.402
REMARK  Name = 
REMARK  8 active torsions:
REMARK  status: ('A' for Active; 'I' for Inactive)
REMARK    1  A    between atoms: N_1  and  C_2
REMARK    2  A    between atoms: C_2  and  C_3
REMARK    3  A    between atoms: C_3  and  C_4
REMARK    4  A    between atoms: C_4  and  N_5
REMARK    5  A    between atoms: C_4  and  C_29
REMARK    6  A    between atoms: C_10  and  C_11
REMARK    7  A    between atoms: N_16  and  C_17
REMARK    8  A    between atoms: C_20  and  N_21
REMARK                            x       y       z     vdW  Elec       q    Type
REMARK                         _______ _______ _______ _____ _____    ______ ____
ROOT
ATOM      1  N   UNL     1      -2.064  13.527  22.873  0.00  0.00    +0.000 N 
ATOM      2  C   UNL     1      -0.930  13.342  22.086  0.00  0.00    +0.000 A 
ATOM      3  N   UNL     1      -0.238  14.377  21.598  0.00  0.00    +0.000 NA
ATOM      4  C   UNL     1       0.881  14.088  20.906  0.00  0.00    +0.000 A 
ATOM      5  C   UNL     1       1.343  12.812  20.695  0.00  0.00    +0.000 A 
ATOM      6  C   UNL     1       0.574  11.808  21.238  0.00  0.00    +0.000 A 
ATOM      7  N   UNL     1      -0.565  12.064  21.917  0.00  0.00    +0.000 NA
ATOM      8  H   UNL     1      -2.533  12.628  22.846  0.00  0.00    +0.000 HD
ENDROOT
BRANCH   6   9
ATOM      9  C   UNL     1       0.934  10.391  21.147  0.00  0.00    +0.000 A 
ATOM     10  C   UNL     1       0.980   9.396  22.120  0.00  0.00    +0.000 A 
ATOM     11  N   UNL     1       1.328   8.169  21.604  0.00  0.00    +0.000 NA
ATOM     12  C   UNL     1       1.503   8.404  20.321  0.00  0.00    +0.000 A 
ATOM     13  C   UNL     1       1.884   7.445  19.286  0.00  0.00    +0.000 A 
ATOM     14  N   UNL     1       2.039   6.101  19.573  0.00  0.00    +0.000 N 
ATOM     15  N   UNL     1       2.085   7.875  18.057  0.00  0.00    +0.000 NA
ATOM     16  C   UNL     1       1.902   9.211  17.778  0.00  0.00    +0.000 A 
ATOM     17  C   UNL     1       1.515  10.125  18.680  0.00  0.00    +0.000 A 
ATOM     18  N   UNL     1       1.316   9.726  19.991  0.00  0.00    +0.000 N 
ATOM     19  H   UNL     1       1.934   5.875  20.559  0.00  0.00    +0.000 HD
BRANCH  14  20
ATOM     20  C   UNL     1       2.879   5.222  18.768  0.00  0.00    +0.000 C 
ATOM     21  C   UNL     1       3.704   4.288  19.667  0.00  0.00    +0.000 C 
ATOM     22  C   UNL     1       2.859   3.182  20.301  0.00  0.00    +0.000 C 
ATOM     23  C   UNL     1       2.088   2.364  19.260  0.00  0.00    +0.000 C 
ATOM     24  C   UNL     1       1.228   3.289  18.392  0.00  0.00    +0.000 C 
ATOM     25  C   UNL     1       2.019   4.440  17.763  0.00  0.00    +0.000 C 
BRANCH  23  26
ATOM     26  N   UNL     1       3.008   1.566  18.450  0.00  0.00    +0.000 NA
ATOM     27  H   UNL     1       2.526   1.118  17.672  0.00  0.00    +0.000 HD
ATOM     28  H   UNL     1       3.402   0.811  19.010  0.00  0.00    +0.000 HD
ENDBRANCH  23  26
ENDBRANCH  14  20
ENDBRANCH   6   9
BRANCH   1  29
ATOM     29  C   UNL     1      -2.922  14.656  22.527  0.00  0.00    +0.000 C 
BRANCH  29  30
ATOM     30  C   UNL     1      -4.108  14.152  21.703  0.00  0.00    +0.000 A 
ATOM     31  C   UNL     1      -4.595  12.855  21.897  0.00  0.00    +0.000 A 
ATOM     32  C   UNL     1      -5.672  12.382  21.141  0.00  0.00    +0.000 A 
ATOM     33  C   UNL     1      -6.278  13.207  20.193  0.00  0.00    +0.000 A 
ATOM     34  C   UNL     1      -5.811  14.504  19.997  0.00  0.00    +0.000 A 
ATOM     35  C   UNL     1      -4.735  14.974  20.746  0.00  0.00    +0.000 A 
ENDBRANCH  29  30
BRANCH  29  36
ATOM     36  C   UNL     1      -3.443  15.375  23.799  0.00  0.00    +0.000 C 
BRANCH  36  37
ATOM     37  C   UNL     1      -3.045  14.683  25.103  0.00  0.00    +0.000 C 
BRANCH  37  38
ATOM     38  N   UNL     1      -3.909  13.525  25.357  0.00  0.00    +0.000 NA
ATOM     39  H   UNL     1      -3.935  13.346  26.361  0.00  0.00    +0.000 HD
ATOM     40  H   UNL     1      -3.499  12.691  24.938  0.00  0.00    +0.000 HD
ENDBRANCH  37  38
ENDBRANCH  36  37
ENDBRANCH  29  36
ENDBRANCH   1  29
TORSDOF 8
ENDMDL
