MODEL 1
REMARK VINA RESULT:      -8.7      0.000      0.000
REMARK  Name = 
REMARK  9 active torsions:
REMARK  status: ('A' for Active; 'I' for Inactive)
REMARK    1  A    between atoms: C_1  and  C_2
REMARK    2  A    between atoms: C_5  and  S_6
REMARK    3  A    between atoms: S_6  and  N_9
REMARK    4  A    between atoms: N_9  and  C_10
REMARK    5  A    between atoms: C_10  and  C_11
REMARK    6  A    between atoms: C_13  and  C_14
REMARK    7  A    between atoms: C_15  and  C_16
REMARK    8  A    between atoms: N_18  and  N_19
REMARK    9  A    between atoms: C_20  and  C_22
REMARK                            x       y       z     vdW  Elec       q    Type
REMARK                         _______ _______ _______ _____ _____    ______ ____
ROOT
ATOM      1  C   UNL     1       4.752   3.452  17.434  0.00  0.00    +0.000 A 
ATOM      2  N   UNL     1       5.448   3.707  16.342  0.00  0.00    +0.000 NA
ATOM      3  C   UNL     1       6.521   4.545  16.639  0.00  0.00    +0.000 A 
ATOM      4  C   UNL     1       7.440   4.908  15.522  0.00  0.00    +0.000 C 
ATOM      5  C   UNL     1       6.607   4.949  17.967  0.00  0.00    +0.000 A 
ATOM      6  S   UNL     1       5.323   4.227  18.854  0.00  0.00    +0.000 S 
ENDROOT
BRANCH   5   7
ATOM      7  C   UNL     1       7.586   5.824  18.601  0.00  0.00    +0.000 C 
ATOM      8  O   UNL     1       8.346   5.459  19.501  0.00  0.00    +0.000 OA
ATOM      9  N   UNL     1       7.628   7.129  18.131  0.00  0.00    +0.000 N 
ATOM     10  H   UNL     1       7.085   7.435  17.326  0.00  0.00    +0.000 HD
BRANCH   9  11
ATOM     11  N   UNL     1       8.577   8.041  18.625  0.00  0.00    +0.000 N 
ATOM     12  C   UNL     1       8.405   9.377  18.307  0.00  0.00    +0.000 C 
ATOM     13  O   UNL     1       7.453   9.779  17.638  0.00  0.00    +0.000 OA
ATOM     14  H   UNL     1       9.459   7.654  18.957  0.00  0.00    +0.000 HD
BRANCH  12  15
ATOM     15  C   UNL     1       9.438  10.327  18.802  0.00  0.00    +0.000 A 
ATOM     16  C   UNL     1      10.287  10.942  17.871  0.00  0.00    +0.000 A 
ATOM     17  C   UNL     1      11.245  11.866  18.294  0.00  0.00    +0.000 A 
ATOM     18  C   UNL     1      11.349  12.194  19.645  0.00  0.00    +0.000 A 
ATOM     19  C   UNL     1      10.493  11.601  20.575  0.00  0.00    +0.000 A 
ATOM     20  C   UNL     1       9.539  10.666  20.157  0.00  0.00    +0.000 A 
ENDBRANCH  12  15
ENDBRANCH   9  11
ENDBRANCH   5   7
BRANCH   1  21
ATOM     21  C   UNL     1       3.513   2.593  17.496  0.00  0.00    +0.000 C 
BRANCH  21  22
ATOM     22  N   UNL     1       3.139   2.361  18.894  0.00  0.00    +0.000 NA
ATOM     23  H   UNL     1       3.454   1.475  19.293  0.00  0.00    +0.000 HD
BRANCH  22  24
ATOM     24  S   UNL     1       1.633   2.887  19.394  0.00  0.00    +0.000 S 
ATOM     25  O   UNL     1       1.515   2.588  20.805  0.00  0.00    +0.000 OA
ATOM     26  O   UNL     1       0.667   2.418  18.427  0.00  0.00    +0.000 OA
BRANCH  24  31
ATOM     27  C   UNL     1       2.182   8.910  18.843  0.00  0.00    +0.000 C 
ATOM     28  C   UNL     1       2.007   7.425  18.979  0.00  0.00    +0.000 A 
ATOM     29  C   UNL     1       1.900   6.831  20.243  0.00  0.00    +0.000 A 
ATOM     30  C   UNL     1       1.768   5.447  20.364  0.00  0.00    +0.000 A 
ATOM     31  C   UNL     1       1.732   4.653  19.213  0.00  0.00    +0.000 A 
ATOM     32  C   UNL     1       1.840   5.230  17.947  0.00  0.00    +0.000 A 
ATOM     33  C   UNL     1       1.977   6.616  17.834  0.00  0.00    +0.000 A 
ENDBRANCH  24  31
ENDBRANCH  22  24
ENDBRANCH  21  22
ENDBRANCH   1  21
TORSDOF 7
ENDMDL
MODEL 2
REMARK VINA RESULT:      -8.5      1.429      1.598
REMARK  Name = 
REMARK  9 active torsions:
REMARK  status: ('A' for Active; 'I' for Inactive)
REMARK    1  A    between atoms: C_1  and  C_2
REMARK    2  A    between atoms: C_5  and  S_6
REMARK    3  A    between atoms: S_6  and  N_9
REMARK    4  A    between atoms: N_9  and  C_10
REMARK    5  A    between atoms: C_10  and  C_11
REMARK    6  A    between atoms: C_13  and  C_14
REMARK    7  A    between atoms: C_15  and  C_16
REMARK    8  A    between atoms: N_18  and  N_19
REMARK    9  A    between atoms: C_20  and  C_22
REMARK                            x       y       z     vdW  Elec       q    Type
REMARK                         _______ _______ _______ _____ _____    ______ ____
ROOT
ATOM      1  C   UNL     1       5.199   3.909  18.672  0.00  0.00    +0.000 A 
ATOM      2  N   UNL     1       4.977   3.834  17.373  0.00  0.00    +0.000 NA
ATOM      3  C   UNL     1       5.662   4.851  16.709  0.00  0.00    +0.000 A 
ATOM      4  C   UNL     1       5.554   4.896  15.223  0.00  0.00    +0.000 C 
ATOM      5  C   UNL     1       6.378   5.717  17.529  0.00  0.00    +0.000 A 
ATOM      6  S   UNL     1       6.201   5.212  19.164  0.00  0.00    +0.000 S 
ENDROOT
BRANCH   5   7
ATOM      7  C   UNL     1       7.181   6.878  17.164  0.00  0.00    +0.000 C 
ATOM      8  O   UNL     1       8.042   6.862  16.281  0.00  0.00    +0.000 OA
ATOM      9  N   UNL     1       6.924   8.041  17.875  0.00  0.00    +0.000 N 
ATOM     10  H   UNL     1       6.156   8.115  18.540  0.00  0.00    +0.000 HD
BRANCH   9  11
ATOM     11  N   UNL     1       7.593   9.238  17.563  0.00  0.00    +0.000 N 
ATOM     12  C   UNL     1       8.621   9.632  18.400  0.00  0.00    +0.000 C 
ATOM     13  O   UNL     1       8.971   8.967  19.374  0.00  0.00    +0.000 OA
ATOM     14  H   UNL     1       7.128   9.869  16.911  0.00  0.00    +0.000 HD
BRANCH  12  15
ATOM     15  C   UNL     1       9.294  10.921  18.081  0.00  0.00    +0.000 A 
ATOM     16  C   UNL     1      10.694  10.948  18.011  0.00  0.00    +0.000 A 
ATOM     17  C   UNL     1      11.360  12.132  17.680  0.00  0.00    +0.000 A 
ATOM     18  C   UNL     1      10.631  13.287  17.401  0.00  0.00    +0.000 A 
ATOM     19  C   UNL     1       9.236  13.261  17.450  0.00  0.00    +0.000 A 
ATOM     20  C   UNL     1       8.566  12.081  17.791  0.00  0.00    +0.000 A 
ENDBRANCH  12  15
ENDBRANCH   9  11
ENDBRANCH   5   7
BRANCH   1  21
ATOM     21  C   UNL     1       4.612   2.983  19.710  0.00  0.00    +0.000 C 
BRANCH  21  22
ATOM     22  N   UNL     1       3.375   2.384  19.199  0.00  0.00    +0.000 NA
ATOM     23  H   UNL     1       3.383   2.134  18.209  0.00  0.00    +0.000 HD
BRANCH  22  24
ATOM     24  S   UNL     1       1.926   2.973  19.788  0.00  0.00    +0.000 S 
ATOM     25  O   UNL     1       1.978   2.890  21.232  0.00  0.00    +0.000 OA
ATOM     26  O   UNL     1       0.866   2.359  19.022  0.00  0.00    +0.000 OA
BRANCH  24  31
ATOM     27  C   UNL     1       2.271   8.847  18.285  0.00  0.00    +0.000 C 
ATOM     28  C   UNL     1       2.147   7.398  18.660  0.00  0.00    +0.000 A 
ATOM     29  C   UNL     1       2.182   7.002  20.003  0.00  0.00    +0.000 A 
ATOM     30  C   UNL     1       2.096   5.651  20.343  0.00  0.00    +0.000 A 
ATOM     31  C   UNL     1       1.964   4.692  19.335  0.00  0.00    +0.000 A 
ATOM     32  C   UNL     1       1.930   5.071  17.992  0.00  0.00    +0.000 A 
ATOM     33  C   UNL     1       2.022   6.424  17.659  0.00  0.00    +0.000 A 
ENDBRANCH  24  31
ENDBRANCH  22  24
ENDBRANCH  21  22
ENDBRANCH   1  21
TORSDOF 7
ENDMDL
MODEL 3
REMARK VINA RESULT:      -8.3      0.579      1.364
REMARK  Name = 
REMARK  9 active torsions:
REMARK  status: ('A' for Active; 'I' for Inactive)
REMARK    1  A    between atoms: C_1  and  C_2
REMARK    2  A    between atoms: C_5  and  S_6
REMARK    3  A    between atoms: S_6  and  N_9
REMARK    4  A    between atoms: N_9  and  C_10
REMARK    5  A    between atoms: C_10  and  C_11
REMARK    6  A    between atoms: C_13  and  C_14
REMARK    7  A    between atoms: C_15  and  C_16
REMARK    8  A    between atoms: N_18  and  N_19
REMARK    9  A    between atoms: C_20  and  C_22
REMARK                            x       y       z     vdW  Elec       q    Type
REMARK                         _______ _______ _______ _____ _____    ______ ____
ROOT
ATOM      1  C   UNL     1       4.793   3.174  17.495  0.00  0.00    +0.000 A 
ATOM      2  N   UNL     1       5.333   3.650  16.389  0.00  0.00    +0.000 NA
ATOM      3  C   UNL     1       6.314   4.591  16.698  0.00  0.00    +0.000 A 
ATOM      4  C   UNL     1       7.058   5.207  15.563  0.00  0.00    +0.000 C 
ATOM      5  C   UNL     1       6.484   4.845  18.055  0.00  0.00    +0.000 A 
ATOM      6  S   UNL     1       5.402   3.851  18.949  0.00  0.00    +0.000 S 
ENDROOT
BRANCH   5   7
ATOM      7  C   UNL     1       7.403   5.769  18.711  0.00  0.00    +0.000 C 
ATOM      8  O   UNL     1       8.050   5.485  19.721  0.00  0.00    +0.000 OA
ATOM      9  N   UNL     1       7.520   7.022  18.128  0.00  0.00    +0.000 N 
ATOM     10  H   UNL     1       7.076   7.255  17.242  0.00  0.00    +0.000 HD
BRANCH   9  11
ATOM     11  N   UNL     1       8.425   7.970  18.638  0.00  0.00    +0.000 N 
ATOM     12  C   UNL     1       8.296   9.276  18.200  0.00  0.00    +0.000 C 
ATOM     13  O   UNL     1       7.417   9.625  17.412  0.00  0.00    +0.000 OA
ATOM     14  H   UNL     1       9.267   7.610  19.084  0.00  0.00    +0.000 HD
BRANCH  12  15
ATOM     15  C   UNL     1       9.284  10.262  18.716  0.00  0.00    +0.000 A 
ATOM     16  C   UNL     1       9.323  10.517  20.094  0.00  0.00    +0.000 A 
ATOM     17  C   UNL     1      10.261  11.409  20.619  0.00  0.00    +0.000 A 
ATOM     18  C   UNL     1      11.175  12.038  19.775  0.00  0.00    +0.000 A 
ATOM     19  C   UNL     1      11.155  11.773  18.404  0.00  0.00    +0.000 A 
ATOM     20  C   UNL     1      10.211  10.888  17.872  0.00  0.00    +0.000 A 
ENDBRANCH  12  15
ENDBRANCH   9  11
ENDBRANCH   5   7
BRANCH   1  21
ATOM     21  C   UNL     1       3.687   2.148  17.552  0.00  0.00    +0.000 C 
BRANCH  21  22
ATOM     22  N   UNL     1       2.384   2.819  17.528  0.00  0.00    +0.000 NA
ATOM     23  H   UNL     1       2.306   3.607  16.884  0.00  0.00    +0.000 HD
BRANCH  22  24
ATOM     24  S   UNL     1       1.568   2.983  18.978  0.00  0.00    +0.000 S 
ATOM     25  O   UNL     1       2.315   2.256  19.982  0.00  0.00    +0.000 OA
ATOM     26  O   UNL     1       0.171   2.719  18.721  0.00  0.00    +0.000 OA
BRANCH  24  31
ATOM     27  C   UNL     1       1.863   8.946  20.093  0.00  0.00    +0.000 C 
ATOM     28  C   UNL     1       1.828   7.468  19.827  0.00  0.00    +0.000 A 
ATOM     29  C   UNL     1       2.136   6.963  18.557  0.00  0.00    +0.000 A 
ATOM     30  C   UNL     1       2.073   5.592  18.308  0.00  0.00    +0.000 A 
ATOM     31  C   UNL     1       1.709   4.719  19.337  0.00  0.00    +0.000 A 
ATOM     32  C   UNL     1       1.396   5.206  20.607  0.00  0.00    +0.000 A 
ATOM     33  C   UNL     1       1.457   6.581  20.848  0.00  0.00    +0.000 A 
ENDBRANCH  24  31
ENDBRANCH  22  24
ENDBRANCH  21  22
ENDBRANCH   1  21
TORSDOF 7
ENDMDL
MODEL 4
REMARK VINA RESULT:      -8.2      4.858      7.426
REMARK  Name = 
REMARK  9 active torsions:
REMARK  status: ('A' for Active; 'I' for Inactive)
REMARK    1  A    between atoms: C_1  and  C_2
REMARK    2  A    between atoms: C_5  and  S_6
REMARK    3  A    between atoms: S_6  and  N_9
REMARK    4  A    between atoms: N_9  and  C_10
REMARK    5  A    between atoms: C_10  and  C_11
REMARK    6  A    between atoms: C_13  and  C_14
REMARK    7  A    between atoms: C_15  and  C_16
REMARK    8  A    between atoms: N_18  and  N_19
REMARK    9  A    between atoms: C_20  and  C_22
REMARK                            x       y       z     vdW  Elec       q    Type
REMARK                         _______ _______ _______ _____ _____    ______ ____
ROOT
ATOM      1  C   UNL     1       1.672   7.199  20.579  0.00  0.00    +0.000 A 
ATOM      2  N   UNL     1       1.501   5.984  21.066  0.00  0.00    +0.000 NA
ATOM      3  C   UNL     1       1.969   5.032  20.162  0.00  0.00    +0.000 A 
ATOM      4  C   UNL     1       1.888   3.600  20.568  0.00  0.00    +0.000 C 
ATOM      5  C   UNL     1       2.466   5.543  18.968  0.00  0.00    +0.000 A 
ATOM      6  S   UNL     1       2.363   7.260  19.009  0.00  0.00    +0.000 S 
ENDROOT
BRANCH   5   7
ATOM      7  C   UNL     1       3.012   4.831  17.818  0.00  0.00    +0.000 C 
ATOM      8  O   UNL     1       2.391   3.970  17.191  0.00  0.00    +0.000 OA
ATOM      9  N   UNL     1       4.303   5.177  17.448  0.00  0.00    +0.000 N 
ATOM     10  H   UNL     1       4.806   5.950  17.882  0.00  0.00    +0.000 HD
BRANCH   9  11
ATOM     11  N   UNL     1       4.906   4.602  16.315  0.00  0.00    +0.000 N 
ATOM     12  C   UNL     1       5.340   5.458  15.319  0.00  0.00    +0.000 C 
ATOM     13  O   UNL     1       5.235   6.681  15.406  0.00  0.00    +0.000 OA
ATOM     14  H   UNL     1       4.757   3.605  16.171  0.00  0.00    +0.000 HD
BRANCH  12  15
ATOM     15  C   UNL     1       5.940   4.834  14.108  0.00  0.00    +0.000 A 
ATOM     16  C   UNL     1       7.215   5.249  13.699  0.00  0.00    +0.000 A 
ATOM     17  C   UNL     1       7.825   4.662  12.587  0.00  0.00    +0.000 A 
ATOM     18  C   UNL     1       7.173   3.646  11.890  0.00  0.00    +0.000 A 
ATOM     19  C   UNL     1       5.912   3.214  12.304  0.00  0.00    +0.000 A 
ATOM     20  C   UNL     1       5.292   3.806  13.410  0.00  0.00    +0.000 A 
ENDBRANCH  12  15
ENDBRANCH   9  11
ENDBRANCH   5   7
BRANCH   1  21
ATOM     21  C   UNL     1       1.272   8.479  21.271  0.00  0.00    +0.000 C 
BRANCH  21  22
ATOM     22  N   UNL     1       1.130   9.554  20.284  0.00  0.00    +0.000 NA
ATOM     23  H   UNL     1       1.981   9.802  19.778  0.00  0.00    +0.000 HD
BRANCH  22  24
ATOM     24  S   UNL     1       0.112  10.825  20.662  0.00  0.00    +0.000 S 
ATOM     25  O   UNL     1       0.884  12.045  20.558  0.00  0.00    +0.000 OA
ATOM     26  O   UNL     1      -0.600  10.467  21.867  0.00  0.00    +0.000 OA
BRANCH  24  31
ATOM     27  C   UNL     1      -3.861  10.974  16.070  0.00  0.00    +0.000 C 
ATOM     28  C   UNL     1      -2.900  10.909  17.223  0.00  0.00    +0.000 A 
ATOM     29  C   UNL     1      -3.090  11.710  18.357  0.00  0.00    +0.000 A 
ATOM     30  C   UNL     1      -2.177  11.667  19.412  0.00  0.00    +0.000 A 
ATOM     31  C   UNL     1      -1.074  10.811  19.337  0.00  0.00    +0.000 A 
ATOM     32  C   UNL     1      -0.870  10.010  18.212  0.00  0.00    +0.000 A 
ATOM     33  C   UNL     1      -1.785  10.062  17.158  0.00  0.00    +0.000 A 
ENDBRANCH  24  31
ENDBRANCH  22  24
ENDBRANCH  21  22
ENDBRANCH   1  21
TORSDOF 7
ENDMDL
MODEL 5
REMARK VINA RESULT:      -8.2      4.774      7.458
REMARK  Name = 
REMARK  9 active torsions:
REMARK  status: ('A' for Active; 'I' for Inactive)
REMARK    1  A    between atoms: C_1  and  C_2
REMARK    2  A    between atoms: C_5  and  S_6
REMARK    3  A    between atoms: S_6  and  N_9
REMARK    4  A    between atoms: N_9  and  C_10
REMARK    5  A    between atoms: C_10  and  C_11
REMARK    6  A    between atoms: C_13  and  C_14
REMARK    7  A    between atoms: C_15  and  C_16
REMARK    8  A    between atoms: N_18  and  N_19
REMARK    9  A    between atoms: C_20  and  C_22
REMARK                            x       y       z     vdW  Elec       q    Type
REMARK                         _______ _______ _______ _____ _____    ______ ____
ROOT
ATOM      1  C   UNL     1       1.596   7.104  20.631  0.00  0.00    +0.000 A 
ATOM      2  N   UNL     1       1.517   5.888  21.140  0.00  0.00    +0.000 NA
ATOM      3  C   UNL     1       1.972   4.949  20.216  0.00  0.00    +0.000 A 
ATOM      4  C   UNL     1       1.987   3.520  20.640  0.00  0.00    +0.000 C 
ATOM      5  C   UNL     1       2.365   5.469  18.987  0.00  0.00    +0.000 A 
ATOM      6  S   UNL     1       2.181   7.179  19.019  0.00  0.00    +0.000 S 
ENDROOT
BRANCH   5   7
ATOM      7  C   UNL     1       2.871   4.770  17.811  0.00  0.00    +0.000 C 
ATOM      8  O   UNL     1       2.240   3.895  17.214  0.00  0.00    +0.000 OA
ATOM      9  N   UNL     1       4.134   5.147  17.379  0.00  0.00    +0.000 N 
ATOM     10  H   UNL     1       4.639   5.931  17.789  0.00  0.00    +0.000 HD
BRANCH   9  11
ATOM     11  N   UNL     1       4.693   4.586  16.217  0.00  0.00    +0.000 N 
ATOM     12  C   UNL     1       5.559   5.374  15.480  0.00  0.00    +0.000 C 
ATOM     13  O   UNL     1       5.862   6.518  15.820  0.00  0.00    +0.000 OA
ATOM     14  H   UNL     1       4.243   3.751  15.845  0.00  0.00    +0.000 HD
BRANCH  12  15
ATOM     15  C   UNL     1       6.114   4.783  14.232  0.00  0.00    +0.000 A 
ATOM     16  C   UNL     1       5.353   3.824  13.547  0.00  0.00    +0.000 A 
ATOM     17  C   UNL     1       5.825   3.273  12.352  0.00  0.00    +0.000 A 
ATOM     18  C   UNL     1       7.048   3.689  11.828  0.00  0.00    +0.000 A 
ATOM     19  C   UNL     1       7.800   4.658  12.494  0.00  0.00    +0.000 A 
ATOM     20  C   UNL     1       7.337   5.205  13.696  0.00  0.00    +0.000 A 
ENDBRANCH  12  15
ENDBRANCH   9  11
ENDBRANCH   5   7
BRANCH   1  21
ATOM     21  C   UNL     1       1.178   8.371  21.335  0.00  0.00    +0.000 C 
BRANCH  21  22
ATOM     22  N   UNL     1       1.313   9.513  20.426  0.00  0.00    +0.000 NA
ATOM     23  H   UNL     1       2.247   9.661  20.040  0.00  0.00    +0.000 HD
BRANCH  22  24
ATOM     24  S   UNL     1       0.449  10.899  20.785  0.00  0.00    +0.000 S 
ATOM     25  O   UNL     1       1.341  12.024  20.611  0.00  0.00    +0.000 OA
ATOM     26  O   UNL     1      -0.255  10.662  22.024  0.00  0.00    +0.000 OA
BRANCH  24  31
ATOM     27  C   UNL     1      -3.815  10.931  16.459  0.00  0.00    +0.000 C 
ATOM     28  C   UNL     1      -2.741  10.951  17.509  0.00  0.00    +0.000 A 
ATOM     29  C   UNL     1      -1.623  10.112  17.403  0.00  0.00    +0.000 A 
ATOM     30  C   UNL     1      -0.643  10.113  18.397  0.00  0.00    +0.000 A 
ATOM     31  C   UNL     1      -0.776  10.965  19.498  0.00  0.00    +0.000 A 
ATOM     32  C   UNL     1      -1.885  11.804  19.619  0.00  0.00    +0.000 A 
ATOM     33  C   UNL     1      -2.865  11.794  18.622  0.00  0.00    +0.000 A 
ENDBRANCH  24  31
ENDBRANCH  22  24
ENDBRANCH  21  22
ENDBRANCH   1  21
TORSDOF 7
ENDMDL
MODEL 6
REMARK VINA RESULT:      -8.2      5.443      8.931
REMARK  Name = 
REMARK  9 active torsions:
REMARK  status: ('A' for Active; 'I' for Inactive)
REMARK    1  A    between atoms: C_1  and  C_2
REMARK    2  A    between atoms: C_5  and  S_6
REMARK    3  A    between atoms: S_6  and  N_9
REMARK    4  A    between atoms: N_9  and  C_10
REMARK    5  A    between atoms: C_10  and  C_11
REMARK    6  A    between atoms: C_13  and  C_14
REMARK    7  A    between atoms: C_15  and  C_16
REMARK    8  A    between atoms: N_18  and  N_19
REMARK    9  A    between atoms: C_20  and  C_22
REMARK                            x       y       z     vdW  Elec       q    Type
REMARK                         _______ _______ _______ _____ _____    ______ ____
ROOT
ATOM      1  C   UNL     1       2.338   6.769  19.826  0.00  0.00    +0.000 A 
ATOM      2  N   UNL     1       2.555   7.476  18.733  0.00  0.00    +0.000 NA
ATOM      3  C   UNL     1       1.860   8.683  18.794  0.00  0.00    +0.000 A 
ATOM      4  C   UNL     1       2.021   9.627  17.652  0.00  0.00    +0.000 C 
ATOM      5  C   UNL     1       1.085   8.863  19.935  0.00  0.00    +0.000 A 
ATOM      6  S   UNL     1       1.269   7.492  20.957  0.00  0.00    +0.000 S 
ENDROOT
BRANCH   5   7
ATOM      7  C   UNL     1       0.235   9.990  20.302  0.00  0.00    +0.000 C 
ATOM      8  O   UNL     1      -0.766  10.325  19.665  0.00  0.00    +0.000 OA
ATOM      9  N   UNL     1       0.614  10.691  21.437  0.00  0.00    +0.000 N 
ATOM     10  H   UNL     1       1.376  10.383  22.039  0.00  0.00    +0.000 HD
BRANCH   9  11
ATOM     11  N   UNL     1      -0.168  11.755  21.920  0.00  0.00    +0.000 N 
ATOM     12  C   UNL     1      -1.119  11.464  22.882  0.00  0.00    +0.000 C 
ATOM     13  O   UNL     1      -1.278  10.329  23.330  0.00  0.00    +0.000 OA
ATOM     14  H   UNL     1      -0.177  12.609  21.365  0.00  0.00    +0.000 HD
BRANCH  12  15
ATOM     15  C   UNL     1      -1.967  12.591  23.356  0.00  0.00    +0.000 A 
ATOM     16  C   UNL     1      -1.405  13.874  23.422  0.00  0.00    +0.000 A 
ATOM     17  C   UNL     1      -2.180  14.963  23.828  0.00  0.00    +0.000 A 
ATOM     18  C   UNL     1      -3.524  14.780  24.154  0.00  0.00    +0.000 A 
ATOM     19  C   UNL     1      -4.095  13.509  24.070  0.00  0.00    +0.000 A 
ATOM     20  C   UNL     1      -3.319  12.413  23.674  0.00  0.00    +0.000 A 
ENDBRANCH  12  15
ENDBRANCH   9  11
ENDBRANCH   5   7
BRANCH   1  21
ATOM     21  C   UNL     1       2.913   5.403  20.108  0.00  0.00    +0.000 C 
BRANCH  21  22
ATOM     22  N   UNL     1       3.577   4.886  18.908  0.00  0.00    +0.000 NA
ATOM     23  H   UNL     1       3.002   4.295  18.306  0.00  0.00    +0.000 HD
BRANCH  22  24
ATOM     24  S   UNL     1       5.184   4.444  19.038  0.00  0.00    +0.000 S 
ATOM     25  O   UNL     1       5.222   3.086  19.538  0.00  0.00    +0.000 OA
ATOM     26  O   UNL     1       5.879   5.524  19.699  0.00  0.00    +0.000 OA
BRANCH  24  31
ATOM     27  C   UNL     1       6.998   4.566  13.243  0.00  0.00    +0.000 C 
ATOM     28  C   UNL     1       6.557   4.497  14.677  0.00  0.00    +0.000 A 
ATOM     29  C   UNL     1       5.226   4.206  15.002  0.00  0.00    +0.000 A 
ATOM     30  C   UNL     1       4.816   4.173  16.336  0.00  0.00    +0.000 A 
ATOM     31  C   UNL     1       5.745   4.423  17.351  0.00  0.00    +0.000 A 
ATOM     32  C   UNL     1       7.074   4.717  17.042  0.00  0.00    +0.000 A 
ATOM     33  C   UNL     1       7.476   4.753  15.705  0.00  0.00    +0.000 A 
ENDBRANCH  24  31
ENDBRANCH  22  24
ENDBRANCH  21  22
ENDBRANCH   1  21
TORSDOF 7
ENDMDL
MODEL 7
REMARK VINA RESULT:      -8.2      5.410      8.661
REMARK  Name = 
REMARK  9 active torsions:
REMARK  status: ('A' for Active; 'I' for Inactive)
REMARK    1  A    between atoms: C_1  and  C_2
REMARK    2  A    between atoms: C_5  and  S_6
REMARK    3  A    between atoms: S_6  and  N_9
REMARK    4  A    between atoms: N_9  and  C_10
REMARK    5  A    between atoms: C_10  and  C_11
REMARK    6  A    between atoms: C_13  and  C_14
REMARK    7  A    between atoms: C_15  and  C_16
REMARK    8  A    between atoms: N_18  and  N_19
REMARK    9  A    between atoms: C_20  and  C_22
REMARK                            x       y       z     vdW  Elec       q    Type
REMARK                         _______ _______ _______ _____ _____    ______ ____
ROOT
ATOM      1  C   UNL     1       2.416   6.682  19.837  0.00  0.00    +0.000 A 
ATOM      2  N   UNL     1       2.595   7.357  18.717  0.00  0.00    +0.000 NA
ATOM      3  C   UNL     1       1.875   8.550  18.753  0.00  0.00    +0.000 A 
ATOM      4  C   UNL     1       1.993   9.459  17.577  0.00  0.00    +0.000 C 
ATOM      5  C   UNL     1       1.121   8.752  19.904  0.00  0.00    +0.000 A 
ATOM      6  S   UNL     1       1.355   7.420  20.966  0.00  0.00    +0.000 S 
ENDROOT
BRANCH   5   7
ATOM      7  C   UNL     1       0.254   9.873  20.251  0.00  0.00    +0.000 C 
ATOM      8  O   UNL     1      -0.779  10.152  19.639  0.00  0.00    +0.000 OA
ATOM      9  N   UNL     1       0.655  10.635  21.339  0.00  0.00    +0.000 N 
ATOM     10  H   UNL     1       1.447  10.374  21.924  0.00  0.00    +0.000 HD
BRANCH   9  11
ATOM     11  N   UNL     1      -0.137  11.699  21.803  0.00  0.00    +0.000 N 
ATOM     12  C   UNL     1      -1.034  11.431  22.822  0.00  0.00    +0.000 C 
ATOM     13  O   UNL     1      -1.137  10.317  23.334  0.00  0.00    +0.000 OA
ATOM     14  H   UNL     1      -0.198  12.523  21.206  0.00  0.00    +0.000 HD
BRANCH  12  15
ATOM     15  C   UNL     1      -1.895  12.557  23.276  0.00  0.00    +0.000 A 
ATOM     16  C   UNL     1      -3.251  12.305  23.531  0.00  0.00    +0.000 A 
ATOM     17  C   UNL     1      -4.083  13.329  23.993  0.00  0.00    +0.000 A 
ATOM     18  C   UNL     1      -3.561  14.602  24.220  0.00  0.00    +0.000 A 
ATOM     19  C   UNL     1      -2.208  14.853  23.988  0.00  0.00    +0.000 A 
ATOM     20  C   UNL     1      -1.374  13.835  23.515  0.00  0.00    +0.000 A 
ENDBRANCH  12  15
ENDBRANCH   9  11
ENDBRANCH   5   7
BRANCH   1  21
ATOM     21  C   UNL     1       3.026   5.338  20.151  0.00  0.00    +0.000 C 
BRANCH  21  22
ATOM     22  N   UNL     1       2.969   4.478  18.966  0.00  0.00    +0.000 NA
ATOM     23  H   UNL     1       2.130   3.903  18.879  0.00  0.00    +0.000 HD
BRANCH  22  24
ATOM     24  S   UNL     1       4.393   3.767  18.452  0.00  0.00    +0.000 S 
ATOM     25  O   UNL     1       4.150   3.207  17.140  0.00  0.00    +0.000 OA
ATOM     26  O   UNL     1       4.897   2.969  19.546  0.00  0.00    +0.000 OA
BRANCH  24  31
ATOM     27  C   UNL     1       8.312   8.346  17.707  0.00  0.00    +0.000 C 
ATOM     28  C   UNL     1       7.325   7.234  17.919  0.00  0.00    +0.000 A 
ATOM     29  C   UNL     1       7.562   6.240  18.877  0.00  0.00    +0.000 A 
ATOM     30  C   UNL     1       6.656   5.193  19.048  0.00  0.00    +0.000 A 
ATOM     31  C   UNL     1       5.498   5.146  18.264  0.00  0.00    +0.000 A 
ATOM     32  C   UNL     1       5.249   6.128  17.304  0.00  0.00    +0.000 A 
ATOM     33  C   UNL     1       6.164   7.170  17.135  0.00  0.00    +0.000 A 
ENDBRANCH  24  31
ENDBRANCH  22  24
ENDBRANCH  21  22
ENDBRANCH   1  21
TORSDOF 7
ENDMDL
MODEL 8
REMARK VINA RESULT:      -8.1      4.872      7.537
REMARK  Name = 
REMARK  9 active torsions:
REMARK  status: ('A' for Active; 'I' for Inactive)
REMARK    1  A    between atoms: C_1  and  C_2
REMARK    2  A    between atoms: C_5  and  S_6
REMARK    3  A    between atoms: S_6  and  N_9
REMARK    4  A    between atoms: N_9  and  C_10
REMARK    5  A    between atoms: C_10  and  C_11
REMARK    6  A    between atoms: C_13  and  C_14
REMARK    7  A    between atoms: C_15  and  C_16
REMARK    8  A    between atoms: N_18  and  N_19
REMARK    9  A    between atoms: C_20  and  C_22
REMARK                            x       y       z     vdW  Elec       q    Type
REMARK                         _______ _______ _______ _____ _____    ______ ____
ROOT
ATOM      1  C   UNL     1       1.729   7.205  20.608  0.00  0.00    +0.000 A 
ATOM      2  N   UNL     1       1.613   5.996  21.126  0.00  0.00    +0.000 NA
ATOM      3  C   UNL     1       2.060   5.038  20.218  0.00  0.00    +0.000 A 
ATOM      4  C   UNL     1       2.034   3.613  20.654  0.00  0.00    +0.000 C 
ATOM      5  C   UNL     1       2.485   5.538  18.991  0.00  0.00    +0.000 A 
ATOM      6  S   UNL     1       2.341   7.252  19.006  0.00  0.00    +0.000 S 
ENDROOT
BRANCH   5   7
ATOM      7  C   UNL     1       2.993   4.817  17.830  0.00  0.00    +0.000 C 
ATOM      8  O   UNL     1       2.341   3.972  17.212  0.00  0.00    +0.000 OA
ATOM      9  N   UNL     1       4.285   5.134  17.436  0.00  0.00    +0.000 N 
ATOM     10  H   UNL     1       4.813   5.894  17.863  0.00  0.00    +0.000 HD
BRANCH   9  11
ATOM     11  N   UNL     1       4.852   4.549  16.291  0.00  0.00    +0.000 N 
ATOM     12  C   UNL     1       5.358   5.398  15.323  0.00  0.00    +0.000 C 
ATOM     13  O   UNL     1       5.344   6.622  15.447  0.00  0.00    +0.000 OA
ATOM     14  H   UNL     1       4.630   3.570  16.116  0.00  0.00    +0.000 HD
BRANCH  12  15
ATOM     15  C   UNL     1       5.920   4.766  14.098  0.00  0.00    +0.000 A 
ATOM     16  C   UNL     1       7.188   5.170  13.655  0.00  0.00    +0.000 A 
ATOM     17  C   UNL     1       7.763   4.574  12.529  0.00  0.00    +0.000 A 
ATOM     18  C   UNL     1       7.083   3.563  11.851  0.00  0.00    +0.000 A 
ATOM     19  C   UNL     1       5.830   3.143  12.299  0.00  0.00    +0.000 A 
ATOM     20  C   UNL     1       5.245   3.743  13.420  0.00  0.00    +0.000 A 
ENDBRANCH  12  15
ENDBRANCH   9  11
ENDBRANCH   5   7
BRANCH   1  21
ATOM     21  C   UNL     1       1.331   8.488  21.296  0.00  0.00    +0.000 C 
BRANCH  21  22
ATOM     22  N   UNL     1       0.196   9.096  20.595  0.00  0.00    +0.000 NA
ATOM     23  H   UNL     1      -0.352   8.462  20.010  0.00  0.00    +0.000 HD
BRANCH  22  24
ATOM     24  S   UNL     1       0.389  10.647  20.001  0.00  0.00    +0.000 S 
ATOM     25  O   UNL     1       1.481  10.615  19.052  0.00  0.00    +0.000 OA
ATOM     26  O   UNL     1       0.379  11.547  21.130  0.00  0.00    +0.000 OA
BRANCH  24  31
ATOM     27  C   UNL     1      -4.819  11.423  16.974  0.00  0.00    +0.000 C 
ATOM     28  C   UNL     1      -3.516  11.261  17.702  0.00  0.00    +0.000 A 
ATOM     29  C   UNL     1      -2.509  10.432  17.190  0.00  0.00    +0.000 A 
ATOM     30  C   UNL     1      -1.312  10.262  17.887  0.00  0.00    +0.000 A 
ATOM     31  C   UNL     1      -1.116  10.933  19.097  0.00  0.00    +0.000 A 
ATOM     32  C   UNL     1      -2.110  11.760  19.622  0.00  0.00    +0.000 A 
ATOM     33  C   UNL     1      -3.308  11.922  18.922  0.00  0.00    +0.000 A 
ENDBRANCH  24  31
ENDBRANCH  22  24
ENDBRANCH  21  22
ENDBRANCH   1  21
TORSDOF 7
ENDMDL
MODEL 9
REMARK VINA RESULT:      -8.0      5.067      7.903
REMARK  Name = 
REMARK  9 active torsions:
REMARK  status: ('A' for Active; 'I' for Inactive)
REMARK    1  A    between atoms: C_1  and  C_2
REMARK    2  A    between atoms: C_5  and  S_6
REMARK    3  A    between atoms: S_6  and  N_9
REMARK    4  A    between atoms: N_9  and  C_10
REMARK    5  A    between atoms: C_10  and  C_11
REMARK    6  A    between atoms: C_13  and  C_14
REMARK    7  A    between atoms: C_15  and  C_16
REMARK    8  A    between atoms: N_18  and  N_19
REMARK    9  A    between atoms: C_20  and  C_22
REMARK                            x       y       z     vdW  Elec       q    Type
REMARK                         _______ _______ _______ _____ _____    ______ ____
ROOT
ATOM      1  C   UNL     1       2.362   7.154  19.147  0.00  0.00    +0.000 A 
ATOM      2  N   UNL     1       1.897   7.349  20.367  0.00  0.00    +0.000 NA
ATOM      3  C   UNL     1       1.239   8.576  20.440  0.00  0.00    +0.000 A 
ATOM      4  C   UNL     1       0.617   8.945  21.743  0.00  0.00    +0.000 C 
ATOM      5  C   UNL     1       1.242   9.321  19.265  0.00  0.00    +0.000 A 
ATOM      6  S   UNL     1       2.067   8.434  18.044  0.00  0.00    +0.000 S 
ENDROOT
BRANCH   5   7
ATOM      7  C   UNL     1       0.663  10.634  19.006  0.00  0.00    +0.000 C 
ATOM      8  O   UNL     1      -0.513  10.921  19.244  0.00  0.00    +0.000 OA
ATOM      9  N   UNL     1       1.522  11.579  18.464  0.00  0.00    +0.000 N 
ATOM     10  H   UNL     1       2.519  11.405  18.347  0.00  0.00    +0.000 HD
BRANCH   9  11
ATOM     11  N   UNL     1       1.089  12.897  18.234  0.00  0.00    +0.000 N 
ATOM     12  C   UNL     1       1.741  13.911  18.913  0.00  0.00    +0.000 C 
ATOM     13  O   UNL     1       2.681  13.695  19.677  0.00  0.00    +0.000 OA
ATOM     14  H   UNL     1       0.175  13.012  17.799  0.00  0.00    +0.000 HD
BRANCH  12  15
ATOM     15  C   UNL     1       1.247  15.297  18.692  0.00  0.00    +0.000 A 
ATOM     16  C   UNL     1      -0.137  15.515  18.625  0.00  0.00    +0.000 A 
ATOM     17  C   UNL     1      -0.638  16.808  18.454  0.00  0.00    +0.000 A 
ATOM     18  C   UNL     1       0.237  17.890  18.366  0.00  0.00    +0.000 A 
ATOM     19  C   UNL     1       1.614  17.682  18.453  0.00  0.00    +0.000 A 
ATOM     20  C   UNL     1       2.122  16.388  18.613  0.00  0.00    +0.000 A 
ENDBRANCH  12  15
ENDBRANCH   9  11
ENDBRANCH   5   7
BRANCH   1  21
ATOM     21  C   UNL     1       3.142   5.942  18.696  0.00  0.00    +0.000 C 
BRANCH  21  22
ATOM     22  N   UNL     1       4.554   6.098  19.057  0.00  0.00    +0.000 NA
ATOM     23  H   UNL     1       4.999   6.958  18.733  0.00  0.00    +0.000 HD
BRANCH  22  24
ATOM     24  S   UNL     1       5.516   4.731  19.038  0.00  0.00    +0.000 S 
ATOM     25  O   UNL     1       4.698   3.618  19.469  0.00  0.00    +0.000 OA
ATOM     26  O   UNL     1       6.759   5.067  19.693  0.00  0.00    +0.000 OA
BRANCH  24  31
ATOM     27  C   UNL     1       6.615   4.118  13.097  0.00  0.00    +0.000 C 
ATOM     28  C   UNL     1       6.362   4.236  14.572  0.00  0.00    +0.000 A 
ATOM     29  C   UNL     1       5.209   3.682  15.146  0.00  0.00    +0.000 A 
ATOM     30  C   UNL     1       4.965   3.820  16.513  0.00  0.00    +0.000 A 
ATOM     31  C   UNL     1       5.883   4.508  17.313  0.00  0.00    +0.000 A 
ATOM     32  C   UNL     1       7.034   5.067  16.756  0.00  0.00    +0.000 A 
ATOM     33  C   UNL     1       7.270   4.929  15.386  0.00  0.00    +0.000 A 
ENDBRANCH  24  31
ENDBRANCH  22  24
ENDBRANCH  21  22
ENDBRANCH   1  21
TORSDOF 7
ENDMDL
