MODEL 1
REMARK VINA RESULT:      -6.9      0.000      0.000
REMARK  Name = 
REMARK  8 active torsions:
REMARK  status: ('A' for Active; 'I' for Inactive)
REMARK    1  A    between atoms: C_1  and  C_2
REMARK    2  A    between atoms: C_2  and  C_3
REMARK    3  A    between atoms: C_3  and  C_4
REMARK    4  A    between atoms: C_4  and  O_5
REMARK    5  A    between atoms: C_10  and  C_12
REMARK    6  A    between atoms: C_15  and  C_16
REMARK    7  A    between atoms: C_16  and  O_17
REMARK    8  A    between atoms: O_17  and  C_18
REMARK                            x       y       z     vdW  Elec       q    Type
REMARK                         _______ _______ _______ _____ _____    ______ ____
ROOT
ATOM      1  C   UNL     1       2.183   3.278  20.101  0.00  0.00    +0.000 C 
ATOM      2  C   UNL     1       1.104   3.309  18.977  0.00  0.00    +0.000 C 
ATOM      3  C   UNL     1       1.583   3.974  17.682  0.00  0.00    +0.000 C 
ATOM      4  C   UNL     1       2.165   5.354  17.980  0.00  0.00    +0.000 C 
ATOM      5  N   UNL     1       3.242   5.217  18.951  0.00  0.00    +0.000 N 
ATOM      6  C   UNL     1       4.617   5.420  18.725  0.00  0.00    +0.000 C 
ATOM      7  O   UNL     1       5.399   5.357  19.675  0.00  0.00    +0.000 OA
ATOM      8  C   UNL     1       2.801   4.700  20.250  0.00  0.00    +0.000 C 
ENDROOT
BRANCH   6   9
ATOM      9  C   UNL     1       5.101   5.667  17.365  0.00  0.00    +0.000 A 
ATOM     10  C   UNL     1       4.900   6.724  16.497  0.00  0.00    +0.000 A 
ATOM     11  C   UNL     1       5.559   6.559  15.247  0.00  0.00    +0.000 A 
ATOM     12  C   UNL     1       6.170   5.328  15.142  0.00  0.00    +0.000 A 
ATOM     13  S   UNL     1       6.003   4.423  16.583  0.00  0.00    +0.000 S 
BRANCH  12  14
ATOM     14  C   UNL     1       6.877   4.756  13.956  0.00  0.00    +0.000 C 
BRANCH  14  15
ATOM     15  O   UNL     1       6.232   3.520  13.649  0.00  0.00    +0.000 OA
ATOM     16  C   UNL     1       6.054   3.366  12.249  0.00  0.00    +0.000 C 
ENDBRANCH  14  15
ENDBRANCH  12  14
ENDBRANCH   6   9
BRANCH   1  18
ATOM     17  C   UNL     1       3.247   1.550  18.446  0.00  0.00    +0.000 C 
ATOM     18  C   UNL     1       3.341   2.281  19.779  0.00  0.00    +0.000 C 
ENDBRANCH   1  18
BRANCH   1  19
ATOM     19  C   UNL     1       1.470   2.904  21.424  0.00  0.00    +0.000 C 
BRANCH  19  20
ATOM     20  O   UNL     1       2.339   2.263  22.345  0.00  0.00    +0.000 OA
ATOM     21  H   UNL     1       1.803   1.922  23.082  0.00  0.00    +0.000 HD
ENDBRANCH  19  20
ENDBRANCH   1  19
TORSDOF 6
ENDMDL
MODEL 2
REMARK VINA RESULT:      -6.7      0.917      1.169
REMARK  Name = 
REMARK  8 active torsions:
REMARK  status: ('A' for Active; 'I' for Inactive)
REMARK    1  A    between atoms: C_1  and  C_2
REMARK    2  A    between atoms: C_2  and  C_3
REMARK    3  A    between atoms: C_3  and  C_4
REMARK    4  A    between atoms: C_4  and  O_5
REMARK    5  A    between atoms: C_10  and  C_12
REMARK    6  A    between atoms: C_15  and  C_16
REMARK    7  A    between atoms: C_16  and  O_17
REMARK    8  A    between atoms: O_17  and  C_18
REMARK                            x       y       z     vdW  Elec       q    Type
REMARK                         _______ _______ _______ _____ _____    ______ ____
ROOT
ATOM      1  C   UNL     1       2.178   2.979  20.022  0.00  0.00    +0.000 C 
ATOM      2  C   UNL     1       1.088   3.050  18.911  0.00  0.00    +0.000 C 
ATOM      3  C   UNL     1       1.542   3.793  17.650  0.00  0.00    +0.000 C 
ATOM      4  C   UNL     1       2.100   5.165  18.017  0.00  0.00    +0.000 C 
ATOM      5  N   UNL     1       3.190   4.997  18.969  0.00  0.00    +0.000 N 
ATOM      6  C   UNL     1       4.558   5.238  18.742  0.00  0.00    +0.000 C 
ATOM      7  O   UNL     1       5.350   5.139  19.681  0.00  0.00    +0.000 OA
ATOM      8  C   UNL     1       2.771   4.403  20.243  0.00  0.00    +0.000 C 
ENDROOT
BRANCH   6   9
ATOM      9  C   UNL     1       5.024   5.568  17.393  0.00  0.00    +0.000 A 
ATOM     10  C   UNL     1       4.806   6.672  16.591  0.00  0.00    +0.000 A 
ATOM     11  C   UNL     1       5.451   6.584  15.326  0.00  0.00    +0.000 A 
ATOM     12  C   UNL     1       6.068   5.366  15.141  0.00  0.00    +0.000 A 
ATOM     13  S   UNL     1       5.923   4.377  16.529  0.00  0.00    +0.000 S 
BRANCH  12  14
ATOM     14  C   UNL     1       6.763   4.868  13.916  0.00  0.00    +0.000 C 
BRANCH  14  15
ATOM     15  O   UNL     1       8.037   5.510  13.876  0.00  0.00    +0.000 OA
ATOM     16  C   UNL     1       8.411   5.831  12.545  0.00  0.00    +0.000 C 
ENDBRANCH  14  15
ENDBRANCH  12  14
ENDBRANCH   6   9
BRANCH   1  18
ATOM     17  C   UNL     1       4.523   1.974  20.609  0.00  0.00    +0.000 C 
ATOM     18  C   UNL     1       3.351   2.024  19.637  0.00  0.00    +0.000 C 
ENDBRANCH   1  18
BRANCH   1  19
ATOM     19  C   UNL     1       1.486   2.521  21.329  0.00  0.00    +0.000 C 
BRANCH  19  20
ATOM     20  O   UNL     1       1.975   3.207  22.471  0.00  0.00    +0.000 OA
ATOM     21  H   UNL     1       2.133   4.134  22.225  0.00  0.00    +0.000 HD
ENDBRANCH  19  20
ENDBRANCH   1  19
TORSDOF 6
ENDMDL
MODEL 3
REMARK VINA RESULT:      -6.7      1.097      1.156
REMARK  Name = 
REMARK  8 active torsions:
REMARK  status: ('A' for Active; 'I' for Inactive)
REMARK    1  A    between atoms: C_1  and  C_2
REMARK    2  A    between atoms: C_2  and  C_3
REMARK    3  A    between atoms: C_3  and  C_4
REMARK    4  A    between atoms: C_4  and  O_5
REMARK    5  A    between atoms: C_10  and  C_12
REMARK    6  A    between atoms: C_15  and  C_16
REMARK    7  A    between atoms: C_16  and  O_17
REMARK    8  A    between atoms: O_17  and  C_18
REMARK                            x       y       z     vdW  Elec       q    Type
REMARK                         _______ _______ _______ _____ _____    ______ ____
ROOT
ATOM      1  C   UNL     1       2.580   3.731  20.021  0.00  0.00    +0.000 C 
ATOM      2  C   UNL     1       1.527   4.091  18.931  0.00  0.00    +0.000 C 
ATOM      3  C   UNL     1       2.146   4.511  17.592  0.00  0.00    +0.000 C 
ATOM      4  C   UNL     1       3.173   5.619  17.809  0.00  0.00    +0.000 C 
ATOM      5  N   UNL     1       4.182   5.155  18.751  0.00  0.00    +0.000 N 
ATOM      6  C   UNL     1       5.533   4.869  18.475  0.00  0.00    +0.000 C 
ATOM      7  O   UNL     1       6.288   4.574  19.402  0.00  0.00    +0.000 OA
ATOM      8  C   UNL     1       3.650   4.862  20.086  0.00  0.00    +0.000 C 
ENDROOT
BRANCH   6   9
ATOM      9  C   UNL     1       6.011   4.893  17.090  0.00  0.00    +0.000 A 
ATOM     10  C   UNL     1       6.784   5.809  16.401  0.00  0.00    +0.000 A 
ATOM     11  C   UNL     1       7.014   5.443  15.046  0.00  0.00    +0.000 A 
ATOM     12  C   UNL     1       6.327   4.302  14.692  0.00  0.00    +0.000 A 
ATOM     13  S   UNL     1       5.476   3.649  16.023  0.00  0.00    +0.000 S 
BRANCH  12  14
ATOM     14  C   UNL     1       6.245   3.665  13.343  0.00  0.00    +0.000 C 
BRANCH  14  15
ATOM     15  O   UNL     1       4.895   3.806  12.902  0.00  0.00    +0.000 OA
ATOM     16  C   UNL     1       4.691   3.165  11.652  0.00  0.00    +0.000 C 
ENDBRANCH  14  15
ENDBRANCH  12  14
ENDBRANCH   6   9
BRANCH   1  18
ATOM     17  C   UNL     1       2.955   1.716  18.391  0.00  0.00    +0.000 C 
ATOM     18  C   UNL     1       3.316   2.390  19.710  0.00  0.00    +0.000 C 
ENDBRANCH   1  18
BRANCH   1  19
ATOM     19  C   UNL     1       1.842   3.665  21.381  0.00  0.00    +0.000 C 
BRANCH  19  20
ATOM     20  O   UNL     1       2.092   2.454  22.075  0.00  0.00    +0.000 OA
ATOM     21  H   UNL     1       1.263   1.947  22.112  0.00  0.00    +0.000 HD
ENDBRANCH  19  20
ENDBRANCH   1  19
TORSDOF 6
ENDMDL
MODEL 4
REMARK VINA RESULT:      -6.5      1.210      1.263
REMARK  Name = 
REMARK  8 active torsions:
REMARK  status: ('A' for Active; 'I' for Inactive)
REMARK    1  A    between atoms: C_1  and  C_2
REMARK    2  A    between atoms: C_2  and  C_3
REMARK    3  A    between atoms: C_3  and  C_4
REMARK    4  A    between atoms: C_4  and  O_5
REMARK    5  A    between atoms: C_10  and  C_12
REMARK    6  A    between atoms: C_15  and  C_16
REMARK    7  A    between atoms: C_16  and  O_17
REMARK    8  A    between atoms: O_17  and  C_18
REMARK                            x       y       z     vdW  Elec       q    Type
REMARK                         _______ _______ _______ _____ _____    ______ ____
ROOT
ATOM      1  C   UNL     1       2.085   3.356  19.886  0.00  0.00    +0.000 C 
ATOM      2  C   UNL     1       1.217   3.892  18.709  0.00  0.00    +0.000 C 
ATOM      3  C   UNL     1       2.027   4.610  17.624  0.00  0.00    +0.000 C 
ATOM      4  C   UNL     1       2.905   5.691  18.248  0.00  0.00    +0.000 C 
ATOM      5  N   UNL     1       3.766   5.083  19.254  0.00  0.00    +0.000 N 
ATOM      6  C   UNL     1       5.163   4.921  19.188  0.00  0.00    +0.000 C 
ATOM      7  O   UNL     1       5.763   4.470  20.166  0.00  0.00    +0.000 OA
ATOM      8  C   UNL     1       3.031   4.493  20.378  0.00  0.00    +0.000 C 
ENDROOT
BRANCH   6   9
ATOM      9  C   UNL     1       5.876   5.255  17.953  0.00  0.00    +0.000 A 
ATOM     10  C   UNL     1       6.606   6.371  17.587  0.00  0.00    +0.000 A 
ATOM     11  C   UNL     1       7.135   6.290  16.270  0.00  0.00    +0.000 A 
ATOM     12  C   UNL     1       6.713   5.155  15.610  0.00  0.00    +0.000 A 
ATOM     13  S   UNL     1       5.748   4.170  16.620  0.00  0.00    +0.000 S 
BRANCH  12  14
ATOM     14  C   UNL     1       6.980   4.769  14.192  0.00  0.00    +0.000 C 
BRANCH  14  15
ATOM     15  O   UNL     1       7.972   5.669  13.700  0.00  0.00    +0.000 OA
ATOM     16  C   UNL     1       8.129   5.545  12.294  0.00  0.00    +0.000 C 
ENDBRANCH  14  15
ENDBRANCH  12  14
ENDBRANCH   6   9
BRANCH   1  18
ATOM     17  C   UNL     1       2.979   1.806  17.975  0.00  0.00    +0.000 C 
ATOM     18  C   UNL     1       2.972   2.144  19.461  0.00  0.00    +0.000 C 
ENDBRANCH   1  18
BRANCH   1  19
ATOM     19  C   UNL     1       1.126   2.974  21.040  0.00  0.00    +0.000 C 
BRANCH  19  20
ATOM     20  O   UNL     1       1.819   2.621  22.227  0.00  0.00    +0.000 OA
ATOM     21  H   UNL     1       1.467   3.158  22.957  0.00  0.00    +0.000 HD
ENDBRANCH  19  20
ENDBRANCH   1  19
TORSDOF 6
ENDMDL
MODEL 5
REMARK VINA RESULT:      -6.5      3.557      5.527
REMARK  Name = 
REMARK  8 active torsions:
REMARK  status: ('A' for Active; 'I' for Inactive)
REMARK    1  A    between atoms: C_1  and  C_2
REMARK    2  A    between atoms: C_2  and  C_3
REMARK    3  A    between atoms: C_3  and  C_4
REMARK    4  A    between atoms: C_4  and  O_5
REMARK    5  A    between atoms: C_10  and  C_12
REMARK    6  A    between atoms: C_15  and  C_16
REMARK    7  A    between atoms: C_16  and  O_17
REMARK    8  A    between atoms: O_17  and  C_18
REMARK                            x       y       z     vdW  Elec       q    Type
REMARK                         _______ _______ _______ _____ _____    ______ ____
ROOT
ATOM      1  C   UNL     1       2.831   2.668  18.703  0.00  0.00    +0.000 C 
ATOM      2  C   UNL     1       1.442   2.404  19.356  0.00  0.00    +0.000 C 
ATOM      3  C   UNL     1       0.741   3.676  19.846  0.00  0.00    +0.000 C 
ATOM      4  C   UNL     1       1.674   4.480  20.749  0.00  0.00    +0.000 C 
ATOM      5  N   UNL     1       2.898   4.782  20.020  0.00  0.00    +0.000 N 
ATOM      6  C   UNL     1       3.328   6.046  19.571  0.00  0.00    +0.000 C 
ATOM      7  O   UNL     1       4.438   6.153  19.049  0.00  0.00    +0.000 OA
ATOM      8  C   UNL     1       3.666   3.591  19.641  0.00  0.00    +0.000 C 
ENDROOT
BRANCH   6   9
ATOM      9  C   UNL     1       2.439   7.203  19.701  0.00  0.00    +0.000 A 
ATOM     10  C   UNL     1       1.651   7.643  20.748  0.00  0.00    +0.000 A 
ATOM     11  C   UNL     1       0.927   8.830  20.447  0.00  0.00    +0.000 A 
ATOM     12  C   UNL     1       1.094   9.221  19.136  0.00  0.00    +0.000 A 
ATOM     13  S   UNL     1       2.184   8.192  18.312  0.00  0.00    +0.000 S 
BRANCH  12  14
ATOM     14  C   UNL     1       0.429  10.355  18.428  0.00  0.00    +0.000 C 
BRANCH  14  15
ATOM     15  O   UNL     1      -0.962  10.275  18.738  0.00  0.00    +0.000 OA
ATOM     16  C   UNL     1      -1.743  10.098  17.565  0.00  0.00    +0.000 C 
ENDBRANCH  14  15
ENDBRANCH  12  14
ENDBRANCH   6   9
BRANCH   1  18
ATOM     17  C   UNL     1       4.015   3.798  16.659  0.00  0.00    +0.000 C 
ATOM     18  C   UNL     1       2.707   3.377  17.317  0.00  0.00    +0.000 C 
ENDBRANCH   1  18
BRANCH   1  19
ATOM     19  C   UNL     1       3.555   1.306  18.575  0.00  0.00    +0.000 C 
BRANCH  19  20
ATOM     20  O   UNL     1       4.736   1.242  19.359  0.00  0.00    +0.000 OA
ATOM     21  H   UNL     1       4.558   0.682  20.133  0.00  0.00    +0.000 HD
ENDBRANCH  19  20
ENDBRANCH   1  19
TORSDOF 6
ENDMDL
MODEL 6
REMARK VINA RESULT:      -6.4      3.727      5.982
REMARK  Name = 
REMARK  8 active torsions:
REMARK  status: ('A' for Active; 'I' for Inactive)
REMARK    1  A    between atoms: C_1  and  C_2
REMARK    2  A    between atoms: C_2  and  C_3
REMARK    3  A    between atoms: C_3  and  C_4
REMARK    4  A    between atoms: C_4  and  O_5
REMARK    5  A    between atoms: C_10  and  C_12
REMARK    6  A    between atoms: C_15  and  C_16
REMARK    7  A    between atoms: C_16  and  O_17
REMARK    8  A    between atoms: O_17  and  C_18
REMARK                            x       y       z     vdW  Elec       q    Type
REMARK                         _______ _______ _______ _____ _____    ______ ____
ROOT
ATOM      1  C   UNL     1       2.978   2.955  18.947  0.00  0.00    +0.000 C 
ATOM      2  C   UNL     1       1.679   2.786  19.790  0.00  0.00    +0.000 C 
ATOM      3  C   UNL     1       0.948   4.105  20.062  0.00  0.00    +0.000 C 
ATOM      4  C   UNL     1       1.909   5.130  20.658  0.00  0.00    +0.000 C 
ATOM      5  N   UNL     1       3.034   5.312  19.751  0.00  0.00    +0.000 N 
ATOM      6  C   UNL     1       3.335   6.459  18.992  0.00  0.00    +0.000 C 
ATOM      7  O   UNL     1       4.380   6.492  18.340  0.00  0.00    +0.000 OA
ATOM      8  C   UNL     1       3.838   4.100  19.562  0.00  0.00    +0.000 C 
ENDROOT
BRANCH   6   9
ATOM      9  C   UNL     1       2.389   7.577  18.960  0.00  0.00    +0.000 A 
ATOM     10  C   UNL     1       1.973   8.399  17.930  0.00  0.00    +0.000 A 
ATOM     11  C   UNL     1       1.029   9.381  18.340  0.00  0.00    +0.000 A 
ATOM     12  C   UNL     1       0.815   9.359  19.701  0.00  0.00    +0.000 A 
ATOM     13  S   UNL     1       1.700   8.103  20.451  0.00  0.00    +0.000 S 
BRANCH  12  14
ATOM     14  C   UNL     1      -0.029  10.289  20.510  0.00  0.00    +0.000 C 
BRANCH  14  15
ATOM     15  O   UNL     1      -0.491   9.549  21.639  0.00  0.00    +0.000 OA
ATOM     16  C   UNL     1      -0.519  10.355  22.808  0.00  0.00    +0.000 C 
ENDBRANCH  14  15
ENDBRANCH  12  14
ENDBRANCH   6   9
BRANCH   1  18
ATOM     17  C   UNL     1       3.882   3.640  16.587  0.00  0.00    +0.000 C 
ATOM     18  C   UNL     1       2.674   3.326  17.461  0.00  0.00    +0.000 C 
ENDBRANCH   1  18
BRANCH   1  19
ATOM     19  C   UNL     1       3.774   1.630  19.043  0.00  0.00    +0.000 C 
BRANCH  19  20
ATOM     20  O   UNL     1       4.976   1.771  19.784  0.00  0.00    +0.000 OA
ATOM     21  H   UNL     1       4.760   2.178  20.640  0.00  0.00    +0.000 HD
ENDBRANCH  19  20
ENDBRANCH   1  19
TORSDOF 6
ENDMDL
MODEL 7
REMARK VINA RESULT:      -6.2      3.665      5.673
REMARK  Name = 
REMARK  8 active torsions:
REMARK  status: ('A' for Active; 'I' for Inactive)
REMARK    1  A    between atoms: C_1  and  C_2
REMARK    2  A    between atoms: C_2  and  C_3
REMARK    3  A    between atoms: C_3  and  C_4
REMARK    4  A    between atoms: C_4  and  O_5
REMARK    5  A    between atoms: C_10  and  C_12
REMARK    6  A    between atoms: C_15  and  C_16
REMARK    7  A    between atoms: C_16  and  O_17
REMARK    8  A    between atoms: O_17  and  C_18
REMARK                            x       y       z     vdW  Elec       q    Type
REMARK                         _______ _______ _______ _____ _____    ______ ____
ROOT
ATOM      1  C   UNL     1       2.808   2.717  18.761  0.00  0.00    +0.000 C 
ATOM      2  C   UNL     1       1.507   2.457  19.576  0.00  0.00    +0.000 C 
ATOM      3  C   UNL     1       0.840   3.736  20.095  0.00  0.00    +0.000 C 
ATOM      4  C   UNL     1       1.852   4.589  20.855  0.00  0.00    +0.000 C 
ATOM      5  N   UNL     1       2.980   4.882  19.982  0.00  0.00    +0.000 N 
ATOM      6  C   UNL     1       3.331   6.133  19.440  0.00  0.00    +0.000 C 
ATOM      7  O   UNL     1       4.373   6.238  18.792  0.00  0.00    +0.000 OA
ATOM      8  C   UNL     1       3.725   3.689  19.563  0.00  0.00    +0.000 C 
ENDROOT
BRANCH   6   9
ATOM      9  C   UNL     1       2.439   7.281  19.626  0.00  0.00    +0.000 A 
ATOM     10  C   UNL     1       1.690   7.695  20.712  0.00  0.00    +0.000 A 
ATOM     11  C   UNL     1       0.945   8.880  20.461  0.00  0.00    +0.000 A 
ATOM     12  C   UNL     1       1.057   9.297  19.152  0.00  0.00    +0.000 A 
ATOM     13  S   UNL     1       2.121   8.293  18.268  0.00  0.00    +0.000 S 
BRANCH  12  14
ATOM     14  C   UNL     1       0.355  10.438  18.493  0.00  0.00    +0.000 C 
BRANCH  14  15
ATOM     15  O   UNL     1       1.151  11.601  18.724  0.00  0.00    +0.000 OA
ATOM     16  C   UNL     1       0.493  12.511  19.592  0.00  0.00    +0.000 C 
ENDBRANCH  14  15
ENDBRANCH  12  14
ENDBRANCH   6   9
BRANCH   1  18
ATOM     17  C   UNL     1       3.731   3.805  16.565  0.00  0.00    +0.000 C 
ATOM     18  C   UNL     1       2.515   3.368  17.373  0.00  0.00    +0.000 C 
ENDBRANCH   1  18
BRANCH   1  19
ATOM     19  C   UNL     1       3.541   1.362  18.602  0.00  0.00    +0.000 C 
BRANCH  19  20
ATOM     20  O   UNL     1       4.700   1.273  19.416  0.00  0.00    +0.000 OA
ATOM     21  H   UNL     1       5.459   1.594  18.901  0.00  0.00    +0.000 HD
ENDBRANCH  19  20
ENDBRANCH   1  19
TORSDOF 6
ENDMDL
MODEL 8
REMARK VINA RESULT:      -6.2      3.850      5.789
REMARK  Name = 
REMARK  8 active torsions:
REMARK  status: ('A' for Active; 'I' for Inactive)
REMARK    1  A    between atoms: C_1  and  C_2
REMARK    2  A    between atoms: C_2  and  C_3
REMARK    3  A    between atoms: C_3  and  C_4
REMARK    4  A    between atoms: C_4  and  O_5
REMARK    5  A    between atoms: C_10  and  C_12
REMARK    6  A    between atoms: C_15  and  C_16
REMARK    7  A    between atoms: C_16  and  O_17
REMARK    8  A    between atoms: O_17  and  C_18
REMARK                            x       y       z     vdW  Elec       q    Type
REMARK                         _______ _______ _______ _____ _____    ______ ____
ROOT
ATOM      1  C   UNL     1       2.979   3.023  19.060  0.00  0.00    +0.000 C 
ATOM      2  C   UNL     1       1.653   2.887  19.868  0.00  0.00    +0.000 C 
ATOM      3  C   UNL     1       0.908   4.213  20.054  0.00  0.00    +0.000 C 
ATOM      4  C   UNL     1       1.845   5.270  20.632  0.00  0.00    +0.000 C 
ATOM      5  N   UNL     1       2.998   5.415  19.755  0.00  0.00    +0.000 N 
ATOM      6  C   UNL     1       3.319   6.527  18.952  0.00  0.00    +0.000 C 
ATOM      7  O   UNL     1       4.385   6.536  18.334  0.00  0.00    +0.000 OA
ATOM      8  C   UNL     1       3.813   4.200  19.649  0.00  0.00    +0.000 C 
ENDROOT
BRANCH   6   9
ATOM      9  C   UNL     1       2.370   7.637  18.837  0.00  0.00    +0.000 A 
ATOM     10  C   UNL     1       1.942   8.370  17.746  0.00  0.00    +0.000 A 
ATOM     11  C   UNL     1       1.000   9.381  18.083  0.00  0.00    +0.000 A 
ATOM     12  C   UNL     1       0.800   9.473  19.443  0.00  0.00    +0.000 A 
ATOM     13  S   UNL     1       1.696   8.285  20.286  0.00  0.00    +0.000 S 
BRANCH  12  14
ATOM     14  C   UNL     1      -0.038  10.465  20.180  0.00  0.00    +0.000 C 
BRANCH  14  15
ATOM     15  O   UNL     1      -0.470  11.431  19.222  0.00  0.00    +0.000 OA
ATOM     16  C   UNL     1      -1.869  11.342  18.995  0.00  0.00    +0.000 C 
ENDBRANCH  14  15
ENDBRANCH  12  14
ENDBRANCH   6   9
BRANCH   1  18
ATOM     17  C   UNL     1       3.953   3.636  16.708  0.00  0.00    +0.000 C 
ATOM     18  C   UNL     1       2.722   3.323  17.550  0.00  0.00    +0.000 C 
ENDBRANCH   1  18
BRANCH   1  19
ATOM     19  C   UNL     1       3.776   1.708  19.244  0.00  0.00    +0.000 C 
BRANCH  19  20
ATOM     20  O   UNL     1       5.059   1.926  19.811  0.00  0.00    +0.000 OA
ATOM     21  H   UNL     1       5.718   1.481  19.252  0.00  0.00    +0.000 HD
ENDBRANCH  19  20
ENDBRANCH   1  19
TORSDOF 6
ENDMDL
MODEL 9
REMARK VINA RESULT:      -6.1      3.681      5.669
REMARK  Name = 
REMARK  8 active torsions:
REMARK  status: ('A' for Active; 'I' for Inactive)
REMARK    1  A    between atoms: C_1  and  C_2
REMARK    2  A    between atoms: C_2  and  C_3
REMARK    3  A    between atoms: C_3  and  C_4
REMARK    4  A    between atoms: C_4  and  O_5
REMARK    5  A    between atoms: C_10  and  C_12
REMARK    6  A    between atoms: C_15  and  C_16
REMARK    7  A    between atoms: C_16  and  O_17
REMARK    8  A    between atoms: O_17  and  C_18
REMARK                            x       y       z     vdW  Elec       q    Type
REMARK                         _______ _______ _______ _____ _____    ______ ____
ROOT
ATOM      1  C   UNL     1       3.228   2.623  18.458  0.00  0.00    +0.000 C 
ATOM      2  C   UNL     1       1.693   2.377  18.562  0.00  0.00    +0.000 C 
ATOM      3  C   UNL     1       0.875   3.662  18.731  0.00  0.00    +0.000 C 
ATOM      4  C   UNL     1       1.420   4.488  19.893  0.00  0.00    +0.000 C 
ATOM      5  N   UNL     1       2.829   4.770  19.657  0.00  0.00    +0.000 N 
ATOM      6  C   UNL     1       3.407   6.021  19.368  0.00  0.00    +0.000 C 
ATOM      7  O   UNL     1       4.633   6.114  19.287  0.00  0.00    +0.000 OA
ATOM      8  C   UNL     1       3.670   3.569  19.615  0.00  0.00    +0.000 C 
ENDROOT
BRANCH   6   9
ATOM      9  C   UNL     1       2.545   7.182  19.135  0.00  0.00    +0.000 A 
ATOM     10  C   UNL     1       2.290   7.923  17.996  0.00  0.00    +0.000 A 
ATOM     11  C   UNL     1       1.376   8.991  18.213  0.00  0.00    +0.000 A 
ATOM     12  C   UNL     1       1.026   9.114  19.541  0.00  0.00    +0.000 A 
ATOM     13  S   UNL     1       1.747   7.889  20.490  0.00  0.00    +0.000 S 
BRANCH  12  14
ATOM     14  C   UNL     1       0.169  10.164  20.167  0.00  0.00    +0.000 C 
BRANCH  14  15
ATOM     15  O   UNL     1       0.573  11.413  19.607  0.00  0.00    +0.000 OA
ATOM     16  C   UNL     1       1.250  12.213  20.565  0.00  0.00    +0.000 C 
ENDBRANCH  14  15
ENDBRANCH  12  14
ENDBRANCH   6   9
BRANCH   1  18
ATOM     17  C   UNL     1       5.089   3.704  16.968  0.00  0.00    +0.000 C 
ATOM     18  C   UNL     1       3.628   3.295  17.107  0.00  0.00    +0.000 C 
ENDBRANCH   1  18
BRANCH   1  19
ATOM     19  C   UNL     1       3.934   1.256  18.636  0.00  0.00    +0.000 C 
BRANCH  19  20
ATOM     20  O   UNL     1       4.958   1.299  19.618  0.00  0.00    +0.000 OA
ATOM     21  H   UNL     1       5.301   2.207  19.662  0.00  0.00    +0.000 HD
ENDBRANCH  19  20
ENDBRANCH   1  19
TORSDOF 6
ENDMDL
