MODEL 1
REMARK VINA RESULT:      -7.8      0.000      0.000
REMARK  Name = 
REMARK  5 active torsions:
REMARK  status: ('A' for Active; 'I' for Inactive)
REMARK    1  A    between atoms: C_1  and  C_2
REMARK    2  A    between atoms: C_5  and  C_6
REMARK    3  A    between atoms: C_5  and  C_7
REMARK    4  A    between atoms: C_7  and  C_8
REMARK    5  A    between atoms: N_10  and  N_11
REMARK                            x       y       z     vdW  Elec       q    Type
REMARK                         _______ _______ _______ _____ _____    ______ ____
ROOT
ATOM      1  C   UNL     1       6.288   4.548  17.603  0.00  0.00    +0.000 C 
ATOM      2  O   UNL     1       6.376   5.370  18.514  0.00  0.00    +0.000 OA
ATOM      3  N   UNL     1       5.261   3.636  17.489  0.00  0.00    +0.000 N 
ATOM      4  H   UNL     1       5.189   2.998  16.698  0.00  0.00    +0.000 HD
ENDROOT
BRANCH   3   5
ATOM      5  N   UNL     1       4.308   3.537  18.491  0.00  0.00    +0.000 N 
ATOM      6  C   UNL     1       3.034   4.023  18.346  0.00  0.00    +0.000 C 
ATOM      7  O   UNL     1       2.527   4.617  17.411  0.00  0.00    +0.000 OA
ATOM      8  C   UNL     1       2.314   3.599  19.554  0.00  0.00    +0.000 A 
ATOM      9  C   UNL     1       1.013   3.828  19.956  0.00  0.00    +0.000 A 
ATOM     10  C   UNL     1       0.611   3.268  21.175  0.00  0.00    +0.000 A 
ATOM     11  C   UNL     1       1.505   2.502  21.953  0.00  0.00    +0.000 A 
ATOM     12  C   UNL     1       2.811   2.266  21.516  0.00  0.00    +0.000 A 
ATOM     13  C   UNL     1       3.182   2.824  20.309  0.00  0.00    +0.000 A 
ATOM     14  C   UNL     1       4.436   2.697  19.569  0.00  0.00    +0.000 C 
ATOM     15  O   UNL     1       5.309   1.901  19.861  0.00  0.00    +0.000 OA
ENDBRANCH   3   5
BRANCH   1  16
ATOM     16  C   UNL     1       7.267   4.554  16.449  0.00  0.00    +0.000 C 
BRANCH  16  21
ATOM     17  C   UNL     1       5.791   3.227  12.197  0.00  0.00    +0.000 C 
ATOM     18  C   UNL     1       6.726   3.711  13.285  0.00  0.00    +0.000 C 
ATOM     19  C   UNL     1       7.404   5.022  12.972  0.00  0.00    +0.000 C 
ATOM     20  O   UNL     1       7.783   5.494  14.267  0.00  0.00    +0.000 OA
ATOM     21  C   UNL     1       6.704   5.072  15.129  0.00  0.00    +0.000 C 
ATOM     22  C   UNL     1       5.713   6.221  15.307  0.00  0.00    +0.000 C 
ATOM     23  O   UNL     1       5.995   3.992  14.483  0.00  0.00    +0.000 OA
ENDBRANCH  16  21
ENDBRANCH   1  16
TORSDOF 3
ENDMDL
MODEL 2
REMARK VINA RESULT:      -7.7      0.190      1.876
REMARK  Name = 
REMARK  5 active torsions:
REMARK  status: ('A' for Active; 'I' for Inactive)
REMARK    1  A    between atoms: C_1  and  C_2
REMARK    2  A    between atoms: C_5  and  C_6
REMARK    3  A    between atoms: C_5  and  C_7
REMARK    4  A    between atoms: C_7  and  C_8
REMARK    5  A    between atoms: N_10  and  N_11
REMARK                            x       y       z     vdW  Elec       q    Type
REMARK                         _______ _______ _______ _____ _____    ______ ____
ROOT
ATOM      1  C   UNL     1       6.061   4.422  17.545  0.00  0.00    +0.000 C 
ATOM      2  O   UNL     1       6.015   5.234  18.467  0.00  0.00    +0.000 OA
ATOM      3  N   UNL     1       5.132   3.422  17.357  0.00  0.00    +0.000 N 
ATOM      4  H   UNL     1       5.168   2.793  16.556  0.00  0.00    +0.000 HD
ENDROOT
BRANCH   3   5
ATOM      5  N   UNL     1       4.131   3.220  18.295  0.00  0.00    +0.000 N 
ATOM      6  C   UNL     1       4.362   2.603  19.497  0.00  0.00    +0.000 C 
ATOM      7  O   UNL     1       5.388   2.117  19.940  0.00  0.00    +0.000 OA
ATOM      8  C   UNL     1       3.102   2.713  20.242  0.00  0.00    +0.000 A 
ATOM      9  C   UNL     1       2.750   2.248  21.495  0.00  0.00    +0.000 A 
ATOM     10  C   UNL     1       1.455   2.532  21.943  0.00  0.00    +0.000 A 
ATOM     11  C   UNL     1       0.552   3.264  21.142  0.00  0.00    +0.000 A 
ATOM     12  C   UNL     1       0.937   3.742  19.887  0.00  0.00    +0.000 A 
ATOM     13  C   UNL     1       2.221   3.454  19.469  0.00  0.00    +0.000 A 
ATOM     14  C   UNL     1       2.923   3.871  18.257  0.00  0.00    +0.000 C 
ATOM     15  O   UNL     1       2.494   4.713  17.490  0.00  0.00    +0.000 OA
ENDBRANCH   3   5
BRANCH   1  16
ATOM     16  C   UNL     1       7.105   4.536  16.456  0.00  0.00    +0.000 C 
BRANCH  16  21
ATOM     17  C   UNL     1       5.732   3.221  12.166  0.00  0.00    +0.000 C 
ATOM     18  C   UNL     1       6.643   3.692  13.279  0.00  0.00    +0.000 C 
ATOM     19  C   UNL     1       7.349   4.992  12.983  0.00  0.00    +0.000 C 
ATOM     20  O   UNL     1       7.699   5.462  14.288  0.00  0.00    +0.000 OA
ATOM     21  C   UNL     1       6.589   5.059  15.119  0.00  0.00    +0.000 C 
ATOM     22  C   UNL     1       5.611   6.223  15.267  0.00  0.00    +0.000 C 
ATOM     23  O   UNL     1       5.882   3.988  14.455  0.00  0.00    +0.000 OA
ENDBRANCH  16  21
ENDBRANCH   1  16
TORSDOF 3
ENDMDL
MODEL 3
REMARK VINA RESULT:      -7.3      1.057      1.084
REMARK  Name = 
REMARK  5 active torsions:
REMARK  status: ('A' for Active; 'I' for Inactive)
REMARK    1  A    between atoms: C_1  and  C_2
REMARK    2  A    between atoms: C_5  and  C_6
REMARK    3  A    between atoms: C_5  and  C_7
REMARK    4  A    between atoms: C_7  and  C_8
REMARK    5  A    between atoms: N_10  and  N_11
REMARK                            x       y       z     vdW  Elec       q    Type
REMARK                         _______ _______ _______ _____ _____    ______ ____
ROOT
ATOM      1  C   UNL     1       6.550   4.289  17.235  0.00  0.00    +0.000 C 
ATOM      2  O   UNL     1       6.969   4.593  18.350  0.00  0.00    +0.000 OA
ATOM      3  N   UNL     1       5.239   3.950  16.975  0.00  0.00    +0.000 N 
ATOM      4  H   UNL     1       4.909   3.748  16.033  0.00  0.00    +0.000 HD
ENDROOT
BRANCH   3   5
ATOM      5  N   UNL     1       4.334   3.832  18.018  0.00  0.00    +0.000 N 
ATOM      6  C   UNL     1       3.714   4.918  18.581  0.00  0.00    +0.000 C 
ATOM      7  O   UNL     1       3.840   6.104  18.332  0.00  0.00    +0.000 OA
ATOM      8  C   UNL     1       2.746   4.365  19.536  0.00  0.00    +0.000 A 
ATOM      9  C   UNL     1       1.869   4.993  20.399  0.00  0.00    +0.000 A 
ATOM     10  C   UNL     1       1.048   4.175  21.186  0.00  0.00    +0.000 A 
ATOM     11  C   UNL     1       1.121   2.769  21.094  0.00  0.00    +0.000 A 
ATOM     12  C   UNL     1       2.000   2.156  20.198  0.00  0.00    +0.000 A 
ATOM     13  C   UNL     1       2.795   2.983  19.430  0.00  0.00    +0.000 A 
ATOM     14  C   UNL     1       3.746   2.644  18.372  0.00  0.00    +0.000 C 
ATOM     15  O   UNL     1       3.844   1.530  17.892  0.00  0.00    +0.000 OA
ENDBRANCH   3   5
BRANCH   1  16
ATOM     16  C   UNL     1       7.440   4.377  16.015  0.00  0.00    +0.000 C 
BRANCH  16  21
ATOM     17  C   UNL     1       5.518   3.191  11.902  0.00  0.00    +0.000 C 
ATOM     18  C   UNL     1       6.569   3.622  12.903  0.00  0.00    +0.000 C 
ATOM     19  C   UNL     1       7.254   4.919  12.551  0.00  0.00    +0.000 C 
ATOM     20  O   UNL     1       7.772   5.351  13.813  0.00  0.00    +0.000 OA
ATOM     21  C   UNL     1       6.769   4.942  14.767  0.00  0.00    +0.000 C 
ATOM     22  C   UNL     1       5.837   6.115  15.063  0.00  0.00    +0.000 C 
ATOM     23  O   UNL     1       5.966   3.898  14.172  0.00  0.00    +0.000 OA
ENDBRANCH  16  21
ENDBRANCH   1  16
TORSDOF 3
ENDMDL
MODEL 4
REMARK VINA RESULT:      -7.2      3.763      5.085
REMARK  Name = 
REMARK  5 active torsions:
REMARK  status: ('A' for Active; 'I' for Inactive)
REMARK    1  A    between atoms: C_1  and  C_2
REMARK    2  A    between atoms: C_5  and  C_6
REMARK    3  A    between atoms: C_5  and  C_7
REMARK    4  A    between atoms: C_7  and  C_8
REMARK    5  A    between atoms: N_10  and  N_11
REMARK                            x       y       z     vdW  Elec       q    Type
REMARK                         _______ _______ _______ _____ _____    ______ ____
ROOT
ATOM      1  C   UNL     1       2.845   5.106  17.882  0.00  0.00    +0.000 C 
ATOM      2  O   UNL     1       1.643   5.043  17.631  0.00  0.00    +0.000 OA
ATOM      3  N   UNL     1       3.408   6.058  18.705  0.00  0.00    +0.000 N 
ATOM      4  H   UNL     1       4.400   6.058  18.933  0.00  0.00    +0.000 HD
ENDROOT
BRANCH   3   5
ATOM      5  N   UNL     1       2.625   7.082  19.217  0.00  0.00    +0.000 N 
ATOM      6  C   UNL     1       2.296   8.194  18.485  0.00  0.00    +0.000 C 
ATOM      7  O   UNL     1       2.618   8.504  17.351  0.00  0.00    +0.000 OA
ATOM      8  C   UNL     1       1.359   8.951  19.323  0.00  0.00    +0.000 A 
ATOM      9  C   UNL     1       0.726  10.160  19.105  0.00  0.00    +0.000 A 
ATOM     10  C   UNL     1      -0.138  10.620  20.106  0.00  0.00    +0.000 A 
ATOM     11  C   UNL     1      -0.349   9.873  21.284  0.00  0.00    +0.000 A 
ATOM     12  C   UNL     1       0.284   8.643  21.474  0.00  0.00    +0.000 A 
ATOM     13  C   UNL     1       1.128   8.207  20.471  0.00  0.00    +0.000 A 
ATOM     14  C   UNL     1       1.865   6.951  20.352  0.00  0.00    +0.000 C 
ATOM     15  O   UNL     1       1.690   5.999  21.090  0.00  0.00    +0.000 OA
ENDBRANCH   3   5
BRANCH   1  16
ATOM     16  C   UNL     1       3.804   4.048  17.383  0.00  0.00    +0.000 C 
BRANCH  16  21
ATOM     17  C   UNL     1       7.836   6.090  18.646  0.00  0.00    +0.000 C 
ATOM     18  C   UNL     1       6.406   5.954  18.167  0.00  0.00    +0.000 C 
ATOM     19  C   UNL     1       6.142   6.610  16.834  0.00  0.00    +0.000 C 
ATOM     20  O   UNL     1       4.963   5.936  16.383  0.00  0.00    +0.000 OA
ATOM     21  C   UNL     1       5.130   4.580  16.847  0.00  0.00    +0.000 C 
ATOM     22  C   UNL     1       5.712   3.723  15.725  0.00  0.00    +0.000 C 
ATOM     23  O   UNL     1       6.089   4.578  17.929  0.00  0.00    +0.000 OA
ENDBRANCH  16  21
ENDBRANCH   1  16
TORSDOF 3
ENDMDL
MODEL 5
REMARK VINA RESULT:      -7.1      3.632      5.167
REMARK  Name = 
REMARK  5 active torsions:
REMARK  status: ('A' for Active; 'I' for Inactive)
REMARK    1  A    between atoms: C_1  and  C_2
REMARK    2  A    between atoms: C_5  and  C_6
REMARK    3  A    between atoms: C_5  and  C_7
REMARK    4  A    between atoms: C_7  and  C_8
REMARK    5  A    between atoms: N_10  and  N_11
REMARK                            x       y       z     vdW  Elec       q    Type
REMARK                         _______ _______ _______ _____ _____    ______ ____
ROOT
ATOM      1  C   UNL     1       2.840   4.828  17.804  0.00  0.00    +0.000 C 
ATOM      2  O   UNL     1       1.657   4.692  17.500  0.00  0.00    +0.000 OA
ATOM      3  N   UNL     1       3.304   5.794  18.672  0.00  0.00    +0.000 N 
ATOM      4  H   UNL     1       4.285   5.852  18.942  0.00  0.00    +0.000 HD
ENDROOT
BRANCH   3   5
ATOM      5  N   UNL     1       2.435   6.750  19.173  0.00  0.00    +0.000 N 
ATOM      6  C   UNL     1       1.852   6.641  20.409  0.00  0.00    +0.000 C 
ATOM      7  O   UNL     1       1.938   5.750  21.236  0.00  0.00    +0.000 OA
ATOM      8  C   UNL     1       1.129   7.902  20.614  0.00  0.00    +0.000 A 
ATOM      9  C   UNL     1       0.345   8.333  21.667  0.00  0.00    +0.000 A 
ATOM     10  C   UNL     1      -0.204   9.617  21.573  0.00  0.00    +0.000 A 
ATOM     11  C   UNL     1       0.039  10.431  20.446  0.00  0.00    +0.000 A 
ATOM     12  C   UNL     1       0.853   9.983  19.403  0.00  0.00    +0.000 A 
ATOM     13  C   UNL     1       1.387   8.716  19.521  0.00  0.00    +0.000 A 
ATOM     14  C   UNL     1       2.317   8.010  18.641  0.00  0.00    +0.000 C 
ATOM     15  O   UNL     1       2.903   8.545  17.718  0.00  0.00    +0.000 OA
ENDBRANCH   3   5
BRANCH   1  16
ATOM     16  C   UNL     1       3.887   3.848  17.322  0.00  0.00    +0.000 C 
BRANCH  16  21
ATOM     17  C   UNL     1       7.786   6.103  18.639  0.00  0.00    +0.000 C 
ATOM     18  C   UNL     1       6.366   5.890  18.161  0.00  0.00    +0.000 C 
ATOM     19  C   UNL     1       6.052   6.573  16.852  0.00  0.00    +0.000 C 
ATOM     20  O   UNL     1       4.916   5.840  16.383  0.00  0.00    +0.000 OA
ATOM     21  C   UNL     1       5.173   4.482  16.800  0.00  0.00    +0.000 C 
ATOM     22  C   UNL     1       5.803   3.702  15.648  0.00  0.00    +0.000 C 
ATOM     23  O   UNL     1       6.136   4.506  17.877  0.00  0.00    +0.000 OA
ENDBRANCH  16  21
ENDBRANCH   1  16
TORSDOF 3
ENDMDL
MODEL 6
REMARK VINA RESULT:      -7.1      1.827      7.002
REMARK  Name = 
REMARK  5 active torsions:
REMARK  status: ('A' for Active; 'I' for Inactive)
REMARK    1  A    between atoms: C_1  and  C_2
REMARK    2  A    between atoms: C_5  and  C_6
REMARK    3  A    between atoms: C_5  and  C_7
REMARK    4  A    between atoms: C_7  and  C_8
REMARK    5  A    between atoms: N_10  and  N_11
REMARK                            x       y       z     vdW  Elec       q    Type
REMARK                         _______ _______ _______ _____ _____    ______ ____
ROOT
ATOM      1  C   UNL     1       4.563   5.839  18.147  0.00  0.00    +0.000 C 
ATOM      2  O   UNL     1       4.185   6.670  17.323  0.00  0.00    +0.000 OA
ATOM      3  N   UNL     1       5.457   4.829  17.864  0.00  0.00    +0.000 N 
ATOM      4  H   UNL     1       5.788   4.183  18.579  0.00  0.00    +0.000 HD
ENDROOT
BRANCH   3   5
ATOM      5  N   UNL     1       5.902   4.641  16.565  0.00  0.00    +0.000 N 
ATOM      6  C   UNL     1       5.204   3.898  15.647  0.00  0.00    +0.000 C 
ATOM      7  O   UNL     1       4.164   3.276  15.776  0.00  0.00    +0.000 OA
ATOM      8  C   UNL     1       5.927   4.062  14.380  0.00  0.00    +0.000 A 
ATOM      9  C   UNL     1       5.692   3.523  13.130  0.00  0.00    +0.000 A 
ATOM     10  C   UNL     1       6.565   3.890  12.099  0.00  0.00    +0.000 A 
ATOM     11  C   UNL     1       7.638   4.775  12.336  0.00  0.00    +0.000 A 
ATOM     12  C   UNL     1       7.844   5.326  13.603  0.00  0.00    +0.000 A 
ATOM     13  C   UNL     1       6.966   4.953  14.602  0.00  0.00    +0.000 A 
ATOM     14  C   UNL     1       6.884   5.408  15.989  0.00  0.00    +0.000 C 
ATOM     15  O   UNL     1       7.515   6.354  16.422  0.00  0.00    +0.000 OA
ENDBRANCH   3   5
BRANCH   1  16
ATOM     16  C   UNL     1       4.148   5.935  19.599  0.00  0.00    +0.000 C 
BRANCH  16  21
ATOM     17  C   UNL     1       1.448   2.644  21.575  0.00  0.00    +0.000 C 
ATOM     18  C   UNL     1       2.219   3.390  20.507  0.00  0.00    +0.000 C 
ATOM     19  C   UNL     1       1.386   3.785  19.313  0.00  0.00    +0.000 C 
ATOM     20  O   UNL     1       2.145   4.855  18.743  0.00  0.00    +0.000 OA
ATOM     21  C   UNL     1       2.701   5.543  19.884  0.00  0.00    +0.000 C 
ATOM     22  C   UNL     1       1.816   6.735  20.243  0.00  0.00    +0.000 C 
ATOM     23  O   UNL     1       2.688   4.644  21.015  0.00  0.00    +0.000 OA
ENDBRANCH  16  21
ENDBRANCH   1  16
TORSDOF 3
ENDMDL
MODEL 7
REMARK VINA RESULT:      -7.0      3.993      6.246
REMARK  Name = 
REMARK  5 active torsions:
REMARK  status: ('A' for Active; 'I' for Inactive)
REMARK    1  A    between atoms: C_1  and  C_2
REMARK    2  A    between atoms: C_5  and  C_6
REMARK    3  A    between atoms: C_5  and  C_7
REMARK    4  A    between atoms: C_7  and  C_8
REMARK    5  A    between atoms: N_10  and  N_11
REMARK                            x       y       z     vdW  Elec       q    Type
REMARK                         _______ _______ _______ _____ _____    ______ ____
ROOT
ATOM      1  C   UNL     1       3.941   5.475  18.719  0.00  0.00    +0.000 C 
ATOM      2  O   UNL     1       4.782   6.066  19.395  0.00  0.00    +0.000 OA
ATOM      3  N   UNL     1       2.686   5.976  18.447  0.00  0.00    +0.000 N 
ATOM      4  H   UNL     1       2.027   5.487  17.844  0.00  0.00    +0.000 HD
ENDROOT
BRANCH   3   5
ATOM      5  N   UNL     1       2.271   7.162  19.034  0.00  0.00    +0.000 N 
ATOM      6  C   UNL     1       2.124   8.324  18.322  0.00  0.00    +0.000 C 
ATOM      7  O   UNL     1       2.339   8.550  17.143  0.00  0.00    +0.000 OA
ATOM      8  C   UNL     1       1.544   9.290  19.263  0.00  0.00    +0.000 A 
ATOM      9  C   UNL     1       1.208  10.620  19.101  0.00  0.00    +0.000 A 
ATOM     10  C   UNL     1       0.648  11.279  20.202  0.00  0.00    +0.000 A 
ATOM     11  C   UNL     1       0.438  10.603  21.423  0.00  0.00    +0.000 A 
ATOM     12  C   UNL     1       0.764   9.252  21.558  0.00  0.00    +0.000 A 
ATOM     13  C   UNL     1       1.310   8.623  20.457  0.00  0.00    +0.000 A 
ATOM     14  C   UNL     1       1.683   7.221  20.272  0.00  0.00    +0.000 C 
ATOM     15  O   UNL     1       1.389   6.341  21.059  0.00  0.00    +0.000 OA
ENDBRANCH   3   5
BRANCH   1  16
ATOM     16  C   UNL     1       4.272   4.173  18.025  0.00  0.00    +0.000 C 
BRANCH  16  21
ATOM     17  C   UNL     1       1.568   2.634  21.538  0.00  0.00    +0.000 C 
ATOM     18  C   UNL     1       2.804   3.113  20.807  0.00  0.00    +0.000 C 
ATOM     19  C   UNL     1       3.971   2.160  20.886  0.00  0.00    +0.000 C 
ATOM     20  O   UNL     1       4.769   2.550  19.765  0.00  0.00    +0.000 OA
ATOM     21  C   UNL     1       3.806   2.916  18.754  0.00  0.00    +0.000 C 
ATOM     22  C   UNL     1       3.569   1.732  17.819  0.00  0.00    +0.000 C 
ATOM     23  O   UNL     1       2.548   3.209  19.402  0.00  0.00    +0.000 OA
ENDBRANCH  16  21
ENDBRANCH   1  16
TORSDOF 3
ENDMDL
MODEL 8
REMARK VINA RESULT:      -6.9      4.110      5.692
REMARK  Name = 
REMARK  5 active torsions:
REMARK  status: ('A' for Active; 'I' for Inactive)
REMARK    1  A    between atoms: C_1  and  C_2
REMARK    2  A    between atoms: C_5  and  C_6
REMARK    3  A    between atoms: C_5  and  C_7
REMARK    4  A    between atoms: C_7  and  C_8
REMARK    5  A    between atoms: N_10  and  N_11
REMARK                            x       y       z     vdW  Elec       q    Type
REMARK                         _______ _______ _______ _____ _____    ______ ____
ROOT
ATOM      1  C   UNL     1       2.902   5.699  17.769  0.00  0.00    +0.000 C 
ATOM      2  O   UNL     1       1.846   5.131  18.041  0.00  0.00    +0.000 OA
ATOM      3  N   UNL     1       3.214   6.977  18.180  0.00  0.00    +0.000 N 
ATOM      4  H   UNL     1       4.117   7.405  17.979  0.00  0.00    +0.000 HD
ENDROOT
BRANCH   3   5
ATOM      5  N   UNL     1       2.271   7.738  18.854  0.00  0.00    +0.000 N 
ATOM      6  C   UNL     1       1.933   7.502  20.162  0.00  0.00    +0.000 C 
ATOM      7  O   UNL     1       2.325   6.638  20.925  0.00  0.00    +0.000 OA
ATOM      8  C   UNL     1       1.024   8.594  20.533  0.00  0.00    +0.000 A 
ATOM      9  C   UNL     1       0.356   8.850  21.715  0.00  0.00    +0.000 A 
ATOM     10  C   UNL     1      -0.439  10.001  21.766  0.00  0.00    +0.000 A 
ATOM     11  C   UNL     1      -0.547  10.859  20.650  0.00  0.00    +0.000 A 
ATOM     12  C   UNL     1       0.154  10.592  19.472  0.00  0.00    +0.000 A 
ATOM     13  C   UNL     1       0.936   9.454  19.449  0.00  0.00    +0.000 A 
ATOM     14  C   UNL     1       1.826   8.955  18.402  0.00  0.00    +0.000 C 
ATOM     15  O   UNL     1       2.137   9.605  17.421  0.00  0.00    +0.000 OA
ENDBRANCH   3   5
BRANCH   1  16
ATOM     16  C   UNL     1       4.012   4.976  17.038  0.00  0.00    +0.000 C 
BRANCH  16  21
ATOM     17  C   UNL     1       8.043   6.830  18.566  0.00  0.00    +0.000 C 
ATOM     18  C   UNL     1       7.081   6.062  17.684  0.00  0.00    +0.000 C 
ATOM     19  C   UNL     1       7.482   4.627  17.447  0.00  0.00    +0.000 C 
ATOM     20  O   UNL     1       6.245   4.016  17.067  0.00  0.00    +0.000 OA
ATOM     21  C   UNL     1       5.255   4.689  17.874  0.00  0.00    +0.000 C 
ATOM     22  C   UNL     1       4.961   3.857  19.121  0.00  0.00    +0.000 C 
ATOM     23  O   UNL     1       5.803   5.949  18.320  0.00  0.00    +0.000 OA
ENDBRANCH  16  21
ENDBRANCH   1  16
TORSDOF 3
ENDMDL
MODEL 9
REMARK VINA RESULT:      -6.9      1.146      1.776
REMARK  Name = 
REMARK  5 active torsions:
REMARK  status: ('A' for Active; 'I' for Inactive)
REMARK    1  A    between atoms: C_1  and  C_2
REMARK    2  A    between atoms: C_5  and  C_6
REMARK    3  A    between atoms: C_5  and  C_7
REMARK    4  A    between atoms: C_7  and  C_8
REMARK    5  A    between atoms: N_10  and  N_11
REMARK                            x       y       z     vdW  Elec       q    Type
REMARK                         _______ _______ _______ _____ _____    ______ ____
ROOT
ATOM      1  C   UNL     1       6.307   4.309  17.134  0.00  0.00    +0.000 C 
ATOM      2  O   UNL     1       6.671   4.377  18.307  0.00  0.00    +0.000 OA
ATOM      3  N   UNL     1       4.989   4.189  16.746  0.00  0.00    +0.000 N 
ATOM      4  H   UNL     1       4.713   4.182  15.765  0.00  0.00    +0.000 HD
ENDROOT
BRANCH   3   5
ATOM      5  N   UNL     1       3.997   4.029  17.701  0.00  0.00    +0.000 N 
ATOM      6  C   UNL     1       3.602   2.796  18.153  0.00  0.00    +0.000 C 
ATOM      7  O   UNL     1       3.978   1.686  17.820  0.00  0.00    +0.000 OA
ATOM      8  C   UNL     1       2.651   3.064  19.239  0.00  0.00    +0.000 A 
ATOM      9  C   UNL     1       1.921   2.201  20.033  0.00  0.00    +0.000 A 
ATOM     10  C   UNL     1       1.097   2.772  21.011  0.00  0.00    +0.000 A 
ATOM     11  C   UNL     1       1.022   4.173  21.171  0.00  0.00    +0.000 A 
ATOM     12  C   UNL     1       1.786   5.025  20.370  0.00  0.00    +0.000 A 
ATOM     13  C   UNL     1       2.594   4.438  19.417  0.00  0.00    +0.000 A 
ATOM     14  C   UNL     1       3.545   5.054  18.493  0.00  0.00    +0.000 C 
ATOM     15  O   UNL     1       3.888   6.220  18.562  0.00  0.00    +0.000 OA
ENDBRANCH   3   5
BRANCH   1  16
ATOM     16  C   UNL     1       7.294   4.470  15.999  0.00  0.00    +0.000 C 
BRANCH  16  21
ATOM     17  C   UNL     1       5.531   3.171  11.849  0.00  0.00    +0.000 C 
ATOM     18  C   UNL     1       6.547   3.612  12.881  0.00  0.00    +0.000 C 
ATOM     19  C   UNL     1       7.288   4.873  12.511  0.00  0.00    +0.000 C 
ATOM     20  O   UNL     1       7.759   5.340  13.778  0.00  0.00    +0.000 OA
ATOM     21  C   UNL     1       6.700   5.001  14.698  0.00  0.00    +0.000 C 
ATOM     22  C   UNL     1       5.792   6.212  14.902  0.00  0.00    +0.000 C 
ATOM     23  O   UNL     1       5.894   3.957  14.108  0.00  0.00    +0.000 OA
ENDBRANCH  16  21
ENDBRANCH   1  16
TORSDOF 3
ENDMDL
