MODEL 1
REMARK VINA RESULT:      -6.0      0.000      0.000
REMARK  Name = 
REMARK  17 active torsions:
REMARK  status: ('A' for Active; 'I' for Inactive)
REMARK    1  A    between atoms: C_1  and  C_2
REMARK    2  A    between atoms: C_2  and  C_3
REMARK    3  A    between atoms: C_3  and  C_4
REMARK    4  A    between atoms: C_4  and  C_5
REMARK    5  A    between atoms: C_5  and  C_6
REMARK    6  A    between atoms: C_7  and  C_8
REMARK    7  A    between atoms: C_8  and  C_9
REMARK    8  A    between atoms: C_10  and  C_11
REMARK    9  A    between atoms: C_11  and  C_12
REMARK   10  A    between atoms: C_13  and  C_14
REMARK   11  A    between atoms: C_14  and  C_15
REMARK   12  A    between atoms: C_15  and  C_16
REMARK   13  A    between atoms: C_16  and  C_17
REMARK   14  A    between atoms: C_17  and  C_18
REMARK   15  A    between atoms: C_18  and  C_19
REMARK   16  A    between atoms: C_19  and  C_20
REMARK   17  A    between atoms: C_20  and  O_22
REMARK                            x       y       z     vdW  Elec       q    Type
REMARK                         _______ _______ _______ _____ _____    ______ ____
ROOT
ATOM      1  C   UNL     1       2.531   2.077  17.758  0.00  0.00    +0.000 C 
ATOM      2  C   UNL     1       3.647   2.578  17.212  0.00  0.00    +0.000 C 
ENDROOT
BRANCH   1   3
ATOM      3  C   UNL     1       1.405   2.907  18.309  0.00  0.00    +0.000 C 
BRANCH   3   5
ATOM      4  C   UNL     1       1.068   3.456  20.736  0.00  0.00    +0.000 C 
ATOM      5  C   UNL     1       1.128   2.563  19.739  0.00  0.00    +0.000 C 
BRANCH   4   6
ATOM      6  C   UNL     1       1.347   4.915  20.574  0.00  0.00    +0.000 C 
BRANCH   6   8
ATOM      7  C   UNL     1       3.237   6.228  19.614  0.00  0.00    +0.000 C 
ATOM      8  C   UNL     1       2.792   5.162  20.290  0.00  0.00    +0.000 C 
BRANCH   7   9
ATOM      9  C   UNL     1       2.305   7.272  19.075  0.00  0.00    +0.000 C 
BRANCH   9  10
ATOM     10  C   UNL     1       2.827   7.951  17.821  0.00  0.00    +0.000 C 
BRANCH  10  11
ATOM     11  C   UNL     1       2.268   9.370  17.744  0.00  0.00    +0.000 C 
BRANCH  11  13
ATOM     12  C   UNL     1       0.801  10.748  19.234  0.00  0.00    +0.000 C 
ATOM     13  C   UNL     1       0.919   9.458  18.444  0.00  0.00    +0.000 C 
ENDBRANCH  11  13
ENDBRANCH  10  11
ENDBRANCH   9  10
ENDBRANCH   7   9
ENDBRANCH   6   8
ENDBRANCH   4   6
ENDBRANCH   3   5
ENDBRANCH   1   3
BRANCH   2  14
ATOM     14  C   UNL     1       3.870   4.051  17.100  0.00  0.00    +0.000 C 
BRANCH  14  15
ATOM     15  C   UNL     1       5.293   4.402  16.707  0.00  0.00    +0.000 C 
BRANCH  15  16
ATOM     16  C   UNL     1       5.276   5.695  15.901  0.00  0.00    +0.000 C 
BRANCH  16  17
ATOM     17  C   UNL     1       5.906   5.487  14.534  0.00  0.00    +0.000 C 
BRANCH  17  18
ATOM     18  C   UNL     1       5.961   4.001  14.201  0.00  0.00    +0.000 C 
BRANCH  18  19
ATOM     19  C   UNL     1       6.438   3.776  12.772  0.00  0.00    +0.000 C 
BRANCH  19  20
ATOM     20  C   UNL     1       5.455   2.933  11.998  0.00  0.00    +0.000 C 
ATOM     21  O   UNL     1       4.360   3.299  11.606  0.00  0.00    +0.000 OA
BRANCH  20  22
ATOM     22  O   UNL     1       5.925   1.685  11.768  0.00  0.00    +0.000 OA
ATOM     23  H   UNL     1       6.891   1.606  11.872  0.00  0.00    +0.000 HD
ENDBRANCH  20  22
ENDBRANCH  19  20
ENDBRANCH  18  19
ENDBRANCH  17  18
ENDBRANCH  16  17
ENDBRANCH  15  16
ENDBRANCH  14  15
ENDBRANCH   2  14
TORSDOF 16
ENDMDL
MODEL 2
REMARK VINA RESULT:      -5.9      4.054      6.527
REMARK  Name = 
REMARK  17 active torsions:
REMARK  status: ('A' for Active; 'I' for Inactive)
REMARK    1  A    between atoms: C_1  and  C_2
REMARK    2  A    between atoms: C_2  and  C_3
REMARK    3  A    between atoms: C_3  and  C_4
REMARK    4  A    between atoms: C_4  and  C_5
REMARK    5  A    between atoms: C_5  and  C_6
REMARK    6  A    between atoms: C_7  and  C_8
REMARK    7  A    between atoms: C_8  and  C_9
REMARK    8  A    between atoms: C_10  and  C_11
REMARK    9  A    between atoms: C_11  and  C_12
REMARK   10  A    between atoms: C_13  and  C_14
REMARK   11  A    between atoms: C_14  and  C_15
REMARK   12  A    between atoms: C_15  and  C_16
REMARK   13  A    between atoms: C_16  and  C_17
REMARK   14  A    between atoms: C_17  and  C_18
REMARK   15  A    between atoms: C_18  and  C_19
REMARK   16  A    between atoms: C_19  and  C_20
REMARK   17  A    between atoms: C_20  and  O_22
REMARK                            x       y       z     vdW  Elec       q    Type
REMARK                         _______ _______ _______ _____ _____    ______ ____
ROOT
ATOM      1  C   UNL     1       0.859   3.192  19.628  0.00  0.00    +0.000 C 
ATOM      2  C   UNL     1       1.039   4.224  20.462  0.00  0.00    +0.000 C 
ENDROOT
BRANCH   1   3
ATOM      3  C   UNL     1       1.454   3.097  18.251  0.00  0.00    +0.000 C 
BRANCH   3   5
ATOM      4  C   UNL     1       3.883   2.482  18.085  0.00  0.00    +0.000 C 
ATOM      5  C   UNL     1       2.597   2.131  18.221  0.00  0.00    +0.000 C 
BRANCH   4   6
ATOM      6  C   UNL     1       4.353   3.883  17.864  0.00  0.00    +0.000 C 
BRANCH   6   8
ATOM      7  C   UNL     1       6.010   5.209  19.172  0.00  0.00    +0.000 C 
ATOM      8  C   UNL     1       4.889   4.479  19.123  0.00  0.00    +0.000 C 
BRANCH   7   9
ATOM      9  C   UNL     1       6.831   5.486  17.948  0.00  0.00    +0.000 C 
BRANCH   9  10
ATOM     10  C   UNL     1       6.729   6.924  17.471  0.00  0.00    +0.000 C 
BRANCH  10  11
ATOM     11  C   UNL     1       8.048   7.642  17.745  0.00  0.00    +0.000 C 
BRANCH  11  13
ATOM     12  C   UNL     1       8.946   9.769  18.716  0.00  0.00    +0.000 C 
ATOM     13  C   UNL     1       7.824   9.139  17.912  0.00  0.00    +0.000 C 
ENDBRANCH  11  13
ENDBRANCH  10  11
ENDBRANCH   9  10
ENDBRANCH   7   9
ENDBRANCH   6   8
ENDBRANCH   4   6
ENDBRANCH   3   5
ENDBRANCH   1   3
BRANCH   2  14
ATOM     14  C   UNL     1       1.874   5.403  20.082  0.00  0.00    +0.000 C 
BRANCH  14  15
ATOM     15  C   UNL     1       1.639   6.605  20.977  0.00  0.00    +0.000 C 
BRANCH  15  16
ATOM     16  C   UNL     1       1.856   7.875  20.163  0.00  0.00    +0.000 C 
BRANCH  16  17
ATOM     17  C   UNL     1       2.437   7.548  18.797  0.00  0.00    +0.000 C 
BRANCH  17  18
ATOM     18  C   UNL     1       2.291   8.745  17.865  0.00  0.00    +0.000 C 
BRANCH  18  19
ATOM     19  C   UNL     1       0.972   9.469  18.103  0.00  0.00    +0.000 C 
BRANCH  19  20
ATOM     20  C   UNL     1       1.190  10.951  18.281  0.00  0.00    +0.000 C 
ATOM     21  O   UNL     1       0.413  11.723  18.818  0.00  0.00    +0.000 OA
BRANCH  20  22
ATOM     22  O   UNL     1       2.376  11.357  17.773  0.00  0.00    +0.000 OA
ATOM     23  H   UNL     1       2.782  10.711  17.165  0.00  0.00    +0.000 HD
ENDBRANCH  20  22
ENDBRANCH  19  20
ENDBRANCH  18  19
ENDBRANCH  17  18
ENDBRANCH  16  17
ENDBRANCH  15  16
ENDBRANCH  14  15
ENDBRANCH   2  14
TORSDOF 16
ENDMDL
MODEL 3
REMARK VINA RESULT:      -5.8      4.124      6.610
REMARK  Name = 
REMARK  17 active torsions:
REMARK  status: ('A' for Active; 'I' for Inactive)
REMARK    1  A    between atoms: C_1  and  C_2
REMARK    2  A    between atoms: C_2  and  C_3
REMARK    3  A    between atoms: C_3  and  C_4
REMARK    4  A    between atoms: C_4  and  C_5
REMARK    5  A    between atoms: C_5  and  C_6
REMARK    6  A    between atoms: C_7  and  C_8
REMARK    7  A    between atoms: C_8  and  C_9
REMARK    8  A    between atoms: C_10  and  C_11
REMARK    9  A    between atoms: C_11  and  C_12
REMARK   10  A    between atoms: C_13  and  C_14
REMARK   11  A    between atoms: C_14  and  C_15
REMARK   12  A    between atoms: C_15  and  C_16
REMARK   13  A    between atoms: C_16  and  C_17
REMARK   14  A    between atoms: C_17  and  C_18
REMARK   15  A    between atoms: C_18  and  C_19
REMARK   16  A    between atoms: C_19  and  C_20
REMARK   17  A    between atoms: C_20  and  O_22
REMARK                            x       y       z     vdW  Elec       q    Type
REMARK                         _______ _______ _______ _____ _____    ______ ____
ROOT
ATOM      1  C   UNL     1       4.077   5.793  18.086  0.00  0.00    +0.000 C 
ATOM      2  C   UNL     1       2.951   5.215  18.526  0.00  0.00    +0.000 C 
ENDROOT
BRANCH   1   3
ATOM      3  C   UNL     1       4.524   5.801  16.650  0.00  0.00    +0.000 C 
BRANCH   3   5
ATOM      4  C   UNL     1       6.060   3.906  16.056  0.00  0.00    +0.000 C 
ATOM      5  C   UNL     1       4.826   4.416  16.170  0.00  0.00    +0.000 C 
BRANCH   4   6
ATOM      6  C   UNL     1       7.314   4.674  16.320  0.00  0.00    +0.000 C 
BRANCH   6   8
ATOM      7  C   UNL     1       7.820   5.729  18.522  0.00  0.00    +0.000 C 
ATOM      8  C   UNL     1       7.680   4.633  17.766  0.00  0.00    +0.000 C 
BRANCH   7   9
ATOM      9  C   UNL     1       7.621   7.107  17.964  0.00  0.00    +0.000 C 
BRANCH   9  10
ATOM     10  C   UNL     1       8.519   8.148  18.608  0.00  0.00    +0.000 C 
BRANCH  10  11
ATOM     11  C   UNL     1       8.240   9.513  17.984  0.00  0.00    +0.000 C 
BRANCH  11  13
ATOM     12  C   UNL     1       8.976  11.904  17.872  0.00  0.00    +0.000 C 
ATOM     13  C   UNL     1       9.121  10.585  18.609  0.00  0.00    +0.000 C 
ENDBRANCH  11  13
ENDBRANCH  10  11
ENDBRANCH   9  10
ENDBRANCH   7   9
ENDBRANCH   6   8
ENDBRANCH   4   6
ENDBRANCH   3   5
ENDBRANCH   1   3
BRANCH   2  14
ATOM     14  C   UNL     1       2.017   4.511  17.597  0.00  0.00    +0.000 C 
BRANCH  14  15
ATOM     15  C   UNL     1       0.762   4.014  18.290  0.00  0.00    +0.000 C 
BRANCH  15  16
ATOM     16  C   UNL     1       1.131   2.850  19.201  0.00  0.00    +0.000 C 
BRANCH  16  17
ATOM     17  C   UNL     1       1.179   3.294  20.653  0.00  0.00    +0.000 C 
BRANCH  17  18
ATOM     18  C   UNL     1       2.464   2.805  21.310  0.00  0.00    +0.000 C 
BRANCH  18  19
ATOM     19  C   UNL     1       3.238   1.880  20.380  0.00  0.00    +0.000 C 
BRANCH  19  20
ATOM     20  C   UNL     1       4.715   2.189  20.412  0.00  0.00    +0.000 C 
ATOM     21  O   UNL     1       5.292   2.970  19.673  0.00  0.00    +0.000 OA
BRANCH  20  22
ATOM     22  O   UNL     1       5.360   1.495  21.376  0.00  0.00    +0.000 OA
ATOM     23  H   UNL     1       5.707   2.054  22.095  0.00  0.00    +0.000 HD
ENDBRANCH  20  22
ENDBRANCH  19  20
ENDBRANCH  18  19
ENDBRANCH  17  18
ENDBRANCH  16  17
ENDBRANCH  15  16
ENDBRANCH  14  15
ENDBRANCH   2  14
TORSDOF 16
ENDMDL
MODEL 4
REMARK VINA RESULT:      -5.8      2.848      7.184
REMARK  Name = 
REMARK  17 active torsions:
REMARK  status: ('A' for Active; 'I' for Inactive)
REMARK    1  A    between atoms: C_1  and  C_2
REMARK    2  A    between atoms: C_2  and  C_3
REMARK    3  A    between atoms: C_3  and  C_4
REMARK    4  A    between atoms: C_4  and  C_5
REMARK    5  A    between atoms: C_5  and  C_6
REMARK    6  A    between atoms: C_7  and  C_8
REMARK    7  A    between atoms: C_8  and  C_9
REMARK    8  A    between atoms: C_10  and  C_11
REMARK    9  A    between atoms: C_11  and  C_12
REMARK   10  A    between atoms: C_13  and  C_14
REMARK   11  A    between atoms: C_14  and  C_15
REMARK   12  A    between atoms: C_15  and  C_16
REMARK   13  A    between atoms: C_16  and  C_17
REMARK   14  A    between atoms: C_17  and  C_18
REMARK   15  A    between atoms: C_18  and  C_19
REMARK   16  A    between atoms: C_19  and  C_20
REMARK   17  A    between atoms: C_20  and  O_22
REMARK                            x       y       z     vdW  Elec       q    Type
REMARK                         _______ _______ _______ _____ _____    ______ ____
ROOT
ATOM      1  C   UNL     1       3.512   2.480  18.017  0.00  0.00    +0.000 C 
ATOM      2  C   UNL     1       2.308   2.238  18.554  0.00  0.00    +0.000 C 
ENDROOT
BRANCH   1   3
ATOM      3  C   UNL     1       4.015   3.844  17.636  0.00  0.00    +0.000 C 
BRANCH   3   5
ATOM      4  C   UNL     1       5.926   5.317  18.331  0.00  0.00    +0.000 C 
ATOM      5  C   UNL     1       5.076   4.313  18.583  0.00  0.00    +0.000 C 
BRANCH   4   6
ATOM      6  C   UNL     1       5.987   6.062  17.037  0.00  0.00    +0.000 C 
BRANCH   6   8
ATOM      7  C   UNL     1       7.238   4.745  15.329  0.00  0.00    +0.000 C 
ATOM      8  C   UNL     1       7.212   5.703  16.263  0.00  0.00    +0.000 C 
BRANCH   7   9
ATOM      9  C   UNL     1       6.020   3.941  14.984  0.00  0.00    +0.000 C 
BRANCH   9  10
ATOM     10  C   UNL     1       5.508   4.203  13.578  0.00  0.00    +0.000 C 
BRANCH  10  11
ATOM     11  C   UNL     1       6.405   3.486  12.571  0.00  0.00    +0.000 C 
BRANCH  11  13
ATOM     12  C   UNL     1       4.150   3.260  11.504  0.00  0.00    +0.000 C 
ATOM     13  C   UNL     1       5.571   2.728  11.548  0.00  0.00    +0.000 C 
ENDBRANCH  11  13
ENDBRANCH  10  11
ENDBRANCH   9  10
ENDBRANCH   7   9
ENDBRANCH   6   8
ENDBRANCH   4   6
ENDBRANCH   3   5
ENDBRANCH   1   3
BRANCH   2  14
ATOM     14  C   UNL     1       1.337   3.339  18.829  0.00  0.00    +0.000 C 
BRANCH  14  15
ATOM     15  C   UNL     1       0.777   3.291  20.238  0.00  0.00    +0.000 C 
BRANCH  15  16
ATOM     16  C   UNL     1       1.870   3.703  21.216  0.00  0.00    +0.000 C 
BRANCH  16  17
ATOM     17  C   UNL     1       2.503   5.019  20.797  0.00  0.00    +0.000 C 
BRANCH  17  18
ATOM     18  C   UNL     1       1.425   6.075  20.582  0.00  0.00    +0.000 C 
BRANCH  18  19
ATOM     19  C   UNL     1       2.038   7.460  20.421  0.00  0.00    +0.000 C 
BRANCH  19  20
ATOM     20  C   UNL     1       2.145   7.841  18.964  0.00  0.00    +0.000 C 
ATOM     21  O   UNL     1       2.682   7.176  18.094  0.00  0.00    +0.000 OA
BRANCH  20  22
ATOM     22  O   UNL     1       1.563   9.034  18.706  0.00  0.00    +0.000 OA
ATOM     23  H   UNL     1       2.160   9.676  18.279  0.00  0.00    +0.000 HD
ENDBRANCH  20  22
ENDBRANCH  19  20
ENDBRANCH  18  19
ENDBRANCH  17  18
ENDBRANCH  16  17
ENDBRANCH  15  16
ENDBRANCH  14  15
ENDBRANCH   2  14
TORSDOF 16
ENDMDL
MODEL 5
REMARK VINA RESULT:      -5.7      1.212      1.731
REMARK  Name = 
REMARK  17 active torsions:
REMARK  status: ('A' for Active; 'I' for Inactive)
REMARK    1  A    between atoms: C_1  and  C_2
REMARK    2  A    between atoms: C_2  and  C_3
REMARK    3  A    between atoms: C_3  and  C_4
REMARK    4  A    between atoms: C_4  and  C_5
REMARK    5  A    between atoms: C_5  and  C_6
REMARK    6  A    between atoms: C_7  and  C_8
REMARK    7  A    between atoms: C_8  and  C_9
REMARK    8  A    between atoms: C_10  and  C_11
REMARK    9  A    between atoms: C_11  and  C_12
REMARK   10  A    between atoms: C_13  and  C_14
REMARK   11  A    between atoms: C_14  and  C_15
REMARK   12  A    between atoms: C_15  and  C_16
REMARK   13  A    between atoms: C_16  and  C_17
REMARK   14  A    between atoms: C_17  and  C_18
REMARK   15  A    between atoms: C_18  and  C_19
REMARK   16  A    between atoms: C_19  and  C_20
REMARK   17  A    between atoms: C_20  and  O_22
REMARK                            x       y       z     vdW  Elec       q    Type
REMARK                         _______ _______ _______ _____ _____    ______ ____
ROOT
ATOM      1  C   UNL     1       3.793   3.300  17.560  0.00  0.00    +0.000 C 
ATOM      2  C   UNL     1       4.226   4.444  17.014  0.00  0.00    +0.000 C 
ENDROOT
BRANCH   1   3
ATOM      3  C   UNL     1       3.980   2.921  19.002  0.00  0.00    +0.000 C 
BRANCH   3   5
ATOM      4  C   UNL     1       1.686   2.078  19.576  0.00  0.00    +0.000 C 
ATOM      5  C   UNL     1       2.999   1.869  19.417  0.00  0.00    +0.000 C 
BRANCH   4   6
ATOM      6  C   UNL     1       1.025   3.412  19.439  0.00  0.00    +0.000 C 
BRANCH   6   8
ATOM      7  C   UNL     1       1.726   5.514  20.580  0.00  0.00    +0.000 C 
ATOM      8  C   UNL     1       1.262   4.260  20.644  0.00  0.00    +0.000 C 
BRANCH   7   9
ATOM      9  C   UNL     1       2.054   6.174  19.274  0.00  0.00    +0.000 C 
BRANCH   9  10
ATOM     10  C   UNL     1       2.232   7.677  19.391  0.00  0.00    +0.000 C 
BRANCH  10  11
ATOM     11  C   UNL     1       2.450   8.270  18.001  0.00  0.00    +0.000 C 
BRANCH  11  13
ATOM     12  C   UNL     1       0.619   9.817  18.729  0.00  0.00    +0.000 C 
ATOM     13  C   UNL     1       1.900   9.688  17.925  0.00  0.00    +0.000 C 
ENDBRANCH  11  13
ENDBRANCH  10  11
ENDBRANCH   9  10
ENDBRANCH   7   9
ENDBRANCH   6   8
ENDBRANCH   4   6
ENDBRANCH   3   5
ENDBRANCH   1   3
BRANCH   2  14
ATOM     14  C   UNL     1       4.952   5.471  17.820  0.00  0.00    +0.000 C 
BRANCH  14  15
ATOM     15  C   UNL     1       5.961   6.256  17.002  0.00  0.00    +0.000 C 
BRANCH  15  16
ATOM     16  C   UNL     1       6.957   5.283  16.384  0.00  0.00    +0.000 C 
BRANCH  16  17
ATOM     17  C   UNL     1       6.730   5.156  14.887  0.00  0.00    +0.000 C 
BRANCH  17  18
ATOM     18  C   UNL     1       6.249   3.750  14.546  0.00  0.00    +0.000 C 
BRANCH  18  19
ATOM     19  C   UNL     1       5.611   3.709  13.164  0.00  0.00    +0.000 C 
BRANCH  19  20
ATOM     20  C   UNL     1       6.647   3.458  12.095  0.00  0.00    +0.000 C 
ATOM     21  O   UNL     1       7.356   4.307  11.581  0.00  0.00    +0.000 OA
BRANCH  20  22
ATOM     22  O   UNL     1       6.717   2.152  11.750  0.00  0.00    +0.000 OA
ATOM     23  H   UNL     1       7.565   1.902  11.336  0.00  0.00    +0.000 HD
ENDBRANCH  20  22
ENDBRANCH  19  20
ENDBRANCH  18  19
ENDBRANCH  17  18
ENDBRANCH  16  17
ENDBRANCH  15  16
ENDBRANCH  14  15
ENDBRANCH   2  14
TORSDOF 16
ENDMDL
MODEL 6
REMARK VINA RESULT:      -5.7      3.967      6.811
REMARK  Name = 
REMARK  17 active torsions:
REMARK  status: ('A' for Active; 'I' for Inactive)
REMARK    1  A    between atoms: C_1  and  C_2
REMARK    2  A    between atoms: C_2  and  C_3
REMARK    3  A    between atoms: C_3  and  C_4
REMARK    4  A    between atoms: C_4  and  C_5
REMARK    5  A    between atoms: C_5  and  C_6
REMARK    6  A    between atoms: C_7  and  C_8
REMARK    7  A    between atoms: C_8  and  C_9
REMARK    8  A    between atoms: C_10  and  C_11
REMARK    9  A    between atoms: C_11  and  C_12
REMARK   10  A    between atoms: C_13  and  C_14
REMARK   11  A    between atoms: C_14  and  C_15
REMARK   12  A    between atoms: C_15  and  C_16
REMARK   13  A    between atoms: C_16  and  C_17
REMARK   14  A    between atoms: C_17  and  C_18
REMARK   15  A    between atoms: C_18  and  C_19
REMARK   16  A    between atoms: C_19  and  C_20
REMARK   17  A    between atoms: C_20  and  O_22
REMARK                            x       y       z     vdW  Elec       q    Type
REMARK                         _______ _______ _______ _____ _____    ______ ____
ROOT
ATOM      1  C   UNL     1       1.035   3.397  19.777  0.00  0.00    +0.000 C 
ATOM      2  C   UNL     1       1.095   4.732  19.874  0.00  0.00    +0.000 C 
ENDROOT
BRANCH   1   3
ATOM      3  C   UNL     1       2.160   2.466  20.133  0.00  0.00    +0.000 C 
BRANCH   3   5
ATOM      4  C   UNL     1       3.511   1.881  18.099  0.00  0.00    +0.000 C 
ATOM      5  C   UNL     1       2.533   1.600  18.971  0.00  0.00    +0.000 C 
BRANCH   4   6
ATOM      6  C   UNL     1       4.317   3.139  18.117  0.00  0.00    +0.000 C 
BRANCH   6   8
ATOM      7  C   UNL     1       4.802   4.519  16.099  0.00  0.00    +0.000 C 
ATOM      8  C   UNL     1       3.930   4.046  16.998  0.00  0.00    +0.000 C 
BRANCH   7   9
ATOM      9  C   UNL     1       6.260   4.173  16.150  0.00  0.00    +0.000 C 
BRANCH   9  10
ATOM     10  C   UNL     1       7.166   5.391  16.109  0.00  0.00    +0.000 C 
BRANCH  10  11
ATOM     11  C   UNL     1       6.619   6.460  17.053  0.00  0.00    +0.000 C 
BRANCH  11  13
ATOM     12  C   UNL     1       7.803   5.818  19.165  0.00  0.00    +0.000 C 
ATOM     13  C   UNL     1       7.670   6.867  18.076  0.00  0.00    +0.000 C 
ENDBRANCH  11  13
ENDBRANCH  10  11
ENDBRANCH   9  10
ENDBRANCH   7   9
ENDBRANCH   6   8
ENDBRANCH   4   6
ENDBRANCH   3   5
ENDBRANCH   1   3
BRANCH   2  14
ATOM     14  C   UNL     1       2.324   5.428  20.361  0.00  0.00    +0.000 C 
BRANCH  14  15
ATOM     15  C   UNL     1       2.428   6.857  19.864  0.00  0.00    +0.000 C 
BRANCH  15  16
ATOM     16  C   UNL     1       2.442   6.847  18.340  0.00  0.00    +0.000 C 
BRANCH  16  17
ATOM     17  C   UNL     1       2.572   8.258  17.792  0.00  0.00    +0.000 C 
BRANCH  17  18
ATOM     18  C   UNL     1       1.244   8.995  17.919  0.00  0.00    +0.000 C 
BRANCH  18  19
ATOM     19  C   UNL     1       1.439  10.374  18.536  0.00  0.00    +0.000 C 
BRANCH  19  20
ATOM     20  C   UNL     1       0.120  11.088  18.698  0.00  0.00    +0.000 C 
ATOM     21  O   UNL     1      -0.021  12.288  18.870  0.00  0.00    +0.000 OA
BRANCH  20  22
ATOM     22  O   UNL     1      -0.931  10.240  18.630  0.00  0.00    +0.000 OA
ATOM     23  H   UNL     1      -1.423  10.159  19.468  0.00  0.00    +0.000 HD
ENDBRANCH  20  22
ENDBRANCH  19  20
ENDBRANCH  18  19
ENDBRANCH  17  18
ENDBRANCH  16  17
ENDBRANCH  15  16
ENDBRANCH  14  15
ENDBRANCH   2  14
TORSDOF 16
ENDMDL
MODEL 7
REMARK VINA RESULT:      -5.7      3.202      7.548
REMARK  Name = 
REMARK  17 active torsions:
REMARK  status: ('A' for Active; 'I' for Inactive)
REMARK    1  A    between atoms: C_1  and  C_2
REMARK    2  A    between atoms: C_2  and  C_3
REMARK    3  A    between atoms: C_3  and  C_4
REMARK    4  A    between atoms: C_4  and  C_5
REMARK    5  A    between atoms: C_5  and  C_6
REMARK    6  A    between atoms: C_7  and  C_8
REMARK    7  A    between atoms: C_8  and  C_9
REMARK    8  A    between atoms: C_10  and  C_11
REMARK    9  A    between atoms: C_11  and  C_12
REMARK   10  A    between atoms: C_13  and  C_14
REMARK   11  A    between atoms: C_14  and  C_15
REMARK   12  A    between atoms: C_15  and  C_16
REMARK   13  A    between atoms: C_16  and  C_17
REMARK   14  A    between atoms: C_17  and  C_18
REMARK   15  A    between atoms: C_18  and  C_19
REMARK   16  A    between atoms: C_19  and  C_20
REMARK   17  A    between atoms: C_20  and  O_22
REMARK                            x       y       z     vdW  Elec       q    Type
REMARK                         _______ _______ _______ _____ _____    ______ ____
ROOT
ATOM      1  C   UNL     1       3.779   2.114  17.738  0.00  0.00    +0.000 C 
ATOM      2  C   UNL     1       3.768   1.692  19.009  0.00  0.00    +0.000 C 
ENDROOT
BRANCH   1   3
ATOM      3  C   UNL     1       3.975   3.544  17.317  0.00  0.00    +0.000 C 
BRANCH   3   5
ATOM      4  C   UNL     1       6.127   4.648  16.645  0.00  0.00    +0.000 C 
ATOM      5  C   UNL     1       5.387   3.985  17.543  0.00  0.00    +0.000 C 
BRANCH   4   6
ATOM      6  C   UNL     1       5.673   4.974  15.258  0.00  0.00    +0.000 C 
BRANCH   6   8
ATOM      7  C   UNL     1       6.366   3.893  13.121  0.00  0.00    +0.000 C 
ATOM      8  C   UNL     1       6.683   4.549  14.244  0.00  0.00    +0.000 C 
BRANCH   7   9
ATOM      9  C   UNL     1       4.951   3.524  12.790  0.00  0.00    +0.000 C 
BRANCH   9  10
ATOM     10  C   UNL     1       4.831   2.675  11.536  0.00  0.00    +0.000 C 
BRANCH  10  11
ATOM     11  C   UNL     1       3.511   2.989  10.837  0.00  0.00    +0.000 C 
BRANCH  11  13
ATOM     12  C   UNL     1       2.399   4.540   9.215  0.00  0.00    +0.000 C 
ATOM     13  C   UNL     1       3.564   4.356  10.170  0.00  0.00    +0.000 C 
ENDBRANCH  11  13
ENDBRANCH  10  11
ENDBRANCH   9  10
ENDBRANCH   7   9
ENDBRANCH   6   8
ENDBRANCH   4   6
ENDBRANCH   3   5
ENDBRANCH   1   3
BRANCH   2  14
ATOM     14  C   UNL     1       3.958   2.638  20.150  0.00  0.00    +0.000 C 
BRANCH  14  15
ATOM     15  C   UNL     1       3.203   2.217  21.396  0.00  0.00    +0.000 C 
BRANCH  15  16
ATOM     16  C   UNL     1       2.196   3.304  21.752  0.00  0.00    +0.000 C 
BRANCH  16  17
ATOM     17  C   UNL     1       1.053   3.330  20.751  0.00  0.00    +0.000 C 
BRANCH  17  18
ATOM     18  C   UNL     1       1.218   4.507  19.797  0.00  0.00    +0.000 C 
BRANCH  18  19
ATOM     19  C   UNL     1       1.607   5.773  20.550  0.00  0.00    +0.000 C 
BRANCH  19  20
ATOM     20  C   UNL     1       2.536   6.631  19.726  0.00  0.00    +0.000 C 
ATOM     21  O   UNL     1       2.239   7.684  19.188  0.00  0.00    +0.000 OA
BRANCH  20  22
ATOM     22  O   UNL     1       3.777   6.101  19.641  0.00  0.00    +0.000 OA
ATOM     23  H   UNL     1       4.368   6.372  20.369  0.00  0.00    +0.000 HD
ENDBRANCH  20  22
ENDBRANCH  19  20
ENDBRANCH  18  19
ENDBRANCH  17  18
ENDBRANCH  16  17
ENDBRANCH  15  16
ENDBRANCH  14  15
ENDBRANCH   2  14
TORSDOF 16
ENDMDL
MODEL 8
REMARK VINA RESULT:      -5.7      2.887      7.609
REMARK  Name = 
REMARK  17 active torsions:
REMARK  status: ('A' for Active; 'I' for Inactive)
REMARK    1  A    between atoms: C_1  and  C_2
REMARK    2  A    between atoms: C_2  and  C_3
REMARK    3  A    between atoms: C_3  and  C_4
REMARK    4  A    between atoms: C_4  and  C_5
REMARK    5  A    between atoms: C_5  and  C_6
REMARK    6  A    between atoms: C_7  and  C_8
REMARK    7  A    between atoms: C_8  and  C_9
REMARK    8  A    between atoms: C_10  and  C_11
REMARK    9  A    between atoms: C_11  and  C_12
REMARK   10  A    between atoms: C_13  and  C_14
REMARK   11  A    between atoms: C_14  and  C_15
REMARK   12  A    between atoms: C_15  and  C_16
REMARK   13  A    between atoms: C_16  and  C_17
REMARK   14  A    between atoms: C_17  and  C_18
REMARK   15  A    between atoms: C_18  and  C_19
REMARK   16  A    between atoms: C_19  and  C_20
REMARK   17  A    between atoms: C_20  and  O_22
REMARK                            x       y       z     vdW  Elec       q    Type
REMARK                         _______ _______ _______ _____ _____    ______ ____
ROOT
ATOM      1  C   UNL     1       3.400   7.172  17.492  0.00  0.00    +0.000 C 
ATOM      2  C   UNL     1       2.721   7.179  18.647  0.00  0.00    +0.000 C 
ENDROOT
BRANCH   1   3
ATOM      3  C   UNL     1       4.441   6.152  17.123  0.00  0.00    +0.000 C 
BRANCH   3   5
ATOM      4  C   UNL     1       6.949   6.262  17.110  0.00  0.00    +0.000 C 
ATOM      5  C   UNL     1       5.774   6.506  17.704  0.00  0.00    +0.000 C 
BRANCH   4   6
ATOM      6  C   UNL     1       7.100   5.530  15.815  0.00  0.00    +0.000 C 
BRANCH   6   8
ATOM      7  C   UNL     1       5.862   3.587  14.862  0.00  0.00    +0.000 C 
ATOM      8  C   UNL     1       6.493   4.169  15.890  0.00  0.00    +0.000 C 
BRANCH   7   9
ATOM      9  C   UNL     1       5.709   4.270  13.536  0.00  0.00    +0.000 C 
BRANCH   9  10
ATOM     10  C   UNL     1       5.728   3.308  12.361  0.00  0.00    +0.000 C 
BRANCH  10  11
ATOM     11  C   UNL     1       7.171   3.084  11.914  0.00  0.00    +0.000 C 
BRANCH  11  13
ATOM     12  C   UNL     1       6.243   0.874  11.189  0.00  0.00    +0.000 C 
ATOM     13  C   UNL     1       7.251   1.966  10.884  0.00  0.00    +0.000 C 
ENDBRANCH  11  13
ENDBRANCH  10  11
ENDBRANCH   9  10
ENDBRANCH   7   9
ENDBRANCH   6   8
ENDBRANCH   4   6
ENDBRANCH   3   5
ENDBRANCH   1   3
BRANCH   2  14
ATOM     14  C   UNL     1       2.949   6.140  19.697  0.00  0.00    +0.000 C 
BRANCH  14  15
ATOM     15  C   UNL     1       1.687   5.381  20.059  0.00  0.00    +0.000 C 
BRANCH  15  16
ATOM     16  C   UNL     1       1.446   4.300  19.012  0.00  0.00    +0.000 C 
BRANCH  16  17
ATOM     17  C   UNL     1       0.934   3.025  19.661  0.00  0.00    +0.000 C 
BRANCH  17  18
ATOM     18  C   UNL     1       2.087   2.056  19.895  0.00  0.00    +0.000 C 
BRANCH  18  19
ATOM     19  C   UNL     1       3.239   2.332  18.938  0.00  0.00    +0.000 C 
BRANCH  19  20
ATOM     20  C   UNL     1       4.545   2.458  19.683  0.00  0.00    +0.000 C 
ATOM     21  O   UNL     1       4.886   1.780  20.639  0.00  0.00    +0.000 OA
BRANCH  20  22
ATOM     22  O   UNL     1       5.334   3.428  19.168  0.00  0.00    +0.000 OA
ATOM     23  H   UNL     1       4.856   4.060  18.598  0.00  0.00    +0.000 HD
ENDBRANCH  20  22
ENDBRANCH  19  20
ENDBRANCH  18  19
ENDBRANCH  17  18
ENDBRANCH  16  17
ENDBRANCH  15  16
ENDBRANCH  14  15
ENDBRANCH   2  14
TORSDOF 16
ENDMDL
MODEL 9
REMARK VINA RESULT:      -5.7      3.325      7.587
REMARK  Name = 
REMARK  17 active torsions:
REMARK  status: ('A' for Active; 'I' for Inactive)
REMARK    1  A    between atoms: C_1  and  C_2
REMARK    2  A    between atoms: C_2  and  C_3
REMARK    3  A    between atoms: C_3  and  C_4
REMARK    4  A    between atoms: C_4  and  C_5
REMARK    5  A    between atoms: C_5  and  C_6
REMARK    6  A    between atoms: C_7  and  C_8
REMARK    7  A    between atoms: C_8  and  C_9
REMARK    8  A    between atoms: C_10  and  C_11
REMARK    9  A    between atoms: C_11  and  C_12
REMARK   10  A    between atoms: C_13  and  C_14
REMARK   11  A    between atoms: C_14  and  C_15
REMARK   12  A    between atoms: C_15  and  C_16
REMARK   13  A    between atoms: C_16  and  C_17
REMARK   14  A    between atoms: C_17  and  C_18
REMARK   15  A    between atoms: C_18  and  C_19
REMARK   16  A    between atoms: C_19  and  C_20
REMARK   17  A    between atoms: C_20  and  O_22
REMARK                            x       y       z     vdW  Elec       q    Type
REMARK                         _______ _______ _______ _____ _____    ______ ____
ROOT
ATOM      1  C   UNL     1       4.363   6.027  18.186  0.00  0.00    +0.000 C 
ATOM      2  C   UNL     1       3.507   5.393  17.374  0.00  0.00    +0.000 C 
ENDROOT
BRANCH   1   3
ATOM      3  C   UNL     1       5.521   5.369  18.883  0.00  0.00    +0.000 C 
BRANCH   3   5
ATOM      4  C   UNL     1       7.293   6.367  17.410  0.00  0.00    +0.000 C 
ATOM      5  C   UNL     1       6.797   6.109  18.627  0.00  0.00    +0.000 C 
BRANCH   4   6
ATOM      6  C   UNL     1       6.682   5.885  16.134  0.00  0.00    +0.000 C 
BRANCH   6   8
ATOM      7  C   UNL     1       6.549   3.761  14.836  0.00  0.00    +0.000 C 
ATOM      8  C   UNL     1       6.933   4.428  15.931  0.00  0.00    +0.000 C 
BRANCH   7   9
ATOM      9  C   UNL     1       5.819   4.434  13.711  0.00  0.00    +0.000 C 
BRANCH   9  10
ATOM     10  C   UNL     1       6.172   3.871  12.346  0.00  0.00    +0.000 C 
BRANCH  10  11
ATOM     11  C   UNL     1       5.100   2.872  11.918  0.00  0.00    +0.000 C 
BRANCH  11  13
ATOM     12  C   UNL     1       7.238   1.727  11.292  0.00  0.00    +0.000 C 
ATOM     13  C   UNL     1       5.723   1.681  11.204  0.00  0.00    +0.000 C 
ENDBRANCH  11  13
ENDBRANCH  10  11
ENDBRANCH   9  10
ENDBRANCH   7   9
ENDBRANCH   6   8
ENDBRANCH   4   6
ENDBRANCH   3   5
ENDBRANCH   1   3
BRANCH   2  14
ATOM     14  C   UNL     1       3.637   3.934  17.084  0.00  0.00    +0.000 C 
BRANCH  14  15
ATOM     15  C   UNL     1       2.320   3.190  17.200  0.00  0.00    +0.000 C 
BRANCH  15  16
ATOM     16  C   UNL     1       1.500   3.815  18.322  0.00  0.00    +0.000 C 
BRANCH  16  17
ATOM     17  C   UNL     1       0.865   2.742  19.189  0.00  0.00    +0.000 C 
BRANCH  17  18
ATOM     18  C   UNL     1       1.485   2.757  20.581  0.00  0.00    +0.000 C 
BRANCH  18  19
ATOM     19  C   UNL     1       2.866   3.398  20.560  0.00  0.00    +0.000 C 
BRANCH  19  20
ATOM     20  C   UNL     1       3.949   2.363  20.737  0.00  0.00    +0.000 C 
ATOM     21  O   UNL     1       4.082   1.634  21.707  0.00  0.00    +0.000 OA
BRANCH  20  22
ATOM     22  O   UNL     1       4.788   2.316  19.678  0.00  0.00    +0.000 OA
ATOM     23  H   UNL     1       4.347   2.081  18.840  0.00  0.00    +0.000 HD
ENDBRANCH  20  22
ENDBRANCH  19  20
ENDBRANCH  18  19
ENDBRANCH  17  18
ENDBRANCH  16  17
ENDBRANCH  15  16
ENDBRANCH  14  15
ENDBRANCH   2  14
TORSDOF 16
ENDMDL
