MODEL 1
REMARK VINA RESULT:      -7.5      0.000      0.000
REMARK  Name = 
REMARK  8 active torsions:
REMARK  status: ('A' for Active; 'I' for Inactive)
REMARK    1  A    between atoms: N_1  and  C_2
REMARK    2  A    between atoms: C_8  and  C_9
REMARK    3  A    between atoms: N_13  and  C_14
REMARK    4  A    between atoms: C_16  and  O_17
REMARK    5  A    between atoms: C_18  and  C_19
REMARK    6  A    between atoms: C_19  and  O_20
REMARK    7  A    between atoms: O_20  and  S_21
REMARK    8  A    between atoms: S_21  and  N_22
REMARK                            x       y       z     vdW  Elec       q    Type
REMARK                         _______ _______ _______ _____ _____    ______ ____
ROOT
ATOM      1  C   UNL     1       4.901   3.494  19.296  0.00  0.00    +0.000 A 
ATOM      2  N   UNL     1       6.000   3.870  18.612  0.00  0.00    +0.000 NA
ATOM      3  C   UNL     1       6.061   5.129  18.132  0.00  0.00    +0.000 A 
ATOM      4  N   UNL     1       5.142   6.105  18.245  0.00  0.00    +0.000 NA
ATOM      5  C   UNL     1       4.069   5.688  18.940  0.00  0.00    +0.000 A 
ATOM      6  C   UNL     1       3.878   4.430  19.481  0.00  0.00    +0.000 A 
ATOM      7  C   UNL     1       2.598   4.484  20.090  0.00  0.00    +0.000 A 
ATOM      8  N   UNL     1       2.026   5.699  19.954  0.00  0.00    +0.000 NA
ATOM      9  N   UNL     1       2.951   6.415  19.257  0.00  0.00    +0.000 N 
ENDROOT
BRANCH   9  10
ATOM     10  C   UNL     1       2.709   7.802  18.887  0.00  0.00    +0.000 C 
ATOM     11  C   UNL     1       1.869   7.985  17.628  0.00  0.00    +0.000 C 
ATOM     12  C   UNL     1       1.121   9.266  17.921  0.00  0.00    +0.000 C 
ATOM     13  C   UNL     1       0.883   9.168  19.427  0.00  0.00    +0.000 C 
ATOM     14  O   UNL     1       2.033   8.488  19.969  0.00  0.00    +0.000 OA
BRANCH  12  15
ATOM     15  O   UNL     1       1.927  10.377  17.535  0.00  0.00    +0.000 OA
ATOM     16  H   UNL     1       2.370  10.754  18.314  0.00  0.00    +0.000 HD
ENDBRANCH  12  15
BRANCH  13  17
ATOM     17  C   UNL     1       0.695  10.497  20.155  0.00  0.00    +0.000 C 
BRANCH  17  18
ATOM     18  O   UNL     1      -0.448  10.467  20.995  0.00  0.00    +0.000 OA
BRANCH  18  19
ATOM     19  S   UNL     1      -0.194  10.024  22.538  0.00  0.00    +0.000 S 
ATOM     20  O   UNL     1       1.230   9.924  22.741  0.00  0.00    +0.000 OA
ATOM     21  O   UNL     1      -1.052  10.815  23.384  0.00  0.00    +0.000 OA
BRANCH  19  22
ATOM     22  N   UNL     1      -0.789   8.465  22.557  0.00  0.00    +0.000 NA
ATOM     23  H   UNL     1      -0.549   7.966  21.705  0.00  0.00    +0.000 HD
ATOM     24  H   UNL     1      -1.776   8.446  22.808  0.00  0.00    +0.000 HD
ENDBRANCH  19  22
ENDBRANCH  18  19
ENDBRANCH  17  18
ENDBRANCH  13  17
ENDBRANCH   9  10
BRANCH   1  25
ATOM     25  N   UNL     1       4.869   2.195  19.776  0.00  0.00    +0.000 N 
ATOM     26  H   UNL     1       4.696   2.173  20.774  0.00  0.00    +0.000 HD
ATOM     27  H   UNL     1       4.359   1.519  19.221  0.00  0.00    +0.000 HD
ENDBRANCH   1  25
BRANCH   7  28
ATOM     28  C   UNL     1       1.925   3.365  20.811  0.00  0.00    +0.000 C 
ATOM     29  F   UNL     1       2.271   3.340  22.128  0.00  0.00    +0.000 F 
ATOM     30  F   UNL     1       0.569   3.522  20.794  0.00  0.00    +0.000 F 
ENDBRANCH   7  28
TORSDOF 8
ENDMDL
MODEL 2
REMARK VINA RESULT:      -7.4      1.310      1.412
REMARK  Name = 
REMARK  8 active torsions:
REMARK  status: ('A' for Active; 'I' for Inactive)
REMARK    1  A    between atoms: N_1  and  C_2
REMARK    2  A    between atoms: C_8  and  C_9
REMARK    3  A    between atoms: N_13  and  C_14
REMARK    4  A    between atoms: C_16  and  O_17
REMARK    5  A    between atoms: C_18  and  C_19
REMARK    6  A    between atoms: C_19  and  O_20
REMARK    7  A    between atoms: O_20  and  S_21
REMARK    8  A    between atoms: S_21  and  N_22
REMARK                            x       y       z     vdW  Elec       q    Type
REMARK                         _______ _______ _______ _____ _____    ______ ____
ROOT
ATOM      1  C   UNL     1       3.968   3.392  17.714  0.00  0.00    +0.000 A 
ATOM      2  N   UNL     1       4.833   3.778  16.754  0.00  0.00    +0.000 NA
ATOM      3  C   UNL     1       4.953   5.094  16.487  0.00  0.00    +0.000 A 
ATOM      4  N   UNL     1       4.307   6.121  17.069  0.00  0.00    +0.000 NA
ATOM      5  C   UNL     1       3.463   5.689  18.022  0.00  0.00    +0.000 A 
ATOM      6  C   UNL     1       3.241   4.375  18.391  0.00  0.00    +0.000 A 
ATOM      7  C   UNL     1       2.259   4.443  19.413  0.00  0.00    +0.000 A 
ATOM      8  N   UNL     1       1.895   5.715  19.679  0.00  0.00    +0.000 NA
ATOM      9  N   UNL     1       2.654   6.454  18.823  0.00  0.00    +0.000 N 
ENDROOT
BRANCH   9  10
ATOM     10  C   UNL     1       2.551   7.905  18.784  0.00  0.00    +0.000 C 
ATOM     11  C   UNL     1       1.856   8.459  17.546  0.00  0.00    +0.000 C 
ATOM     12  C   UNL     1       1.177   9.699  18.083  0.00  0.00    +0.000 C 
ATOM     13  C   UNL     1       0.785   9.271  19.496  0.00  0.00    +0.000 C 
ATOM     14  O   UNL     1       1.822   8.376  19.945  0.00  0.00    +0.000 OA
BRANCH  12  15
ATOM     15  O   UNL     1       2.096  10.789  18.045  0.00  0.00    +0.000 OA
ATOM     16  H   UNL     1       1.883  11.379  17.302  0.00  0.00    +0.000 HD
ENDBRANCH  12  15
BRANCH  13  17
ATOM     17  C   UNL     1       0.622  10.401  20.509  0.00  0.00    +0.000 C 
BRANCH  17  18
ATOM     18  O   UNL     1       1.093  10.017  21.791  0.00  0.00    +0.000 OA
BRANCH  18  19
ATOM     19  S   UNL     1      -0.037   9.551  22.862  0.00  0.00    +0.000 S 
ATOM     20  O   UNL     1      -0.750   8.433  22.295  0.00  0.00    +0.000 OA
ATOM     21  O   UNL     1       0.567   9.511  24.170  0.00  0.00    +0.000 OA
BRANCH  19  22
ATOM     22  N   UNL     1      -1.089  10.846  22.846  0.00  0.00    +0.000 NA
ATOM     23  H   UNL     1      -1.965  10.618  23.308  0.00  0.00    +0.000 HD
ATOM     24  H   UNL     1      -1.181  11.240  21.912  0.00  0.00    +0.000 HD
ENDBRANCH  19  22
ENDBRANCH  18  19
ENDBRANCH  17  18
ENDBRANCH  13  17
ENDBRANCH   9  10
BRANCH   1  25
ATOM     25  N   UNL     1       3.868   2.033  17.963  0.00  0.00    +0.000 N 
ATOM     26  H   UNL     1       3.942   1.832  18.953  0.00  0.00    +0.000 HD
ATOM     27  H   UNL     1       3.146   1.531  17.460  0.00  0.00    +0.000 HD
ENDBRANCH   1  25
BRANCH   7  28
ATOM     28  C   UNL     1       1.672   3.279  20.140  0.00  0.00    +0.000 C 
ATOM     29  F   UNL     1       1.029   3.673  21.274  0.00  0.00    +0.000 F 
ATOM     30  F   UNL     1       0.723   2.661  19.378  0.00  0.00    +0.000 F 
ENDBRANCH   7  28
TORSDOF 8
ENDMDL
MODEL 3
REMARK VINA RESULT:      -7.4      0.860      1.063
REMARK  Name = 
REMARK  8 active torsions:
REMARK  status: ('A' for Active; 'I' for Inactive)
REMARK    1  A    between atoms: N_1  and  C_2
REMARK    2  A    between atoms: C_8  and  C_9
REMARK    3  A    between atoms: N_13  and  C_14
REMARK    4  A    between atoms: C_16  and  O_17
REMARK    5  A    between atoms: C_18  and  C_19
REMARK    6  A    between atoms: C_19  and  O_20
REMARK    7  A    between atoms: O_20  and  S_21
REMARK    8  A    between atoms: S_21  and  N_22
REMARK                            x       y       z     vdW  Elec       q    Type
REMARK                         _______ _______ _______ _____ _____    ______ ____
ROOT
ATOM      1  C   UNL     1       4.904   3.445  19.285  0.00  0.00    +0.000 A 
ATOM      2  N   UNL     1       6.084   3.871  18.790  0.00  0.00    +0.000 NA
ATOM      3  C   UNL     1       6.188   5.154  18.389  0.00  0.00    +0.000 A 
ATOM      4  N   UNL     1       5.244   6.111  18.415  0.00  0.00    +0.000 NA
ATOM      5  C   UNL     1       4.089   5.644  18.923  0.00  0.00    +0.000 A 
ATOM      6  C   UNL     1       3.846   4.357  19.365  0.00  0.00    +0.000 A 
ATOM      7  C   UNL     1       2.490   4.363  19.782  0.00  0.00    +0.000 A 
ATOM      8  N   UNL     1       1.920   5.576  19.624  0.00  0.00    +0.000 NA
ATOM      9  N   UNL     1       2.923   6.339  19.108  0.00  0.00    +0.000 N 
ENDROOT
BRANCH   9  10
ATOM     10  C   UNL     1       2.710   7.741  18.778  0.00  0.00    +0.000 C 
ATOM     11  C   UNL     1       1.862   7.977  17.533  0.00  0.00    +0.000 C 
ATOM     12  C   UNL     1       1.147   9.266  17.866  0.00  0.00    +0.000 C 
ATOM     13  C   UNL     1       0.922   9.134  19.372  0.00  0.00    +0.000 C 
ATOM     14  O   UNL     1       2.060   8.413  19.884  0.00  0.00    +0.000 OA
BRANCH  12  15
ATOM     15  O   UNL     1       1.975  10.369  17.503  0.00  0.00    +0.000 OA
ATOM     16  H   UNL     1       2.649  10.083  16.863  0.00  0.00    +0.000 HD
ENDBRANCH  12  15
BRANCH  13  17
ATOM     17  C   UNL     1       0.771  10.447  20.137  0.00  0.00    +0.000 C 
BRANCH  17  18
ATOM     18  O   UNL     1      -0.373  10.427  20.976  0.00  0.00    +0.000 OA
BRANCH  18  19
ATOM     19  S   UNL     1      -0.171   9.773  22.450  0.00  0.00    +0.000 S 
ATOM     20  O   UNL     1      -0.537  10.766  23.429  0.00  0.00    +0.000 OA
ATOM     21  O   UNL     1      -0.729   8.444  22.436  0.00  0.00    +0.000 OA
BRANCH  19  22
ATOM     22  N   UNL     1       1.487   9.607  22.535  0.00  0.00    +0.000 NA
ATOM     23  H   UNL     1       1.942  10.003  21.717  0.00  0.00    +0.000 HD
ATOM     24  H   UNL     1       1.755   8.652  22.762  0.00  0.00    +0.000 HD
ENDBRANCH  19  22
ENDBRANCH  18  19
ENDBRANCH  17  18
ENDBRANCH  13  17
ENDBRANCH   9  10
BRANCH   1  25
ATOM     25  N   UNL     1       4.828   2.122  19.688  0.00  0.00    +0.000 N 
ATOM     26  H   UNL     1       5.267   1.985  20.591  0.00  0.00    +0.000 HD
ATOM     27  H   UNL     1       3.941   1.655  19.549  0.00  0.00    +0.000 HD
ENDBRANCH   1  25
BRANCH   7  28
ATOM     28  C   UNL     1       1.741   3.199  20.338  0.00  0.00    +0.000 C 
ATOM     29  F   UNL     1       0.480   3.550  20.712  0.00  0.00    +0.000 F 
ATOM     30  F   UNL     1       1.584   2.227  19.392  0.00  0.00    +0.000 F 
ENDBRANCH   7  28
TORSDOF 8
ENDMDL
MODEL 4
REMARK VINA RESULT:      -7.2      5.294      7.602
REMARK  Name = 
REMARK  8 active torsions:
REMARK  status: ('A' for Active; 'I' for Inactive)
REMARK    1  A    between atoms: N_1  and  C_2
REMARK    2  A    between atoms: C_8  and  C_9
REMARK    3  A    between atoms: N_13  and  C_14
REMARK    4  A    between atoms: C_16  and  O_17
REMARK    5  A    between atoms: C_18  and  C_19
REMARK    6  A    between atoms: C_19  and  O_20
REMARK    7  A    between atoms: O_20  and  S_21
REMARK    8  A    between atoms: S_21  and  N_22
REMARK                            x       y       z     vdW  Elec       q    Type
REMARK                         _______ _______ _______ _____ _____    ______ ____
ROOT
ATOM      1  C   UNL     1       1.796   2.945  19.790  0.00  0.00    +0.000 A 
ATOM      2  N   UNL     1       2.100   1.808  19.131  0.00  0.00    +0.000 NA
ATOM      3  C   UNL     1       3.071   1.845  18.197  0.00  0.00    +0.000 A 
ATOM      4  N   UNL     1       3.813   2.899  17.813  0.00  0.00    +0.000 NA
ATOM      5  C   UNL     1       3.481   4.006  18.500  0.00  0.00    +0.000 A 
ATOM      6  C   UNL     1       2.507   4.108  19.476  0.00  0.00    +0.000 A 
ATOM      7  C   UNL     1       2.529   5.469  19.875  0.00  0.00    +0.000 A 
ATOM      8  N   UNL     1       3.463   6.176  19.205  0.00  0.00    +0.000 NA
ATOM      9  N   UNL     1       4.035   5.254  18.381  0.00  0.00    +0.000 N 
ENDROOT
BRANCH   9  10
ATOM     10  C   UNL     1       5.103   5.624  17.463  0.00  0.00    +0.000 C 
ATOM     11  C   UNL     1       6.508   5.317  17.968  0.00  0.00    +0.000 C 
ATOM     12  C   UNL     1       7.251   5.000  16.690  0.00  0.00    +0.000 C 
ATOM     13  C   UNL     1       6.179   4.302  15.854  0.00  0.00    +0.000 C 
ATOM     14  O   UNL     1       4.929   4.931  16.203  0.00  0.00    +0.000 OA
BRANCH  12  15
ATOM     15  O   UNL     1       7.731   6.214  16.115  0.00  0.00    +0.000 OA
ATOM     16  H   UNL     1       7.589   6.206  15.154  0.00  0.00    +0.000 HD
ENDBRANCH  12  15
BRANCH  13  17
ATOM     17  C   UNL     1       6.371   4.370  14.341  0.00  0.00    +0.000 C 
BRANCH  17  18
ATOM     18  O   UNL     1       5.657   3.335  13.684  0.00  0.00    +0.000 OA
BRANCH  18  19
ATOM     19  S   UNL     1       5.780   3.295  12.063  0.00  0.00    +0.000 S 
ATOM     20  O   UNL     1       4.482   3.594  11.513  0.00  0.00    +0.000 OA
ATOM     21  O   UNL     1       6.975   4.006  11.683  0.00  0.00    +0.000 OA
BRANCH  19  22
ATOM     22  N   UNL     1       6.060   1.675  11.774  0.00  0.00    +0.000 NA
ATOM     23  H   UNL     1       6.011   1.132  12.631  0.00  0.00    +0.000 HD
ATOM     24  H   UNL     1       6.901   1.536  11.218  0.00  0.00    +0.000 HD
ENDBRANCH  19  22
ENDBRANCH  18  19
ENDBRANCH  17  18
ENDBRANCH  13  17
ENDBRANCH   9  10
BRANCH   1  25
ATOM     25  N   UNL     1       0.794   2.874  20.743  0.00  0.00    +0.000 N 
ATOM     26  H   UNL     1       0.768   3.709  21.316  0.00  0.00    +0.000 HD
ATOM     27  H   UNL     1      -0.103   2.519  20.433  0.00  0.00    +0.000 HD
ENDBRANCH   1  25
BRANCH   7  28
ATOM     28  C   UNL     1       1.651   6.091  20.909  0.00  0.00    +0.000 C 
ATOM     29  F   UNL     1       1.745   7.450  20.890  0.00  0.00    +0.000 F 
ATOM     30  F   UNL     1       0.338   5.812  20.662  0.00  0.00    +0.000 F 
ENDBRANCH   7  28
TORSDOF 8
ENDMDL
MODEL 5
REMARK VINA RESULT:      -7.0      1.053      1.211
REMARK  Name = 
REMARK  8 active torsions:
REMARK  status: ('A' for Active; 'I' for Inactive)
REMARK    1  A    between atoms: N_1  and  C_2
REMARK    2  A    between atoms: C_8  and  C_9
REMARK    3  A    between atoms: N_13  and  C_14
REMARK    4  A    between atoms: C_16  and  O_17
REMARK    5  A    between atoms: C_18  and  C_19
REMARK    6  A    between atoms: C_19  and  O_20
REMARK    7  A    between atoms: O_20  and  S_21
REMARK    8  A    between atoms: S_21  and  N_22
REMARK                            x       y       z     vdW  Elec       q    Type
REMARK                         _______ _______ _______ _____ _____    ______ ____
ROOT
ATOM      1  C   UNL     1       4.839   3.511  19.318  0.00  0.00    +0.000 A 
ATOM      2  N   UNL     1       5.927   3.869  18.606  0.00  0.00    +0.000 NA
ATOM      3  C   UNL     1       5.991   5.123  18.114  0.00  0.00    +0.000 A 
ATOM      4  N   UNL     1       5.085   6.110  18.239  0.00  0.00    +0.000 NA
ATOM      5  C   UNL     1       4.024   5.710  18.961  0.00  0.00    +0.000 A 
ATOM      6  C   UNL     1       3.830   4.459  19.517  0.00  0.00    +0.000 A 
ATOM      7  C   UNL     1       2.565   4.533  20.154  0.00  0.00    +0.000 A 
ATOM      8  N   UNL     1       2.003   5.752  20.019  0.00  0.00    +0.000 NA
ATOM      9  N   UNL     1       2.921   6.452  19.296  0.00  0.00    +0.000 N 
ENDROOT
BRANCH   9  10
ATOM     10  C   UNL     1       2.686   7.838  18.919  0.00  0.00    +0.000 C 
ATOM     11  C   UNL     1       1.902   8.019  17.624  0.00  0.00    +0.000 C 
ATOM     12  C   UNL     1       1.132   9.294  17.886  0.00  0.00    +0.000 C 
ATOM     13  C   UNL     1       0.827   9.190  19.380  0.00  0.00    +0.000 C 
ATOM     14  O   UNL     1       1.956   8.516  19.971  0.00  0.00    +0.000 OA
BRANCH  12  15
ATOM     15  O   UNL     1       1.947  10.412  17.540  0.00  0.00    +0.000 OA
ATOM     16  H   UNL     1       2.775  10.391  18.047  0.00  0.00    +0.000 HD
ENDBRANCH  12  15
BRANCH  13  17
ATOM     17  C   UNL     1       0.597  10.515  20.102  0.00  0.00    +0.000 C 
BRANCH  17  18
ATOM     18  O   UNL     1      -0.342  10.371  21.156  0.00  0.00    +0.000 OA
BRANCH  18  19
ATOM     19  S   UNL     1      -0.632  11.700  22.046  0.00  0.00    +0.000 S 
ATOM     20  O   UNL     1      -1.030  11.272  23.364  0.00  0.00    +0.000 OA
ATOM     21  O   UNL     1       0.437  12.640  21.818  0.00  0.00    +0.000 OA
BRANCH  19  22
ATOM     22  N   UNL     1      -1.996  12.321  21.313  0.00  0.00    +0.000 NA
ATOM     23  H   UNL     1      -2.053  13.329  21.429  0.00  0.00    +0.000 HD
ATOM     24  H   UNL     1      -2.831  11.805  21.582  0.00  0.00    +0.000 HD
ENDBRANCH  19  22
ENDBRANCH  18  19
ENDBRANCH  17  18
ENDBRANCH  13  17
ENDBRANCH   9  10
BRANCH   1  25
ATOM     25  N   UNL     1       4.804   2.216  19.810  0.00  0.00    +0.000 N 
ATOM     26  H   UNL     1       4.944   1.536  19.071  0.00  0.00    +0.000 HD
ATOM     27  H   UNL     1       5.305   2.045  20.673  0.00  0.00    +0.000 HD
ENDBRANCH   1  25
BRANCH   7  28
ATOM     28  C   UNL     1       1.896   3.427  20.899  0.00  0.00    +0.000 C 
ATOM     29  F   UNL     1       2.118   3.523  22.239  0.00  0.00    +0.000 F 
ATOM     30  F   UNL     1       0.541   3.491  20.748  0.00  0.00    +0.000 F 
ENDBRANCH   7  28
TORSDOF 8
ENDMDL
MODEL 6
REMARK VINA RESULT:      -7.0      1.952      2.368
REMARK  Name = 
REMARK  8 active torsions:
REMARK  status: ('A' for Active; 'I' for Inactive)
REMARK    1  A    between atoms: N_1  and  C_2
REMARK    2  A    between atoms: C_8  and  C_9
REMARK    3  A    between atoms: N_13  and  C_14
REMARK    4  A    between atoms: C_16  and  O_17
REMARK    5  A    between atoms: C_18  and  C_19
REMARK    6  A    between atoms: C_19  and  O_20
REMARK    7  A    between atoms: O_20  and  S_21
REMARK    8  A    between atoms: S_21  and  N_22
REMARK                            x       y       z     vdW  Elec       q    Type
REMARK                         _______ _______ _______ _____ _____    ______ ____
ROOT
ATOM      1  C   UNL     1       4.432   3.409  19.530  0.00  0.00    +0.000 A 
ATOM      2  N   UNL     1       5.539   3.672  18.804  0.00  0.00    +0.000 NA
ATOM      3  C   UNL     1       5.688   4.907  18.284  0.00  0.00    +0.000 A 
ATOM      4  N   UNL     1       4.857   5.959  18.391  0.00  0.00    +0.000 NA
ATOM      5  C   UNL     1       3.774   5.652  19.127  0.00  0.00    +0.000 A 
ATOM      6  C   UNL     1       3.496   4.431  19.712  0.00  0.00    +0.000 A 
ATOM      7  C   UNL     1       2.243   4.609  20.353  0.00  0.00    +0.000 A 
ATOM      8  N   UNL     1       1.769   5.862  20.194  0.00  0.00    +0.000 NA
ATOM      9  N   UNL     1       2.729   6.479  19.450  0.00  0.00    +0.000 N 
ENDROOT
BRANCH   9  10
ATOM     10  C   UNL     1       2.591   7.870  19.043  0.00  0.00    +0.000 C 
ATOM     11  C   UNL     1       1.892   8.072  17.704  0.00  0.00    +0.000 C 
ATOM     12  C   UNL     1       1.179   9.390  17.906  0.00  0.00    +0.000 C 
ATOM     13  C   UNL     1       0.786   9.326  19.381  0.00  0.00    +0.000 C 
ATOM     14  O   UNL     1       1.842   8.602  20.044  0.00  0.00    +0.000 OA
BRANCH  12  15
ATOM     15  O   UNL     1       2.072  10.458  17.593  0.00  0.00    +0.000 OA
ATOM     16  H   UNL     1       2.262  10.465  16.640  0.00  0.00    +0.000 HD
ENDBRANCH  12  15
BRANCH  13  17
ATOM     17  C   UNL     1       0.588  10.673  20.072  0.00  0.00    +0.000 C 
BRANCH  17  18
ATOM     18  O   UNL     1      -0.080  11.594  19.225  0.00  0.00    +0.000 OA
BRANCH  18  19
ATOM     19  S   UNL     1       0.463  13.125  19.258  0.00  0.00    +0.000 S 
ATOM     20  O   UNL     1       0.528  13.542  20.636  0.00  0.00    +0.000 OA
ATOM     21  O   UNL     1       1.582  13.228  18.355  0.00  0.00    +0.000 OA
BRANCH  19  22
ATOM     22  N   UNL     1      -0.804  13.961  18.565  0.00  0.00    +0.000 NA
ATOM     23  H   UNL     1      -0.552  14.326  17.651  0.00  0.00    +0.000 HD
ATOM     24  H   UNL     1      -1.199  14.641  19.211  0.00  0.00    +0.000 HD
ENDBRANCH  19  22
ENDBRANCH  18  19
ENDBRANCH  17  18
ENDBRANCH  13  17
ENDBRANCH   9  10
BRANCH   1  25
ATOM     25  N   UNL     1       4.308   2.132  20.050  0.00  0.00    +0.000 N 
ATOM     26  H   UNL     1       5.194   1.788  20.403  0.00  0.00    +0.000 HD
ATOM     27  H   UNL     1       3.499   1.955  20.634  0.00  0.00    +0.000 HD
ENDBRANCH   1  25
BRANCH   7  28
ATOM     28  C   UNL     1       1.501   3.571  21.127  0.00  0.00    +0.000 C 
ATOM     29  F   UNL     1       1.181   2.502  20.346  0.00  0.00    +0.000 F 
ATOM     30  F   UNL     1       2.275   3.070  22.133  0.00  0.00    +0.000 F 
ENDBRANCH   7  28
TORSDOF 8
ENDMDL
MODEL 7
REMARK VINA RESULT:      -7.0      1.646      1.921
REMARK  Name = 
REMARK  8 active torsions:
REMARK  status: ('A' for Active; 'I' for Inactive)
REMARK    1  A    between atoms: N_1  and  C_2
REMARK    2  A    between atoms: C_8  and  C_9
REMARK    3  A    between atoms: N_13  and  C_14
REMARK    4  A    between atoms: C_16  and  O_17
REMARK    5  A    between atoms: C_18  and  C_19
REMARK    6  A    between atoms: C_19  and  O_20
REMARK    7  A    between atoms: O_20  and  S_21
REMARK    8  A    between atoms: S_21  and  N_22
REMARK                            x       y       z     vdW  Elec       q    Type
REMARK                         _______ _______ _______ _____ _____    ______ ____
ROOT
ATOM      1  C   UNL     1       4.923   3.506  19.262  0.00  0.00    +0.000 A 
ATOM      2  N   UNL     1       6.026   3.887  18.586  0.00  0.00    +0.000 NA
ATOM      3  C   UNL     1       6.090   5.150  18.119  0.00  0.00    +0.000 A 
ATOM      4  N   UNL     1       5.173   6.127  18.238  0.00  0.00    +0.000 NA
ATOM      5  C   UNL     1       4.096   5.704  18.924  0.00  0.00    +0.000 A 
ATOM      6  C   UNL     1       3.901   4.442  19.452  0.00  0.00    +0.000 A 
ATOM      7  C   UNL     1       2.618   4.492  20.057  0.00  0.00    +0.000 A 
ATOM      8  N   UNL     1       2.049   5.709  19.930  0.00  0.00    +0.000 NA
ATOM      9  N   UNL     1       2.979   6.430  19.244  0.00  0.00    +0.000 N 
ENDROOT
BRANCH   9  10
ATOM     10  C   UNL     1       2.740   7.821  18.886  0.00  0.00    +0.000 C 
ATOM     11  C   UNL     1       1.919   8.018  17.617  0.00  0.00    +0.000 C 
ATOM     12  C   UNL     1       1.165   9.295  17.913  0.00  0.00    +0.000 C 
ATOM     13  C   UNL     1       0.905   9.179  19.415  0.00  0.00    +0.000 C 
ATOM     14  O   UNL     1       2.047   8.494  19.966  0.00  0.00    +0.000 OA
BRANCH  12  15
ATOM     15  O   UNL     1       1.975  10.412  17.553  0.00  0.00    +0.000 OA
ATOM     16  H   UNL     1       2.762  10.451  18.124  0.00  0.00    +0.000 HD
ENDBRANCH  12  15
BRANCH  13  17
ATOM     17  C   UNL     1       0.703  10.499  20.155  0.00  0.00    +0.000 C 
BRANCH  17  18
ATOM     18  O   UNL     1       0.129  11.482  19.309  0.00  0.00    +0.000 OA
BRANCH  18  19
ATOM     19  S   UNL     1      -1.443  11.813  19.557  0.00  0.00    +0.000 S 
ATOM     20  O   UNL     1      -2.217  10.971  18.680  0.00  0.00    +0.000 OA
ATOM     21  O   UNL     1      -1.672  11.883  20.979  0.00  0.00    +0.000 OA
BRANCH  19  22
ATOM     22  N   UNL     1      -1.572  13.367  18.963  0.00  0.00    +0.000 NA
ATOM     23  H   UNL     1      -1.703  14.041  19.712  0.00  0.00    +0.000 HD
ATOM     24  H   UNL     1      -2.250  13.422  18.206  0.00  0.00    +0.000 HD
ENDBRANCH  19  22
ENDBRANCH  18  19
ENDBRANCH  17  18
ENDBRANCH  13  17
ENDBRANCH   9  10
BRANCH   1  25
ATOM     25  N   UNL     1       4.887   2.203  19.729  0.00  0.00    +0.000 N 
ATOM     26  H   UNL     1       4.182   1.656  19.247  0.00  0.00    +0.000 HD
ATOM     27  H   UNL     1       5.780   1.747  19.874  0.00  0.00    +0.000 HD
ENDBRANCH   1  25
BRANCH   7  28
ATOM     28  C   UNL     1       1.940   3.367  20.764  0.00  0.00    +0.000 C 
ATOM     29  F   UNL     1       2.319   3.299  22.070  0.00  0.00    +0.000 F 
ATOM     30  F   UNL     1       0.588   3.552  20.784  0.00  0.00    +0.000 F 
ENDBRANCH   7  28
TORSDOF 8
ENDMDL
MODEL 8
REMARK VINA RESULT:      -7.0      2.068      2.308
REMARK  Name = 
REMARK  8 active torsions:
REMARK  status: ('A' for Active; 'I' for Inactive)
REMARK    1  A    between atoms: N_1  and  C_2
REMARK    2  A    between atoms: C_8  and  C_9
REMARK    3  A    between atoms: N_13  and  C_14
REMARK    4  A    between atoms: C_16  and  O_17
REMARK    5  A    between atoms: C_18  and  C_19
REMARK    6  A    between atoms: C_19  and  O_20
REMARK    7  A    between atoms: O_20  and  S_21
REMARK    8  A    between atoms: S_21  and  N_22
REMARK                            x       y       z     vdW  Elec       q    Type
REMARK                         _______ _______ _______ _____ _____    ______ ____
ROOT
ATOM      1  C   UNL     1       3.992   3.254  17.695  0.00  0.00    +0.000 A 
ATOM      2  N   UNL     1       4.879   3.625  16.748  0.00  0.00    +0.000 NA
ATOM      3  C   UNL     1       5.014   4.938  16.473  0.00  0.00    +0.000 A 
ATOM      4  N   UNL     1       4.365   5.975  17.032  0.00  0.00    +0.000 NA
ATOM      5  C   UNL     1       3.500   5.558  17.973  0.00  0.00    +0.000 A 
ATOM      6  C   UNL     1       3.260   4.250  18.350  0.00  0.00    +0.000 A 
ATOM      7  C   UNL     1       2.260   4.334  19.352  0.00  0.00    +0.000 A 
ATOM      8  N   UNL     1       1.901   5.611  19.600  0.00  0.00    +0.000 NA
ATOM      9  N   UNL     1       2.682   6.336  18.751  0.00  0.00    +0.000 N 
ENDROOT
BRANCH   9  10
ATOM     10  C   UNL     1       2.591   7.788  18.698  0.00  0.00    +0.000 C 
ATOM     11  C   UNL     1       1.845   8.333  17.485  0.00  0.00    +0.000 C 
ATOM     12  C   UNL     1       1.204   9.587  18.035  0.00  0.00    +0.000 C 
ATOM     13  C   UNL     1       0.873   9.181  19.471  0.00  0.00    +0.000 C 
ATOM     14  O   UNL     1       1.921   8.283  19.883  0.00  0.00    +0.000 OA
BRANCH  12  15
ATOM     15  O   UNL     1       2.131  10.667  17.940  0.00  0.00    +0.000 OA
ATOM     16  H   UNL     1       3.030  10.324  17.809  0.00  0.00    +0.000 HD
ENDBRANCH  12  15
BRANCH  13  17
ATOM     17  C   UNL     1       0.768  10.327  20.474  0.00  0.00    +0.000 C 
BRANCH  17  18
ATOM     18  O   UNL     1      -0.204  11.279  20.071  0.00  0.00    +0.000 OA
BRANCH  18  19
ATOM     19  S   UNL     1       0.330  12.796  19.839  0.00  0.00    +0.000 S 
ATOM     20  O   UNL     1      -0.571  13.691  20.522  0.00  0.00    +0.000 OA
ATOM     21  O   UNL     1       1.756  12.811  20.048  0.00  0.00    +0.000 OA
BRANCH  19  22
ATOM     22  N   UNL     1       0.070  13.013  18.205  0.00  0.00    +0.000 NA
ATOM     23  H   UNL     1      -0.708  13.643  18.033  0.00  0.00    +0.000 HD
ATOM     24  H   UNL     1       0.026  12.123  17.714  0.00  0.00    +0.000 HD
ENDBRANCH  19  22
ENDBRANCH  18  19
ENDBRANCH  17  18
ENDBRANCH  13  17
ENDBRANCH   9  10
BRANCH   1  25
ATOM     25  N   UNL     1       3.876   1.899  17.955  0.00  0.00    +0.000 N 
ATOM     26  H   UNL     1       4.649   1.562  18.517  0.00  0.00    +0.000 HD
ATOM     27  H   UNL     1       2.957   1.563  18.216  0.00  0.00    +0.000 HD
ENDBRANCH   1  25
BRANCH   7  28
ATOM     28  C   UNL     1       1.650   3.183  20.078  0.00  0.00    +0.000 C 
ATOM     29  F   UNL     1       0.892   3.601  21.129  0.00  0.00    +0.000 F 
ATOM     30  F   UNL     1       0.798   2.493  19.264  0.00  0.00    +0.000 F 
ENDBRANCH   7  28
TORSDOF 8
ENDMDL
MODEL 9
REMARK VINA RESULT:      -7.0      1.535      1.591
REMARK  Name = 
REMARK  8 active torsions:
REMARK  status: ('A' for Active; 'I' for Inactive)
REMARK    1  A    between atoms: N_1  and  C_2
REMARK    2  A    between atoms: C_8  and  C_9
REMARK    3  A    between atoms: N_13  and  C_14
REMARK    4  A    between atoms: C_16  and  O_17
REMARK    5  A    between atoms: C_18  and  C_19
REMARK    6  A    between atoms: C_19  and  O_20
REMARK    7  A    between atoms: O_20  and  S_21
REMARK    8  A    between atoms: S_21  and  N_22
REMARK                            x       y       z     vdW  Elec       q    Type
REMARK                         _______ _______ _______ _____ _____    ______ ____
ROOT
ATOM      1  C   UNL     1       3.902   3.245  17.680  0.00  0.00    +0.000 A 
ATOM      2  N   UNL     1       4.812   3.670  16.779  0.00  0.00    +0.000 NA
ATOM      3  C   UNL     1       4.960   4.997  16.591  0.00  0.00    +0.000 A 
ATOM      4  N   UNL     1       4.302   6.000  17.199  0.00  0.00    +0.000 NA
ATOM      5  C   UNL     1       3.413   5.530  18.091  0.00  0.00    +0.000 A 
ATOM      6  C   UNL     1       3.159   4.202  18.378  0.00  0.00    +0.000 A 
ATOM      7  C   UNL     1       2.135   4.229  19.360  0.00  0.00    +0.000 A 
ATOM      8  N   UNL     1       1.776   5.490  19.680  0.00  0.00    +0.000 NA
ATOM      9  N   UNL     1       2.580   6.262  18.897  0.00  0.00    +0.000 N 
ENDROOT
BRANCH   9  10
ATOM     10  C   UNL     1       2.497   7.715  18.934  0.00  0.00    +0.000 C 
ATOM     11  C   UNL     1       1.707   8.334  17.787  0.00  0.00    +0.000 C 
ATOM     12  C   UNL     1       1.097   9.556  18.435  0.00  0.00    +0.000 C 
ATOM     13  C   UNL     1       0.820   9.067  19.856  0.00  0.00    +0.000 C 
ATOM     14  O   UNL     1       1.879   8.141  20.173  0.00  0.00    +0.000 OA
BRANCH  12  15
ATOM     15  O   UNL     1       2.026  10.636  18.367  0.00  0.00    +0.000 OA
ATOM     16  H   UNL     1       2.418  10.683  17.479  0.00  0.00    +0.000 HD
ENDBRANCH  12  15
BRANCH  13  17
ATOM     17  C   UNL     1       0.763  10.152  20.930  0.00  0.00    +0.000 C 
BRANCH  17  18
ATOM     18  O   UNL     1      -0.170  11.165  20.589  0.00  0.00    +0.000 OA
BRANCH  18  19
ATOM     19  S   UNL     1      -0.657  12.130  21.803  0.00  0.00    +0.000 S 
ATOM     20  O   UNL     1       0.349  13.145  21.992  0.00  0.00    +0.000 OA
ATOM     21  O   UNL     1      -2.052  12.436  21.606  0.00  0.00    +0.000 OA
BRANCH  19  22
ATOM     22  N   UNL     1      -0.560  11.111  23.121  0.00  0.00    +0.000 NA
ATOM     23  H   UNL     1       0.219  10.463  23.032  0.00  0.00    +0.000 HD
ATOM     24  H   UNL     1      -1.460  10.682  23.327  0.00  0.00    +0.000 HD
ENDBRANCH  19  22
ENDBRANCH  18  19
ENDBRANCH  17  18
ENDBRANCH  13  17
ENDBRANCH   9  10
BRANCH   1  25
ATOM     25  N   UNL     1       3.774   1.877  17.850  0.00  0.00    +0.000 N 
ATOM     26  H   UNL     1       4.652   1.454  18.128  0.00  0.00    +0.000 HD
ATOM     27  H   UNL     1       2.950   1.556  18.345  0.00  0.00    +0.000 HD
ENDBRANCH   1  25
BRANCH   7  28
ATOM     28  C   UNL     1       1.503   3.037  19.997  0.00  0.00    +0.000 C 
ATOM     29  F   UNL     1       1.109   3.304  21.273  0.00  0.00    +0.000 F 
ATOM     30  F   UNL     1       0.366   2.677  19.332  0.00  0.00    +0.000 F 
ENDBRANCH   7  28
TORSDOF 8
ENDMDL
