MODEL 1
REMARK VINA RESULT:      -8.0      0.000      0.000
REMARK  Name = 
REMARK  6 active torsions:
REMARK  status: ('A' for Active; 'I' for Inactive)
REMARK    1  A    between atoms: C_2  and  C_3
REMARK    2  A    between atoms: C_3  and  N_4
REMARK    3  A    between atoms: N_8  and  N_9
REMARK    4  A    between atoms: C_10  and  C_12
REMARK    5  A    between atoms: C_15  and  S_16
REMARK    6  A    between atoms: S_16  and  N_17
REMARK                            x       y       z     vdW  Elec       q    Type
REMARK                         _______ _______ _______ _____ _____    ______ ____
ROOT
ATOM      1  N   UNL     1       2.287   7.850  19.899  0.00  0.00    +0.000 N 
ATOM      2  C   UNL     1       2.386   6.472  19.780  0.00  0.00    +0.000 C 
ATOM      3  O   UNL     1       1.782   5.660  20.479  0.00  0.00    +0.000 OA
ATOM      4  H   UNL     1       2.874   8.481  19.354  0.00  0.00    +0.000 HD
ENDROOT
BRANCH   1   9
ATOM      5  N   UNL     1      -0.268  11.135  19.369  0.00  0.00    +0.000 N 
ATOM      6  C   UNL     1       0.643  10.109  19.183  0.00  0.00    +0.000 C 
ATOM      7  O   UNL     1       1.266   9.769  18.195  0.00  0.00    +0.000 OA
ATOM      8  C   UNL     1       0.745   9.400  20.533  0.00  0.00    +0.000 C 
ATOM      9  N   UNL     1       1.476   8.382  20.862  0.00  0.00    +0.000 NA
ATOM     10  C   UNL     1      -0.166  10.100  21.427  0.00  0.00    +0.000 A 
ATOM     11  C   UNL     1      -0.466   9.857  22.754  0.00  0.00    +0.000 A 
ATOM     12  C   UNL     1      -1.386  10.712  23.363  0.00  0.00    +0.000 A 
ATOM     13  C   UNL     1      -1.976  11.764  22.637  0.00  0.00    +0.000 A 
ATOM     14  C   UNL     1      -1.661  11.982  21.289  0.00  0.00    +0.000 A 
ATOM     15  C   UNL     1      -0.745  11.135  20.693  0.00  0.00    +0.000 A 
BRANCH   5  16
ATOM     16  C   UNL     1      -0.697  12.038  18.330  0.00  0.00    +0.000 C 
BRANCH  16  18
ATOM     17  C   UNL     1      -3.105  11.447  17.906  0.00  0.00    +0.000 C 
ATOM     18  C   UNL     1      -1.814  11.421  17.544  0.00  0.00    +0.000 C 
ENDBRANCH  16  18
ENDBRANCH   5  16
ENDBRANCH   1   9
BRANCH   2  19
ATOM     19  C   UNL     1       3.327   5.962  18.740  0.00  0.00    +0.000 A 
ATOM     20  C   UNL     1       3.824   6.881  17.799  0.00  0.00    +0.000 A 
ATOM     21  C   UNL     1       4.725   6.473  16.814  0.00  0.00    +0.000 A 
ATOM     22  C   UNL     1       5.146   5.143  16.780  0.00  0.00    +0.000 A 
ATOM     23  C   UNL     1       4.656   4.214  17.704  0.00  0.00    +0.000 A 
ATOM     24  C   UNL     1       3.751   4.626  18.689  0.00  0.00    +0.000 A 
BRANCH  22  25
ATOM     25  S   UNL     1       6.298   4.629  15.538  0.00  0.00    +0.000 S 
ATOM     26  O   UNL     1       5.976   3.286  15.120  0.00  0.00    +0.000 OA
ATOM     27  O   UNL     1       6.499   5.708  14.600  0.00  0.00    +0.000 OA
BRANCH  25  28
ATOM     28  N   UNL     1       7.717   4.513  16.425  0.00  0.00    +0.000 NA
ATOM     29  H   UNL     1       7.796   5.303  17.066  0.00  0.00    +0.000 HD
ATOM     30  H   UNL     1       7.775   3.602  16.880  0.00  0.00    +0.000 HD
ENDBRANCH  25  28
ENDBRANCH  22  25
ENDBRANCH   2  19
TORSDOF 6
ENDMDL
MODEL 2
REMARK VINA RESULT:      -7.9      0.732      1.186
REMARK  Name = 
REMARK  6 active torsions:
REMARK  status: ('A' for Active; 'I' for Inactive)
REMARK    1  A    between atoms: C_2  and  C_3
REMARK    2  A    between atoms: C_3  and  N_4
REMARK    3  A    between atoms: N_8  and  N_9
REMARK    4  A    between atoms: C_10  and  C_12
REMARK    5  A    between atoms: C_15  and  S_16
REMARK    6  A    between atoms: S_16  and  N_17
REMARK                            x       y       z     vdW  Elec       q    Type
REMARK                         _______ _______ _______ _____ _____    ______ ____
ROOT
ATOM      1  N   UNL     1       2.277   7.860  19.493  0.00  0.00    +0.000 N 
ATOM      2  C   UNL     1       2.613   6.516  19.452  0.00  0.00    +0.000 C 
ATOM      3  O   UNL     1       2.265   5.678  20.282  0.00  0.00    +0.000 OA
ATOM      4  H   UNL     1       2.662   8.533  18.830  0.00  0.00    +0.000 HD
ENDROOT
BRANCH   1   9
ATOM      5  N   UNL     1      -0.179  11.258  19.341  0.00  0.00    +0.000 N 
ATOM      6  C   UNL     1       0.691  10.225  19.035  0.00  0.00    +0.000 C 
ATOM      7  O   UNL     1       1.272   9.956  18.001  0.00  0.00    +0.000 OA
ATOM      8  C   UNL     1       0.807   9.394  20.312  0.00  0.00    +0.000 C 
ATOM      9  N   UNL     1       1.513   8.329  20.526  0.00  0.00    +0.000 NA
ATOM     10  C   UNL     1      -0.053  10.038  21.295  0.00  0.00    +0.000 A 
ATOM     11  C   UNL     1      -0.323   9.685  22.604  0.00  0.00    +0.000 A 
ATOM     12  C   UNL     1      -1.194  10.510  23.315  0.00  0.00    +0.000 A 
ATOM     13  C   UNL     1      -1.770  11.641  22.706  0.00  0.00    +0.000 A 
ATOM     14  C   UNL     1      -1.487  11.970  21.373  0.00  0.00    +0.000 A 
ATOM     15  C   UNL     1      -0.618  11.153  20.675  0.00  0.00    +0.000 A 
BRANCH   5  16
ATOM     16  C   UNL     1      -0.608  12.264  18.402  0.00  0.00    +0.000 C 
BRANCH  16  18
ATOM     17  C   UNL     1      -2.176  10.636  17.299  0.00  0.00    +0.000 C 
ATOM     18  C   UNL     1      -1.909  11.860  17.777  0.00  0.00    +0.000 C 
ENDBRANCH  16  18
ENDBRANCH   5  16
ENDBRANCH   1   9
BRANCH   2  19
ATOM     19  C   UNL     1       3.490   6.086  18.323  0.00  0.00    +0.000 A 
ATOM     20  C   UNL     1       3.675   4.706  18.127  0.00  0.00    +0.000 A 
ATOM     21  C   UNL     1       4.465   4.237  17.076  0.00  0.00    +0.000 A 
ATOM     22  C   UNL     1       5.057   5.152  16.204  0.00  0.00    +0.000 A 
ATOM     23  C   UNL     1       4.889   6.529  16.390  0.00  0.00    +0.000 A 
ATOM     24  C   UNL     1       4.098   6.995  17.446  0.00  0.00    +0.000 A 
BRANCH  22  25
ATOM     25  S   UNL     1       6.048   4.556  14.864  0.00  0.00    +0.000 S 
ATOM     26  O   UNL     1       5.205   4.326  13.716  0.00  0.00    +0.000 OA
ATOM     27  O   UNL     1       7.266   5.330  14.792  0.00  0.00    +0.000 OA
BRANCH  25  28
ATOM     28  N   UNL     1       6.495   3.040  15.426  0.00  0.00    +0.000 NA
ATOM     29  H   UNL     1       7.496   3.017  15.617  0.00  0.00    +0.000 HD
ATOM     30  H   UNL     1       5.914   2.774  16.222  0.00  0.00    +0.000 HD
ENDBRANCH  25  28
ENDBRANCH  22  25
ENDBRANCH   2  19
TORSDOF 6
ENDMDL
MODEL 3
REMARK VINA RESULT:      -7.9      0.925      1.431
REMARK  Name = 
REMARK  6 active torsions:
REMARK  status: ('A' for Active; 'I' for Inactive)
REMARK    1  A    between atoms: C_2  and  C_3
REMARK    2  A    between atoms: C_3  and  N_4
REMARK    3  A    between atoms: N_8  and  N_9
REMARK    4  A    between atoms: C_10  and  C_12
REMARK    5  A    between atoms: C_15  and  S_16
REMARK    6  A    between atoms: S_16  and  N_17
REMARK                            x       y       z     vdW  Elec       q    Type
REMARK                         _______ _______ _______ _____ _____    ______ ____
ROOT
ATOM      1  N   UNL     1       2.211   7.785  19.743  0.00  0.00    +0.000 N 
ATOM      2  C   UNL     1       2.361   6.411  19.642  0.00  0.00    +0.000 C 
ATOM      3  O   UNL     1       1.785   5.587  20.351  0.00  0.00    +0.000 OA
ATOM      4  H   UNL     1       2.776   8.431  19.191  0.00  0.00    +0.000 HD
ENDROOT
BRANCH   1   9
ATOM      5  N   UNL     1       0.323  11.527  19.547  0.00  0.00    +0.000 N 
ATOM      6  C   UNL     1       1.070  10.392  19.276  0.00  0.00    +0.000 C 
ATOM      7  O   UNL     1       1.751  10.102  18.311  0.00  0.00    +0.000 OA
ATOM      8  C   UNL     1       0.876   9.474  20.482  0.00  0.00    +0.000 C 
ATOM      9  N   UNL     1       1.380   8.301  20.699  0.00  0.00    +0.000 NA
ATOM     10  C   UNL     1      -0.016  10.182  21.390  0.00  0.00    +0.000 A 
ATOM     11  C   UNL     1      -0.523   9.794  22.616  0.00  0.00    +0.000 A 
ATOM     12  C   UNL     1      -1.361  10.698  23.270  0.00  0.00    +0.000 A 
ATOM     13  C   UNL     1      -1.671  11.941  22.686  0.00  0.00    +0.000 A 
ATOM     14  C   UNL     1      -1.151  12.305  21.436  0.00  0.00    +0.000 A 
ATOM     15  C   UNL     1      -0.316  11.407  20.795  0.00  0.00    +0.000 A 
BRANCH   5  16
ATOM     16  C   UNL     1       0.188  12.644  18.646  0.00  0.00    +0.000 C 
BRANCH  16  18
ATOM     17  C   UNL     1       2.372  13.761  18.088  0.00  0.00    +0.000 C 
ATOM     18  C   UNL     1       1.297  13.626  18.878  0.00  0.00    +0.000 C 
ENDBRANCH  16  18
ENDBRANCH   5  16
ENDBRANCH   1   9
BRANCH   2  19
ATOM     19  C   UNL     1       3.321   5.921  18.610  0.00  0.00    +0.000 A 
ATOM     20  C   UNL     1       3.854   6.863  17.713  0.00  0.00    +0.000 A 
ATOM     21  C   UNL     1       4.775   6.474  16.738  0.00  0.00    +0.000 A 
ATOM     22  C   UNL     1       5.178   5.140  16.671  0.00  0.00    +0.000 A 
ATOM     23  C   UNL     1       4.651   4.189  17.551  0.00  0.00    +0.000 A 
ATOM     24  C   UNL     1       3.727   4.582  18.526  0.00  0.00    +0.000 A 
BRANCH  22  25
ATOM     25  S   UNL     1       6.354   4.651  15.442  0.00  0.00    +0.000 S 
ATOM     26  O   UNL     1       6.024   3.327  14.971  0.00  0.00    +0.000 OA
ATOM     27  O   UNL     1       6.595   5.757  14.546  0.00  0.00    +0.000 OA
BRANCH  25  28
ATOM     28  N   UNL     1       7.748   4.483  16.360  0.00  0.00    +0.000 NA
ATOM     29  H   UNL     1       8.530   4.213  15.764  0.00  0.00    +0.000 HD
ATOM     30  H   UNL     1       7.915   5.330  16.906  0.00  0.00    +0.000 HD
ENDBRANCH  25  28
ENDBRANCH  22  25
ENDBRANCH   2  19
TORSDOF 6
ENDMDL
MODEL 4
REMARK VINA RESULT:      -7.8      1.080      1.516
REMARK  Name = 
REMARK  6 active torsions:
REMARK  status: ('A' for Active; 'I' for Inactive)
REMARK    1  A    between atoms: C_2  and  C_3
REMARK    2  A    between atoms: C_3  and  N_4
REMARK    3  A    between atoms: N_8  and  N_9
REMARK    4  A    between atoms: C_10  and  C_12
REMARK    5  A    between atoms: C_15  and  S_16
REMARK    6  A    between atoms: S_16  and  N_17
REMARK                            x       y       z     vdW  Elec       q    Type
REMARK                         _______ _______ _______ _____ _____    ______ ____
ROOT
ATOM      1  N   UNL     1       2.264   7.720  19.998  0.00  0.00    +0.000 N 
ATOM      2  C   UNL     1       2.500   6.354  20.028  0.00  0.00    +0.000 C 
ATOM      3  O   UNL     1       1.985   5.569  20.822  0.00  0.00    +0.000 OA
ATOM      4  H   UNL     1       2.782   8.343  19.377  0.00  0.00    +0.000 HD
ENDROOT
BRANCH   1   9
ATOM      5  N   UNL     1       0.199  11.338  19.501  0.00  0.00    +0.000 N 
ATOM      6  C   UNL     1       0.999  10.222  19.321  0.00  0.00    +0.000 C 
ATOM      7  O   UNL     1       1.692   9.885  18.381  0.00  0.00    +0.000 OA
ATOM      8  C   UNL     1       0.850   9.399  20.600  0.00  0.00    +0.000 C 
ATOM      9  N   UNL     1       1.410   8.274  20.911  0.00  0.00    +0.000 NA
ATOM     10  C   UNL     1      -0.074  10.137  21.451  0.00  0.00    +0.000 A 
ATOM     11  C   UNL     1      -0.561   9.828  22.707  0.00  0.00    +0.000 A 
ATOM     12  C   UNL     1      -1.441  10.742  23.288  0.00  0.00    +0.000 A 
ATOM     13  C   UNL     1      -1.810  11.916  22.604  0.00  0.00    +0.000 A 
ATOM     14  C   UNL     1      -1.309  12.199  21.326  0.00  0.00    +0.000 A 
ATOM     15  C   UNL     1      -0.433  11.293  20.758  0.00  0.00    +0.000 A 
BRANCH   5  16
ATOM     16  C   UNL     1       0.009  12.370  18.511  0.00  0.00    +0.000 C 
BRANCH  16  18
ATOM     17  C   UNL     1       0.668  14.731  19.075  0.00  0.00    +0.000 C 
ATOM     18  C   UNL     1       0.995  13.477  18.731  0.00  0.00    +0.000 C 
ENDBRANCH  16  18
ENDBRANCH   5  16
ENDBRANCH   1   9
BRANCH   2  19
ATOM     19  C   UNL     1       3.481   5.828  19.034  0.00  0.00    +0.000 A 
ATOM     20  C   UNL     1       3.730   6.602  17.887  0.00  0.00    +0.000 A 
ATOM     21  C   UNL     1       4.652   6.177  16.930  0.00  0.00    +0.000 A 
ATOM     22  C   UNL     1       5.344   4.981  17.128  0.00  0.00    +0.000 A 
ATOM     23  C   UNL     1       5.103   4.196  18.261  0.00  0.00    +0.000 A 
ATOM     24  C   UNL     1       4.175   4.624  19.218  0.00  0.00    +0.000 A 
BRANCH  22  25
ATOM     25  S   UNL     1       6.522   4.450  15.919  0.00  0.00    +0.000 S 
ATOM     26  O   UNL     1       7.836   4.428  16.515  0.00  0.00    +0.000 OA
ATOM     27  O   UNL     1       5.981   3.327  15.189  0.00  0.00    +0.000 OA
BRANCH  25  28
ATOM     28  N   UNL     1       6.515   5.744  14.853  0.00  0.00    +0.000 NA
ATOM     29  H   UNL     1       5.974   5.511  14.021  0.00  0.00    +0.000 HD
ATOM     30  H   UNL     1       6.202   6.591  15.328  0.00  0.00    +0.000 HD
ENDBRANCH  25  28
ENDBRANCH  22  25
ENDBRANCH   2  19
TORSDOF 6
ENDMDL
MODEL 5
REMARK VINA RESULT:      -7.7      3.862      9.215
REMARK  Name = 
REMARK  6 active torsions:
REMARK  status: ('A' for Active; 'I' for Inactive)
REMARK    1  A    between atoms: C_2  and  C_3
REMARK    2  A    between atoms: C_3  and  N_4
REMARK    3  A    between atoms: N_8  and  N_9
REMARK    4  A    between atoms: C_10  and  C_12
REMARK    5  A    between atoms: C_15  and  S_16
REMARK    6  A    between atoms: S_16  and  N_17
REMARK                            x       y       z     vdW  Elec       q    Type
REMARK                         _______ _______ _______ _____ _____    ______ ____
ROOT
ATOM      1  N   UNL     1       1.769   8.797  19.535  0.00  0.00    +0.000 N 
ATOM      2  C   UNL     1       0.769   9.636  19.068  0.00  0.00    +0.000 C 
ATOM      3  O   UNL     1       0.510   9.828  17.881  0.00  0.00    +0.000 OA
ATOM      4  H   UNL     1       2.003   8.737  20.526  0.00  0.00    +0.000 HD
ENDROOT
BRANCH   1   9
ATOM      5  N   UNL     1       2.741   4.721  19.741  0.00  0.00    +0.000 N 
ATOM      6  C   UNL     1       2.222   5.983  19.976  0.00  0.00    +0.000 C 
ATOM      7  O   UNL     1       1.486   6.388  20.856  0.00  0.00    +0.000 OA
ATOM      8  C   UNL     1       2.756   6.864  18.847  0.00  0.00    +0.000 C 
ATOM      9  N   UNL     1       2.555   8.126  18.638  0.00  0.00    +0.000 NA
ATOM     10  C   UNL     1       3.571   5.997  18.008  0.00  0.00    +0.000 A 
ATOM     11  C   UNL     1       4.269   6.285  16.850  0.00  0.00    +0.000 A 
ATOM     12  C   UNL     1       4.977   5.238  16.260  0.00  0.00    +0.000 A 
ATOM     13  C   UNL     1       4.960   3.950  16.829  0.00  0.00    +0.000 A 
ATOM     14  C   UNL     1       4.235   3.683  17.998  0.00  0.00    +0.000 A 
ATOM     15  C   UNL     1       3.540   4.726  18.582  0.00  0.00    +0.000 A 
BRANCH   5  16
ATOM     16  C   UNL     1       2.455   3.561  20.549  0.00  0.00    +0.000 C 
BRANCH  16  18
ATOM     17  C   UNL     1       0.791   2.447  19.027  0.00  0.00    +0.000 C 
ATOM     18  C   UNL     1       1.103   3.016  20.200  0.00  0.00    +0.000 C 
ENDBRANCH  16  18
ENDBRANCH   5  16
ENDBRANCH   1   9
BRANCH   2  19
ATOM     19  C   UNL     1      -0.016  10.372  20.101  0.00  0.00    +0.000 A 
ATOM     20  C   UNL     1      -0.833  11.432  19.671  0.00  0.00    +0.000 A 
ATOM     21  C   UNL     1      -1.610  12.146  20.585  0.00  0.00    +0.000 A 
ATOM     22  C   UNL     1      -1.585  11.788  21.933  0.00  0.00    +0.000 A 
ATOM     23  C   UNL     1      -0.771  10.740  22.379  0.00  0.00    +0.000 A 
ATOM     24  C   UNL     1       0.008  10.027  21.460  0.00  0.00    +0.000 A 
BRANCH  22  25
ATOM     25  S   UNL     1      -2.579  12.686  23.088  0.00  0.00    +0.000 S 
ATOM     26  O   UNL     1      -3.388  11.758  23.840  0.00  0.00    +0.000 OA
ATOM     27  O   UNL     1      -1.772  13.703  23.721  0.00  0.00    +0.000 OA
BRANCH  25  28
ATOM     28  N   UNL     1      -3.631  13.498  22.065  0.00  0.00    +0.000 NA
ATOM     29  H   UNL     1      -3.891  12.899  21.281  0.00  0.00    +0.000 HD
ATOM     30  H   UNL     1      -4.427  13.860  22.592  0.00  0.00    +0.000 HD
ENDBRANCH  25  28
ENDBRANCH  22  25
ENDBRANCH   2  19
TORSDOF 6
ENDMDL
MODEL 6
REMARK VINA RESULT:      -7.7      0.753      1.279
REMARK  Name = 
REMARK  6 active torsions:
REMARK  status: ('A' for Active; 'I' for Inactive)
REMARK    1  A    between atoms: C_2  and  C_3
REMARK    2  A    between atoms: C_3  and  N_4
REMARK    3  A    between atoms: N_8  and  N_9
REMARK    4  A    between atoms: C_10  and  C_12
REMARK    5  A    between atoms: C_15  and  S_16
REMARK    6  A    between atoms: S_16  and  N_17
REMARK                            x       y       z     vdW  Elec       q    Type
REMARK                         _______ _______ _______ _____ _____    ______ ____
ROOT
ATOM      1  N   UNL     1       2.278   8.040  20.068  0.00  0.00    +0.000 N 
ATOM      2  C   UNL     1       2.424   6.663  19.989  0.00  0.00    +0.000 C 
ATOM      3  O   UNL     1       1.825   5.851  20.692  0.00  0.00    +0.000 OA
ATOM      4  H   UNL     1       2.861   8.675  19.524  0.00  0.00    +0.000 HD
ENDROOT
BRANCH   1   9
ATOM      5  N   UNL     1      -0.348  11.238  19.381  0.00  0.00    +0.000 N 
ATOM      6  C   UNL     1       0.596  10.234  19.248  0.00  0.00    +0.000 C 
ATOM      7  O   UNL     1       1.259   9.889  18.288  0.00  0.00    +0.000 OA
ATOM      8  C   UNL     1       0.675   9.559  20.617  0.00  0.00    +0.000 C 
ATOM      9  N   UNL     1       1.422   8.571  20.993  0.00  0.00    +0.000 NA
ATOM     10  C   UNL     1      -0.283  10.254  21.466  0.00  0.00    +0.000 A 
ATOM     11  C   UNL     1      -0.619  10.032  22.788  0.00  0.00    +0.000 A 
ATOM     12  C   UNL     1      -1.580  10.874  23.348  0.00  0.00    +0.000 A 
ATOM     13  C   UNL     1      -2.177  11.893  22.579  0.00  0.00    +0.000 A 
ATOM     14  C   UNL     1      -1.825  12.088  21.237  0.00  0.00    +0.000 A 
ATOM     15  C   UNL     1      -0.867  11.254  20.689  0.00  0.00    +0.000 A 
BRANCH   5  16
ATOM     16  C   UNL     1      -0.769  12.105  18.309  0.00  0.00    +0.000 C 
BRANCH  16  18
ATOM     17  C   UNL     1      -3.161  11.543  17.767  0.00  0.00    +0.000 C 
ATOM     18  C   UNL     1      -1.849  11.441  17.508  0.00  0.00    +0.000 C 
ENDBRANCH  16  18
ENDBRANCH   5  16
ENDBRANCH   1   9
BRANCH   2  19
ATOM     19  C   UNL     1       3.411   6.157  18.991  0.00  0.00    +0.000 A 
ATOM     20  C   UNL     1       4.083   4.958  19.285  0.00  0.00    +0.000 A 
ATOM     21  C   UNL     1       5.002   4.419  18.382  0.00  0.00    +0.000 A 
ATOM     22  C   UNL     1       5.236   5.071  17.171  0.00  0.00    +0.000 A 
ATOM     23  C   UNL     1       4.581   6.270  16.867  0.00  0.00    +0.000 A 
ATOM     24  C   UNL     1       3.662   6.808  17.775  0.00  0.00    +0.000 A 
BRANCH  22  25
ATOM     25  S   UNL     1       6.392   4.381  16.023  0.00  0.00    +0.000 S 
ATOM     26  O   UNL     1       7.716   4.428  16.596  0.00  0.00    +0.000 OA
ATOM     27  O   UNL     1       5.835   3.176  15.452  0.00  0.00    +0.000 OA
BRANCH  25  28
ATOM     28  N   UNL     1       6.373   5.527  14.798  0.00  0.00    +0.000 NA
ATOM     29  H   UNL     1       6.232   5.074  13.896  0.00  0.00    +0.000 HD
ATOM     30  H   UNL     1       5.691   6.257  15.009  0.00  0.00    +0.000 HD
ENDBRANCH  25  28
ENDBRANCH  22  25
ENDBRANCH   2  19
TORSDOF 6
ENDMDL
MODEL 7
REMARK VINA RESULT:      -7.7      0.803      1.518
REMARK  Name = 
REMARK  6 active torsions:
REMARK  status: ('A' for Active; 'I' for Inactive)
REMARK    1  A    between atoms: C_2  and  C_3
REMARK    2  A    between atoms: C_3  and  N_4
REMARK    3  A    between atoms: N_8  and  N_9
REMARK    4  A    between atoms: C_10  and  C_12
REMARK    5  A    between atoms: C_15  and  S_16
REMARK    6  A    between atoms: S_16  and  N_17
REMARK                            x       y       z     vdW  Elec       q    Type
REMARK                         _______ _______ _______ _____ _____    ______ ____
ROOT
ATOM      1  N   UNL     1       2.254   8.056  19.970  0.00  0.00    +0.000 N 
ATOM      2  C   UNL     1       2.426   6.684  19.866  0.00  0.00    +0.000 C 
ATOM      3  O   UNL     1       1.837   5.848  20.549  0.00  0.00    +0.000 OA
ATOM      4  H   UNL     1       2.829   8.712  19.443  0.00  0.00    +0.000 HD
ENDROOT
BRANCH   1   9
ATOM      5  N   UNL     1      -0.073  11.514  19.499  0.00  0.00    +0.000 N 
ATOM      6  C   UNL     1       0.800  10.456  19.308  0.00  0.00    +0.000 C 
ATOM      7  O   UNL     1       1.495  10.162  18.354  0.00  0.00    +0.000 OA
ATOM      8  C   UNL     1       0.738   9.634  20.595  0.00  0.00    +0.000 C 
ATOM      9  N   UNL     1       1.383   8.554  20.900  0.00  0.00    +0.000 NA
ATOM     10  C   UNL     1      -0.218  10.310  21.461  0.00  0.00    +0.000 A 
ATOM     11  C   UNL     1      -0.654   9.977  22.730  0.00  0.00    +0.000 A 
ATOM     12  C   UNL     1      -1.584  10.831  23.325  0.00  0.00    +0.000 A 
ATOM     13  C   UNL     1      -2.050  11.971  22.643  0.00  0.00    +0.000 A 
ATOM     14  C   UNL     1      -1.598  12.279  21.352  0.00  0.00    +0.000 A 
ATOM     15  C   UNL     1      -0.673  11.433  20.770  0.00  0.00    +0.000 A 
BRANCH   5  16
ATOM     16  C   UNL     1      -0.357  12.522  18.508  0.00  0.00    +0.000 C 
BRANCH  16  18
ATOM     17  C   UNL     1       0.168  14.942  18.953  0.00  0.00    +0.000 C 
ATOM     18  C   UNL     1       0.566  13.689  18.686  0.00  0.00    +0.000 C 
ENDBRANCH  16  18
ENDBRANCH   5  16
ENDBRANCH   1   9
BRANCH   2  19
ATOM     19  C   UNL     1       3.428   6.215  18.865  0.00  0.00    +0.000 A 
ATOM     20  C   UNL     1       4.046   4.972  19.090  0.00  0.00    +0.000 A 
ATOM     21  C   UNL     1       4.975   4.466  18.180  0.00  0.00    +0.000 A 
ATOM     22  C   UNL     1       5.276   5.197  17.029  0.00  0.00    +0.000 A 
ATOM     23  C   UNL     1       4.675   6.439  16.795  0.00  0.00    +0.000 A 
ATOM     24  C   UNL     1       3.745   6.944  17.711  0.00  0.00    +0.000 A 
BRANCH  22  25
ATOM     25  S   UNL     1       6.446   4.548  15.871  0.00  0.00    +0.000 S 
ATOM     26  O   UNL     1       5.965   3.283  15.369  0.00  0.00    +0.000 OA
ATOM     27  O   UNL     1       6.892   5.611  15.000  0.00  0.00    +0.000 OA
BRANCH  25  28
ATOM     28  N   UNL     1       7.744   4.190  16.870  0.00  0.00    +0.000 NA
ATOM     29  H   UNL     1       7.844   3.180  16.968  0.00  0.00    +0.000 HD
ATOM     30  H   UNL     1       8.586   4.660  16.537  0.00  0.00    +0.000 HD
ENDBRANCH  25  28
ENDBRANCH  22  25
ENDBRANCH   2  19
TORSDOF 6
ENDMDL
MODEL 8
REMARK VINA RESULT:      -7.6      3.603      9.154
REMARK  Name = 
REMARK  6 active torsions:
REMARK  status: ('A' for Active; 'I' for Inactive)
REMARK    1  A    between atoms: C_2  and  C_3
REMARK    2  A    between atoms: C_3  and  N_4
REMARK    3  A    between atoms: N_8  and  N_9
REMARK    4  A    between atoms: C_10  and  C_12
REMARK    5  A    between atoms: C_15  and  S_16
REMARK    6  A    between atoms: S_16  and  N_17
REMARK                            x       y       z     vdW  Elec       q    Type
REMARK                         _______ _______ _______ _____ _____    ______ ____
ROOT
ATOM      1  N   UNL     1       2.401   8.397  18.647  0.00  0.00    +0.000 N 
ATOM      2  C   UNL     1       1.822   9.622  18.356  0.00  0.00    +0.000 C 
ATOM      3  O   UNL     1       1.985  10.247  17.310  0.00  0.00    +0.000 OA
ATOM      4  H   UNL     1       2.306   7.960  19.564  0.00  0.00    +0.000 HD
ENDROOT
BRANCH   1   9
ATOM      5  N   UNL     1       3.484   4.344  18.592  0.00  0.00    +0.000 N 
ATOM      6  C   UNL     1       2.921   5.571  18.900  0.00  0.00    +0.000 C 
ATOM      7  O   UNL     1       2.148   5.892  19.782  0.00  0.00    +0.000 OA
ATOM      8  C   UNL     1       3.464   6.546  17.855  0.00  0.00    +0.000 C 
ATOM      9  N   UNL     1       3.233   7.814  17.731  0.00  0.00    +0.000 NA
ATOM     10  C   UNL     1       4.328   5.764  16.982  0.00  0.00    +0.000 A 
ATOM     11  C   UNL     1       5.052   6.154  15.871  0.00  0.00    +0.000 A 
ATOM     12  C   UNL     1       5.807   5.171  15.230  0.00  0.00    +0.000 A 
ATOM     13  C   UNL     1       5.811   3.845  15.705  0.00  0.00    +0.000 A 
ATOM     14  C   UNL     1       5.059   3.475  16.829  0.00  0.00    +0.000 A 
ATOM     15  C   UNL     1       4.317   4.454  17.463  0.00  0.00    +0.000 A 
BRANCH   5  16
ATOM     16  C   UNL     1       3.207   3.122  19.306  0.00  0.00    +0.000 C 
BRANCH  16  18
ATOM     17  C   UNL     1       0.820   2.521  18.788  0.00  0.00    +0.000 C 
ATOM     18  C   UNL     1       2.136   2.348  18.598  0.00  0.00    +0.000 C 
ENDBRANCH  16  18
ENDBRANCH   5  16
ENDBRANCH   1   9
BRANCH   2  19
ATOM     19  C   UNL     1       0.966  10.221  19.422  0.00  0.00    +0.000 A 
ATOM     20  C   UNL     1       0.538  11.549  19.249  0.00  0.00    +0.000 A 
ATOM     21  C   UNL     1      -0.283  12.160  20.199  0.00  0.00    +0.000 A 
ATOM     22  C   UNL     1      -0.695  11.435  21.317  0.00  0.00    +0.000 A 
ATOM     23  C   UNL     1      -0.272  10.114  21.508  0.00  0.00    +0.000 A 
ATOM     24  C   UNL     1       0.554   9.505  20.555  0.00  0.00    +0.000 A 
BRANCH  22  25
ATOM     25  S   UNL     1      -1.745  12.206  22.514  0.00  0.00    +0.000 S 
ATOM     26  O   UNL     1      -2.674  13.079  21.837  0.00  0.00    +0.000 OA
ATOM     27  O   UNL     1      -2.169  11.221  23.482  0.00  0.00    +0.000 OA
BRANCH  25  28
ATOM     28  N   UNL     1      -0.663  13.209  23.313  0.00  0.00    +0.000 NA
ATOM     29  H   UNL     1      -0.233  12.710  24.092  0.00  0.00    +0.000 HD
ATOM     30  H   UNL     1       0.007  13.602  22.652  0.00  0.00    +0.000 HD
ENDBRANCH  25  28
ENDBRANCH  22  25
ENDBRANCH   2  19
TORSDOF 6
ENDMDL
MODEL 9
REMARK VINA RESULT:      -7.5      3.952      9.217
REMARK  Name = 
REMARK  6 active torsions:
REMARK  status: ('A' for Active; 'I' for Inactive)
REMARK    1  A    between atoms: C_2  and  C_3
REMARK    2  A    between atoms: C_3  and  N_4
REMARK    3  A    between atoms: N_8  and  N_9
REMARK    4  A    between atoms: C_10  and  C_12
REMARK    5  A    between atoms: C_15  and  S_16
REMARK    6  A    between atoms: S_16  and  N_17
REMARK                            x       y       z     vdW  Elec       q    Type
REMARK                         _______ _______ _______ _____ _____    ______ ____
ROOT
ATOM      1  N   UNL     1       1.544   9.148  19.449  0.00  0.00    +0.000 N 
ATOM      2  C   UNL     1       0.457   9.814  18.903  0.00  0.00    +0.000 C 
ATOM      3  O   UNL     1       0.143   9.792  17.714  0.00  0.00    +0.000 OA
ATOM      4  H   UNL     1       1.815   9.268  20.425  0.00  0.00    +0.000 HD
ENDROOT
BRANCH   1   9
ATOM      5  N   UNL     1       2.694   5.171  20.128  0.00  0.00    +0.000 N 
ATOM      6  C   UNL     1       2.120   6.428  20.216  0.00  0.00    +0.000 C 
ATOM      7  O   UNL     1       1.368   6.902  21.046  0.00  0.00    +0.000 OA
ATOM      8  C   UNL     1       2.614   7.193  18.988  0.00  0.00    +0.000 C 
ATOM      9  N   UNL     1       2.357   8.411  18.632  0.00  0.00    +0.000 NA
ATOM     10  C   UNL     1       3.464   6.268  18.251  0.00  0.00    +0.000 A 
ATOM     11  C   UNL     1       4.147   6.448  17.063  0.00  0.00    +0.000 A 
ATOM     12  C   UNL     1       4.900   5.370  16.595  0.00  0.00    +0.000 A 
ATOM     13  C   UNL     1       4.941   4.159  17.312  0.00  0.00    +0.000 A 
ATOM     14  C   UNL     1       4.230   4.001  18.510  0.00  0.00    +0.000 A 
ATOM     15  C   UNL     1       3.491   5.074  18.971  0.00  0.00    +0.000 A 
BRANCH   5  16
ATOM     16  C   UNL     1       2.460   4.104  21.069  0.00  0.00    +0.000 C 
BRANCH  16  18
ATOM     17  C   UNL     1       0.792   2.967  19.567  0.00  0.00    +0.000 C 
ATOM     18  C   UNL     1       1.151   3.437  20.771  0.00  0.00    +0.000 C 
ENDBRANCH  16  18
ENDBRANCH   5  16
ENDBRANCH   1   9
BRANCH   2  19
ATOM     19  C   UNL     1      -0.357  10.638  19.844  0.00  0.00    +0.000 A 
ATOM     20  C   UNL     1       0.001  10.625  21.204  0.00  0.00    +0.000 A 
ATOM     21  C   UNL     1      -0.706  11.391  22.132  0.00  0.00    +0.000 A 
ATOM     22  C   UNL     1      -1.764  12.190  21.697  0.00  0.00    +0.000 A 
ATOM     23  C   UNL     1      -2.138  12.208  20.348  0.00  0.00    +0.000 A 
ATOM     24  C   UNL     1      -1.429  11.437  19.421  0.00  0.00    +0.000 A 
BRANCH  22  25
ATOM     25  S   UNL     1      -2.652  13.170  22.873  0.00  0.00    +0.000 S 
ATOM     26  O   UNL     1      -1.714  13.789  23.778  0.00  0.00    +0.000 OA
ATOM     27  O   UNL     1      -3.682  13.917  22.189  0.00  0.00    +0.000 OA
BRANCH  25  28
ATOM     28  N   UNL     1      -3.446  11.989  23.761  0.00  0.00    +0.000 NA
ATOM     29  H   UNL     1      -4.392  12.298  23.988  0.00  0.00    +0.000 HD
ATOM     30  H   UNL     1      -3.408  11.094  23.273  0.00  0.00    +0.000 HD
ENDBRANCH  25  28
ENDBRANCH  22  25
ENDBRANCH   2  19
TORSDOF 6
ENDMDL
