MODEL 1
REMARK VINA RESULT:      -9.3      0.000      0.000
REMARK  Name = 
REMARK  4 active torsions:
REMARK  status: ('A' for Active; 'I' for Inactive)
REMARK    1  A    between atoms: C_5  and  O_6
REMARK    2  A    between atoms: O_6  and  C_7
REMARK    3  A    between atoms: C_7  and  C_8
REMARK    4  A    between atoms: C_9  and  C_10
REMARK                            x       y       z     vdW  Elec       q    Type
REMARK                         _______ _______ _______ _____ _____    ______ ____
ROOT
ATOM      1  O   UNL     1       0.350   9.129  21.684  0.00  0.00    +0.000 OA
ATOM      2  C   UNL     1       0.872   9.475  20.633  0.00  0.00    +0.000 A 
ATOM      3  C   UNL     1       1.490   8.474  19.760  0.00  0.00    +0.000 A 
ATOM      4  C   UNL     1       1.938   7.243  20.216  0.00  0.00    +0.000 A 
ATOM      5  C   UNL     1       2.544   6.409  19.282  0.00  0.00    +0.000 A 
ATOM      6  C   UNL     1       2.143   6.533  17.952  0.00  0.00    +0.000 A 
ATOM      7  C   UNL     1       1.794   7.803  17.500  0.00  0.00    +0.000 A 
ATOM      8  C   UNL     1       1.636   8.830  18.425  0.00  0.00    +0.000 A 
ATOM      9  N   UNL     1       1.817  10.172  18.041  0.00  0.00    +0.000 NA
ATOM     10  C   UNL     1       1.535  11.066  18.937  0.00  0.00    +0.000 A 
ATOM     11  N   UNL     1       0.907  10.772  20.141  0.00  0.00    +0.000 N 
ATOM     12  C   UNL     1       0.121  11.815  20.801  0.00  0.00    +0.000 C 
ATOM     13  C   UNL     1       0.910  13.111  20.998  0.00  0.00    +0.000 C 
ATOM     14  C   UNL     1       1.658  13.427  19.750  0.00  0.00    +0.000 A 
ATOM     15  C   UNL     1       1.944  12.449  18.808  0.00  0.00    +0.000 A 
ATOM     16  N   UNL     1       2.788  13.019  17.888  0.00  0.00    +0.000 N 
ATOM     17  C   UNL     1       2.966  14.363  18.170  0.00  0.00    +0.000 A 
ATOM     18  C   UNL     1       3.728  15.344  17.519  0.00  0.00    +0.000 A 
ATOM     19  C   UNL     1       3.676  16.651  18.023  0.00  0.00    +0.000 A 
ATOM     20  C   UNL     1       2.917  16.963  19.148  0.00  0.00    +0.000 A 
ATOM     21  C   UNL     1       2.208  15.966  19.820  0.00  0.00    +0.000 A 
ATOM     22  C   UNL     1       2.228  14.650  19.320  0.00  0.00    +0.000 A 
ATOM     23  H   UNL     1       3.253  12.514  17.145  0.00  0.00    +0.000 HD
ENDROOT
BRANCH   5  24
ATOM     24  O   UNL     1       3.929   6.329  19.536  0.00  0.00    +0.000 OA
BRANCH  24  25
ATOM     25  C   UNL     1       4.468   5.058  19.899  0.00  0.00    +0.000 C 
BRANCH  25  26
ATOM     26  C   UNL     1       3.981   3.920  19.077  0.00  0.00    +0.000 A 
ATOM     27  C   UNL     1       4.168   3.444  17.747  0.00  0.00    +0.000 A 
ATOM     28  N   UNL     1       3.613   2.231  17.602  0.00  0.00    +0.000 NA
ATOM     29  O   UNL     1       3.068   1.882  18.822  0.00  0.00    +0.000 OA
ATOM     30  N   UNL     1       3.280   2.974  19.716  0.00  0.00    +0.000 N 
ATOM     31  O   UNL     1       2.902   2.818  20.899  0.00  0.00    +0.000 OA
BRANCH  27  32
ATOM     32  C   UNL     1       4.877   4.041  16.617  0.00  0.00    +0.000 A 
ATOM     33  C   UNL     1       4.826   5.429  16.396  0.00  0.00    +0.000 A 
ATOM     34  C   UNL     1       5.491   6.005  15.307  0.00  0.00    +0.000 A 
ATOM     35  C   UNL     1       6.213   5.201  14.419  0.00  0.00    +0.000 A 
ATOM     36  C   UNL     1       6.296   3.829  14.659  0.00  0.00    +0.000 A 
ATOM     37  C   UNL     1       5.647   3.257  15.756  0.00  0.00    +0.000 A 
ENDBRANCH  27  32
ENDBRANCH  25  26
ENDBRANCH  24  25
ENDBRANCH   5  24
TORSDOF 4
ENDMDL
MODEL 2
REMARK VINA RESULT:      -9.3      1.724      2.835
REMARK  Name = 
REMARK  4 active torsions:
REMARK  status: ('A' for Active; 'I' for Inactive)
REMARK    1  A    between atoms: C_5  and  O_6
REMARK    2  A    between atoms: O_6  and  C_7
REMARK    3  A    between atoms: C_7  and  C_8
REMARK    4  A    between atoms: C_9  and  C_10
REMARK                            x       y       z     vdW  Elec       q    Type
REMARK                         _______ _______ _______ _____ _____    ______ ____
ROOT
ATOM      1  O   UNL     1       0.621   8.979  21.698  0.00  0.00    +0.000 OA
ATOM      2  C   UNL     1       1.055   9.369  20.622  0.00  0.00    +0.000 A 
ATOM      3  C   UNL     1       1.685   8.420  19.702  0.00  0.00    +0.000 A 
ATOM      4  C   UNL     1       2.242   7.218  20.116  0.00  0.00    +0.000 A 
ATOM      5  C   UNL     1       2.846   6.435  19.137  0.00  0.00    +0.000 A 
ATOM      6  C   UNL     1       2.359   6.542  17.835  0.00  0.00    +0.000 A 
ATOM      7  C   UNL     1       1.897   7.789  17.420  0.00  0.00    +0.000 A 
ATOM      8  C   UNL     1       1.727   8.795  18.366  0.00  0.00    +0.000 A 
ATOM      9  N   UNL     1       1.794  10.150  17.987  0.00  0.00    +0.000 NA
ATOM     10  C   UNL     1       1.506  11.016  18.910  0.00  0.00    +0.000 A 
ATOM     11  N   UNL     1       0.973  10.669  20.145  0.00  0.00    +0.000 N 
ATOM     12  C   UNL     1       0.159  11.651  20.863  0.00  0.00    +0.000 C 
ATOM     13  C   UNL     1       0.869  12.996  21.029  0.00  0.00    +0.000 C 
ATOM     14  C   UNL     1       1.518  13.373  19.743  0.00  0.00    +0.000 A 
ATOM     15  C   UNL     1       1.812  12.423  18.773  0.00  0.00    +0.000 A 
ATOM     16  N   UNL     1       2.559  13.057  17.812  0.00  0.00    +0.000 N 
ATOM     17  C   UNL     1       2.663  14.408  18.099  0.00  0.00    +0.000 A 
ATOM     18  C   UNL     1       3.316  15.444  17.417  0.00  0.00    +0.000 A 
ATOM     19  C   UNL     1       3.206  16.740  17.938  0.00  0.00    +0.000 A 
ATOM     20  C   UNL     1       2.497  16.991  19.110  0.00  0.00    +0.000 A 
ATOM     21  C   UNL     1       1.898  15.942  19.810  0.00  0.00    +0.000 A 
ATOM     22  C   UNL     1       1.977  14.635  19.295  0.00  0.00    +0.000 A 
ATOM     23  H   UNL     1       3.012  12.592  17.036  0.00  0.00    +0.000 HD
ENDROOT
BRANCH   5  24
ATOM     24  O   UNL     1       4.246   6.448  19.308  0.00  0.00    +0.000 OA
BRANCH  24  25
ATOM     25  C   UNL     1       5.055   6.703  18.160  0.00  0.00    +0.000 C 
BRANCH  25  26
ATOM     26  C   UNL     1       5.576   5.486  17.484  0.00  0.00    +0.000 A 
ATOM     27  C   UNL     1       5.182   4.123  17.352  0.00  0.00    +0.000 A 
ATOM     28  N   UNL     1       5.951   3.500  16.445  0.00  0.00    +0.000 NA
ATOM     29  O   UNL     1       6.846   4.432  15.958  0.00  0.00    +0.000 OA
ATOM     30  N   UNL     1       6.612   5.657  16.654  0.00  0.00    +0.000 N 
ATOM     31  O   UNL     1       7.297   6.645  16.304  0.00  0.00    +0.000 OA
BRANCH  27  32
ATOM     32  C   UNL     1       4.098   3.382  17.992  0.00  0.00    +0.000 A 
ATOM     33  C   UNL     1       2.936   3.051  17.271  0.00  0.00    +0.000 A 
ATOM     34  C   UNL     1       1.888   2.354  17.884  0.00  0.00    +0.000 A 
ATOM     35  C   UNL     1       1.982   1.982  19.228  0.00  0.00    +0.000 A 
ATOM     36  C   UNL     1       3.149   2.274  19.933  0.00  0.00    +0.000 A 
ATOM     37  C   UNL     1       4.203   2.955  19.318  0.00  0.00    +0.000 A 
ENDBRANCH  27  32
ENDBRANCH  25  26
ENDBRANCH  24  25
ENDBRANCH   5  24
TORSDOF 4
ENDMDL
MODEL 3
REMARK VINA RESULT:      -8.9      4.862      8.223
REMARK  Name = 
REMARK  4 active torsions:
REMARK  status: ('A' for Active; 'I' for Inactive)
REMARK    1  A    between atoms: C_5  and  O_6
REMARK    2  A    between atoms: O_6  and  C_7
REMARK    3  A    between atoms: C_7  and  C_8
REMARK    4  A    between atoms: C_9  and  C_10
REMARK                            x       y       z     vdW  Elec       q    Type
REMARK                         _______ _______ _______ _____ _____    ______ ____
ROOT
ATOM      1  O   UNL     1       4.999  13.835  23.428  0.00  0.00    +0.000 OA
ATOM      2  C   UNL     1       5.359  14.105  22.290  0.00  0.00    +0.000 A 
ATOM      3  C   UNL     1       4.375  14.531  21.293  0.00  0.00    +0.000 A 
ATOM      4  C   UNL     1       3.023  14.226  21.384  0.00  0.00    +0.000 A 
ATOM      5  C   UNL     1       2.210  14.660  20.342  0.00  0.00    +0.000 A 
ATOM      6  C   UNL     1       2.600  15.810  19.655  0.00  0.00    +0.000 A 
ATOM      7  C   UNL     1       3.966  16.034  19.497  0.00  0.00    +0.000 A 
ATOM      8  C   UNL     1       4.866  15.250  20.212  0.00  0.00    +0.000 A 
ATOM      9  N   UNL     1       6.173  15.045  19.730  0.00  0.00    +0.000 NA
ATOM     10  C   UNL     1       6.978  14.400  20.518  0.00  0.00    +0.000 A 
ATOM     11  N   UNL     1       6.671  14.085  21.836  0.00  0.00    +0.000 N 
ATOM     12  C   UNL     1       7.763  13.909  22.793  0.00  0.00    +0.000 C 
ATOM     13  C   UNL     1       8.812  12.904  22.312  0.00  0.00    +0.000 C 
ATOM     14  C   UNL     1       9.119  13.161  20.878  0.00  0.00    +0.000 A 
ATOM     15  C   UNL     1       8.238  13.856  20.060  0.00  0.00    +0.000 A 
ATOM     16  N   UNL     1       8.725  13.758  18.781  0.00  0.00    +0.000 N 
ATOM     17  C   UNL     1       9.944  13.101  18.781  0.00  0.00    +0.000 A 
ATOM     18  C   UNL     1      10.809  12.772  17.727  0.00  0.00    +0.000 A 
ATOM     19  C   UNL     1      12.014  12.132  18.048  0.00  0.00    +0.000 A 
ATOM     20  C   UNL     1      12.332  11.806  19.365  0.00  0.00    +0.000 A 
ATOM     21  C   UNL     1      11.437  12.089  20.397  0.00  0.00    +0.000 A 
ATOM     22  C   UNL     1      10.230  12.751  20.102  0.00  0.00    +0.000 A 
ATOM     23  H   UNL     1       8.235  14.074  17.953  0.00  0.00    +0.000 HD
ENDROOT
BRANCH   5  24
ATOM     24  O   UNL     1       1.789  13.556  19.570  0.00  0.00    +0.000 OA
BRANCH  24  25
ATOM     25  C   UNL     1       0.431  13.135  19.696  0.00  0.00    +0.000 C 
BRANCH  25  26
ATOM     26  C   UNL     1       0.189  12.135  20.769  0.00  0.00    +0.000 A 
ATOM     27  C   UNL     1       0.475  10.756  20.988  0.00  0.00    +0.000 A 
ATOM     28  N   UNL     1       0.179  10.412  22.251  0.00  0.00    +0.000 NA
ATOM     29  O   UNL     1      -0.289  11.546  22.885  0.00  0.00    +0.000 OA
ATOM     30  N   UNL     1      -0.306  12.600  21.922  0.00  0.00    +0.000 N 
ATOM     31  O   UNL     1      -0.650  13.733  22.331  0.00  0.00    +0.000 OA
BRANCH  27  32
ATOM     32  C   UNL     1       1.052   9.754  20.095  0.00  0.00    +0.000 A 
ATOM     33  C   UNL     1       1.509   8.524  20.603  0.00  0.00    +0.000 A 
ATOM     34  C   UNL     1       2.076   7.566  19.755  0.00  0.00    +0.000 A 
ATOM     35  C   UNL     1       2.199   7.823  18.386  0.00  0.00    +0.000 A 
ATOM     36  C   UNL     1       1.710   9.025  17.874  0.00  0.00    +0.000 A 
ATOM     37  C   UNL     1       1.129   9.975  18.718  0.00  0.00    +0.000 A 
ENDBRANCH  27  32
ENDBRANCH  25  26
ENDBRANCH  24  25
ENDBRANCH   5  24
TORSDOF 4
ENDMDL
MODEL 4
REMARK VINA RESULT:      -8.9      4.194      6.113
REMARK  Name = 
REMARK  4 active torsions:
REMARK  status: ('A' for Active; 'I' for Inactive)
REMARK    1  A    between atoms: C_5  and  O_6
REMARK    2  A    between atoms: O_6  and  C_7
REMARK    3  A    between atoms: C_7  and  C_8
REMARK    4  A    between atoms: C_9  and  C_10
REMARK                            x       y       z     vdW  Elec       q    Type
REMARK                         _______ _______ _______ _____ _____    ______ ____
ROOT
ATOM      1  O   UNL     1      -2.904  10.061  16.759  0.00  0.00    +0.000 OA
ATOM      2  C   UNL     1      -2.606  10.742  17.731  0.00  0.00    +0.000 A 
ATOM      3  C   UNL     1      -1.207  10.840  18.154  0.00  0.00    +0.000 A 
ATOM      4  C   UNL     1      -0.251   9.884  17.839  0.00  0.00    +0.000 A 
ATOM      5  C   UNL     1       1.029  10.086  18.344  0.00  0.00    +0.000 A 
ATOM      6  C   UNL     1       1.435  11.402  18.565  0.00  0.00    +0.000 A 
ATOM      7  C   UNL     1       0.467  12.314  18.976  0.00  0.00    +0.000 A 
ATOM      8  C   UNL     1      -0.874  11.946  18.925  0.00  0.00    +0.000 A 
ATOM      9  N   UNL     1      -1.814  12.552  19.780  0.00  0.00    +0.000 NA
ATOM     10  C   UNL     1      -3.056  12.232  19.582  0.00  0.00    +0.000 A 
ATOM     11  N   UNL     1      -3.492  11.497  18.487  0.00  0.00    +0.000 N 
ATOM     12  C   UNL     1      -4.870  11.671  18.023  0.00  0.00    +0.000 C 
ATOM     13  C   UNL     1      -5.896  11.482  19.142  0.00  0.00    +0.000 C 
ATOM     14  C   UNL     1      -5.431  12.197  20.362  0.00  0.00    +0.000 A 
ATOM     15  C   UNL     1      -4.095  12.528  20.545  0.00  0.00    +0.000 A 
ATOM     16  N   UNL     1      -3.976  13.002  21.828  0.00  0.00    +0.000 N 
ATOM     17  C   UNL     1      -5.221  13.072  22.430  0.00  0.00    +0.000 A 
ATOM     18  C   UNL     1      -5.597  13.491  23.714  0.00  0.00    +0.000 A 
ATOM     19  C   UNL     1      -6.963  13.490  24.027  0.00  0.00    +0.000 A 
ATOM     20  C   UNL     1      -7.916  13.061  23.106  0.00  0.00    +0.000 A 
ATOM     21  C   UNL     1      -7.524  12.594  21.850  0.00  0.00    +0.000 A 
ATOM     22  C   UNL     1      -6.159  12.606  21.506  0.00  0.00    +0.000 A 
ATOM     23  H   UNL     1      -3.098  13.217  22.282  0.00  0.00    +0.000 HD
ENDROOT
BRANCH   5  24
ATOM     24  O   UNL     1       1.298   9.146  19.361  0.00  0.00    +0.000 OA
BRANCH  24  25
ATOM     25  C   UNL     1       2.502   8.385  19.263  0.00  0.00    +0.000 C 
BRANCH  25  26
ATOM     26  C   UNL     1       2.327   6.921  19.446  0.00  0.00    +0.000 A 
ATOM     27  C   UNL     1       2.864   5.731  18.875  0.00  0.00    +0.000 A 
ATOM     28  N   UNL     1       2.471   4.656  19.577  0.00  0.00    +0.000 NA
ATOM     29  O   UNL     1       1.688   5.112  20.619  0.00  0.00    +0.000 OA
ATOM     30  N   UNL     1       1.585   6.530  20.491  0.00  0.00    +0.000 N 
ATOM     31  O   UNL     1       0.955   7.135  21.388  0.00  0.00    +0.000 OA
BRANCH  27  32
ATOM     32  C   UNL     1       3.760   5.546  17.736  0.00  0.00    +0.000 A 
ATOM     33  C   UNL     1       4.014   4.258  17.229  0.00  0.00    +0.000 A 
ATOM     34  C   UNL     1       4.883   4.074  16.148  0.00  0.00    +0.000 A 
ATOM     35  C   UNL     1       5.517   5.173  15.559  0.00  0.00    +0.000 A 
ATOM     36  C   UNL     1       5.236   6.453  16.036  0.00  0.00    +0.000 A 
ATOM     37  C   UNL     1       4.355   6.640  17.104  0.00  0.00    +0.000 A 
ENDBRANCH  27  32
ENDBRANCH  25  26
ENDBRANCH  24  25
ENDBRANCH   5  24
TORSDOF 4
ENDMDL
MODEL 5
REMARK VINA RESULT:      -8.8      1.901      2.895
REMARK  Name = 
REMARK  4 active torsions:
REMARK  status: ('A' for Active; 'I' for Inactive)
REMARK    1  A    between atoms: C_5  and  O_6
REMARK    2  A    between atoms: O_6  and  C_7
REMARK    3  A    between atoms: C_7  and  C_8
REMARK    4  A    between atoms: C_9  and  C_10
REMARK                            x       y       z     vdW  Elec       q    Type
REMARK                         _______ _______ _______ _____ _____    ______ ____
ROOT
ATOM      1  O   UNL     1       0.347   8.863  21.896  0.00  0.00    +0.000 OA
ATOM      2  C   UNL     1       0.753   9.369  20.858  0.00  0.00    +0.000 A 
ATOM      3  C   UNL     1       1.437   8.543  19.861  0.00  0.00    +0.000 A 
ATOM      4  C   UNL     1       2.068   7.347  20.172  0.00  0.00    +0.000 A 
ATOM      5  C   UNL     1       2.715   6.689  19.130  0.00  0.00    +0.000 A 
ATOM      6  C   UNL     1       2.218   6.877  17.841  0.00  0.00    +0.000 A 
ATOM      7  C   UNL     1       1.679   8.124  17.534  0.00  0.00    +0.000 A 
ATOM      8  C   UNL     1       1.450   9.034  18.562  0.00  0.00    +0.000 A 
ATOM      9  N   UNL     1       1.433  10.417  18.301  0.00  0.00    +0.000 NA
ATOM     10  C   UNL     1       1.095  11.181  19.294  0.00  0.00    +0.000 A 
ATOM     11  N   UNL     1       0.589  10.698  20.494  0.00  0.00    +0.000 N 
ATOM     12  C   UNL     1      -0.281  11.563  21.293  0.00  0.00    +0.000 C 
ATOM     13  C   UNL     1       0.345  12.930  21.574  0.00  0.00    +0.000 C 
ATOM     14  C   UNL     1       0.965  13.454  20.326  0.00  0.00    +0.000 A 
ATOM     15  C   UNL     1       1.314  12.612  19.279  0.00  0.00    +0.000 A 
ATOM     16  N   UNL     1       2.017  13.370  18.377  0.00  0.00    +0.000 N 
ATOM     17  C   UNL     1       2.038  14.695  18.780  0.00  0.00    +0.000 A 
ATOM     18  C   UNL     1       2.624  15.824  18.189  0.00  0.00    +0.000 A 
ATOM     19  C   UNL     1       2.437  17.062  18.820  0.00  0.00    +0.000 A 
ATOM     20  C   UNL     1       1.718  17.167  20.008  0.00  0.00    +0.000 A 
ATOM     21  C   UNL     1       1.187  16.027  20.615  0.00  0.00    +0.000 A 
ATOM     22  C   UNL     1       1.344  14.776  19.989  0.00  0.00    +0.000 A 
ATOM     23  H   UNL     1       2.495  13.002  17.565  0.00  0.00    +0.000 HD
ENDROOT
BRANCH   5  24
ATOM     24  O   UNL     1       4.113   6.773  19.304  0.00  0.00    +0.000 OA
BRANCH  24  25
ATOM     25  C   UNL     1       4.907   7.104  18.165  0.00  0.00    +0.000 C 
BRANCH  25  26
ATOM     26  C   UNL     1       5.723   5.983  17.631  0.00  0.00    +0.000 A 
ATOM     27  C   UNL     1       5.572   4.576  17.464  0.00  0.00    +0.000 A 
ATOM     28  N   UNL     1       6.582   4.080  16.732  0.00  0.00    +0.000 NA
ATOM     29  O   UNL     1       7.400   5.139  16.395  0.00  0.00    +0.000 OA
ATOM     30  N   UNL     1       6.858   6.313  17.002  0.00  0.00    +0.000 N 
ATOM     31  O   UNL     1       7.438   7.395  16.758  0.00  0.00    +0.000 OA
BRANCH  27  32
ATOM     32  C   UNL     1       4.512   3.676  17.913  0.00  0.00    +0.000 A 
ATOM     33  C   UNL     1       4.544   3.125  19.208  0.00  0.00    +0.000 A 
ATOM     34  C   UNL     1       3.539   2.251  19.638  0.00  0.00    +0.000 A 
ATOM     35  C   UNL     1       2.489   1.909  18.780  0.00  0.00    +0.000 A 
ATOM     36  C   UNL     1       2.435   2.485  17.511  0.00  0.00    +0.000 A 
ATOM     37  C   UNL     1       3.429   3.371  17.087  0.00  0.00    +0.000 A 
ENDBRANCH  27  32
ENDBRANCH  25  26
ENDBRANCH  24  25
ENDBRANCH   5  24
TORSDOF 4
ENDMDL
MODEL 6
REMARK VINA RESULT:      -8.7      2.439      3.433
REMARK  Name = 
REMARK  4 active torsions:
REMARK  status: ('A' for Active; 'I' for Inactive)
REMARK    1  A    between atoms: C_5  and  O_6
REMARK    2  A    between atoms: O_6  and  C_7
REMARK    3  A    between atoms: C_7  and  C_8
REMARK    4  A    between atoms: C_9  and  C_10
REMARK                            x       y       z     vdW  Elec       q    Type
REMARK                         _______ _______ _______ _____ _____    ______ ____
ROOT
ATOM      1  O   UNL     1       0.625   9.332  22.119  0.00  0.00    +0.000 OA
ATOM      2  C   UNL     1       0.602   9.938  21.056  0.00  0.00    +0.000 A 
ATOM      3  C   UNL     1       1.048   9.277  19.828  0.00  0.00    +0.000 A 
ATOM      4  C   UNL     1       1.913   8.191  19.822  0.00  0.00    +0.000 A 
ATOM      5  C   UNL     1       2.285   7.692  18.579  0.00  0.00    +0.000 A 
ATOM      6  C   UNL     1       1.383   7.844  17.526  0.00  0.00    +0.000 A 
ATOM      7  C   UNL     1       0.599   8.995  17.511  0.00  0.00    +0.000 A 
ATOM      8  C   UNL     1       0.577   9.813  18.636  0.00  0.00    +0.000 A 
ATOM      9  N   UNL     1       0.276  11.183  18.518  0.00  0.00    +0.000 NA
ATOM     10  C   UNL     1       0.163  11.841  19.630  0.00  0.00    +0.000 A 
ATOM     11  N   UNL     1       0.139  11.235  20.880  0.00  0.00    +0.000 N 
ATOM     12  C   UNL     1      -0.550  11.911  21.980  0.00  0.00    +0.000 C 
ATOM     13  C   UNL     1      -0.074  13.351  22.176  0.00  0.00    +0.000 C 
ATOM     14  C   UNL     1       0.035  14.019  20.850  0.00  0.00    +0.000 A 
ATOM     15  C   UNL     1       0.153  13.288  19.676  0.00  0.00    +0.000 A 
ATOM     16  N   UNL     1       0.416  14.187  18.673  0.00  0.00    +0.000 N 
ATOM     17  C   UNL     1       0.370  15.481  19.166  0.00  0.00    +0.000 A 
ATOM     18  C   UNL     1       0.567  16.713  18.527  0.00  0.00    +0.000 A 
ATOM     19  C   UNL     1       0.411  17.877  19.292  0.00  0.00    +0.000 A 
ATOM     20  C   UNL     1       0.097  17.815  20.648  0.00  0.00    +0.000 A 
ATOM     21  C   UNL     1      -0.041  16.580  21.284  0.00  0.00    +0.000 A 
ATOM     22  C   UNL     1       0.091  15.398  20.532  0.00  0.00    +0.000 A 
ATOM     23  H   UNL     1       0.661  13.935  17.724  0.00  0.00    +0.000 HD
ENDROOT
BRANCH   5  24
ATOM     24  O   UNL     1       3.638   8.001  18.323  0.00  0.00    +0.000 OA
BRANCH  24  25
ATOM     25  C   UNL     1       4.376   7.116  17.480  0.00  0.00    +0.000 C 
BRANCH  25  26
ATOM     26  C   UNL     1       5.024   5.982  18.188  0.00  0.00    +0.000 A 
ATOM     27  C   UNL     1       4.602   4.794  18.852  0.00  0.00    +0.000 A 
ATOM     28  N   UNL     1       5.660   4.022  19.148  0.00  0.00    +0.000 NA
ATOM     29  O   UNL     1       6.784   4.672  18.678  0.00  0.00    +0.000 OA
ATOM     30  N   UNL     1       6.359   5.913  18.115  0.00  0.00    +0.000 N 
ATOM     31  O   UNL     1       7.242   6.623  17.581  0.00  0.00    +0.000 OA
BRANCH  27  32
ATOM     32  C   UNL     1       3.261   4.319  19.185  0.00  0.00    +0.000 A 
ATOM     33  C   UNL     1       2.706   4.578  20.452  0.00  0.00    +0.000 A 
ATOM     34  C   UNL     1       1.428   4.112  20.782  0.00  0.00    +0.000 A 
ATOM     35  C   UNL     1       0.686   3.377  19.852  0.00  0.00    +0.000 A 
ATOM     36  C   UNL     1       1.218   3.153  18.583  0.00  0.00    +0.000 A 
ATOM     37  C   UNL     1       2.487   3.632  18.247  0.00  0.00    +0.000 A 
ENDBRANCH  27  32
ENDBRANCH  25  26
ENDBRANCH  24  25
ENDBRANCH   5  24
TORSDOF 4
ENDMDL
MODEL 7
REMARK VINA RESULT:      -8.7      4.172      7.458
REMARK  Name = 
REMARK  4 active torsions:
REMARK  status: ('A' for Active; 'I' for Inactive)
REMARK    1  A    between atoms: C_5  and  O_6
REMARK    2  A    between atoms: O_6  and  C_7
REMARK    3  A    between atoms: C_7  and  C_8
REMARK    4  A    between atoms: C_9  and  C_10
REMARK                            x       y       z     vdW  Elec       q    Type
REMARK                         _______ _______ _______ _____ _____    ______ ____
ROOT
ATOM      1  O   UNL     1       3.988  14.808  23.123  0.00  0.00    +0.000 OA
ATOM      2  C   UNL     1       4.315  14.798  21.944  0.00  0.00    +0.000 A 
ATOM      3  C   UNL     1       3.293  14.672  20.903  0.00  0.00    +0.000 A 
ATOM      4  C   UNL     1       2.044  14.111  21.131  0.00  0.00    +0.000 A 
ATOM      5  C   UNL     1       1.188  14.017  20.038  0.00  0.00    +0.000 A 
ATOM      6  C   UNL     1       1.330  14.965  19.025  0.00  0.00    +0.000 A 
ATOM      7  C   UNL     1       2.613  15.435  18.757  0.00  0.00    +0.000 A 
ATOM      8  C   UNL     1       3.644  15.125  19.639  0.00  0.00    +0.000 A 
ATOM      9  N   UNL     1       4.979  15.087  19.192  0.00  0.00    +0.000 NA
ATOM     10  C   UNL     1       5.882  14.907  20.106  0.00  0.00    +0.000 A 
ATOM     11  N   UNL     1       5.611  14.940  21.468  0.00  0.00    +0.000 N 
ATOM     12  C   UNL     1       6.683  15.311  22.393  0.00  0.00    +0.000 C 
ATOM     13  C   UNL     1       7.947  14.471  22.196  0.00  0.00    +0.000 C 
ATOM     14  C   UNL     1       8.235  14.350  20.740  0.00  0.00    +0.000 A 
ATOM     15  C   UNL     1       7.248  14.550  19.785  0.00  0.00    +0.000 A 
ATOM     16  N   UNL     1       7.786  14.186  18.576  0.00  0.00    +0.000 N 
ATOM     17  C   UNL     1       9.122  13.853  18.727  0.00  0.00    +0.000 A 
ATOM     18  C   UNL     1      10.073  13.428  17.789  0.00  0.00    +0.000 A 
ATOM     19  C   UNL     1      11.380  13.203  18.241  0.00  0.00    +0.000 A 
ATOM     20  C   UNL     1      11.720  13.367  19.582  0.00  0.00    +0.000 A 
ATOM     21  C   UNL     1      10.751  13.736  20.516  0.00  0.00    +0.000 A 
ATOM     22  C   UNL     1       9.435  13.988  20.081  0.00  0.00    +0.000 A 
ATOM     23  H   UNL     1       7.265  14.121  17.711  0.00  0.00    +0.000 HD
ENDROOT
BRANCH   5  24
ATOM     24  O   UNL     1       1.054  12.668  19.648  0.00  0.00    +0.000 OA
BRANCH  24  25
ATOM     25  C   UNL     1      -0.146  11.986  20.011  0.00  0.00    +0.000 C 
BRANCH  25  26
ATOM     26  C   UNL     1       0.023  10.950  21.063  0.00  0.00    +0.000 A 
ATOM     27  C   UNL     1       0.651   9.675  21.174  0.00  0.00    +0.000 A 
ATOM     28  N   UNL     1       0.648   9.262  22.451  0.00  0.00    +0.000 NA
ATOM     29  O   UNL     1       0.038  10.250  23.199  0.00  0.00    +0.000 OA
ATOM     30  N   UNL     1      -0.376  11.278  22.298  0.00  0.00    +0.000 N 
ATOM     31  O   UNL     1      -0.902  12.294  22.805  0.00  0.00    +0.000 OA
BRANCH  27  32
ATOM     32  C   UNL     1       1.293   8.842  20.160  0.00  0.00    +0.000 A 
ATOM     33  C   UNL     1       1.806   7.576  20.496  0.00  0.00    +0.000 A 
ATOM     34  C   UNL     1       2.436   6.781  19.532  0.00  0.00    +0.000 A 
ATOM     35  C   UNL     1       2.567   7.240  18.218  0.00  0.00    +0.000 A 
ATOM     36  C   UNL     1       2.024   8.477  17.874  0.00  0.00    +0.000 A 
ATOM     37  C   UNL     1       1.381   9.265  18.832  0.00  0.00    +0.000 A 
ENDBRANCH  27  32
ENDBRANCH  25  26
ENDBRANCH  24  25
ENDBRANCH   5  24
TORSDOF 4
ENDMDL
MODEL 8
REMARK VINA RESULT:      -8.6      3.625      5.251
REMARK  Name = 
REMARK  4 active torsions:
REMARK  status: ('A' for Active; 'I' for Inactive)
REMARK    1  A    between atoms: C_5  and  O_6
REMARK    2  A    between atoms: O_6  and  C_7
REMARK    3  A    between atoms: C_7  and  C_8
REMARK    4  A    between atoms: C_9  and  C_10
REMARK                            x       y       z     vdW  Elec       q    Type
REMARK                         _______ _______ _______ _____ _____    ______ ____
ROOT
ATOM      1  O   UNL     1      -2.315   9.754  16.401  0.00  0.00    +0.000 OA
ATOM      2  C   UNL     1      -1.916  10.353  17.391  0.00  0.00    +0.000 A 
ATOM      3  C   UNL     1      -0.525  10.201  17.825  0.00  0.00    +0.000 A 
ATOM      4  C   UNL     1       0.257   9.103  17.494  0.00  0.00    +0.000 A 
ATOM      5  C   UNL     1       1.547   9.072  18.013  0.00  0.00    +0.000 A 
ATOM      6  C   UNL     1       2.170  10.294  18.267  0.00  0.00    +0.000 A 
ATOM      7  C   UNL     1       1.366  11.350  18.693  0.00  0.00    +0.000 A 
ATOM      8  C   UNL     1      -0.017  11.217  18.625  0.00  0.00    +0.000 A 
ATOM      9  N   UNL     1      -0.849  11.956  19.487  0.00  0.00    +0.000 NA
ATOM     10  C   UNL     1      -2.125  11.857  19.273  0.00  0.00    +0.000 A 
ATOM     11  N   UNL     1      -2.668  11.231  18.158  0.00  0.00    +0.000 N 
ATOM     12  C   UNL     1      -3.991  11.647  17.689  0.00  0.00    +0.000 C 
ATOM     13  C   UNL     1      -5.046  11.612  18.796  0.00  0.00    +0.000 C 
ATOM     14  C   UNL     1      -4.479  12.211  20.036  0.00  0.00    +0.000 A 
ATOM     15  C   UNL     1      -3.108  12.304  20.236  0.00  0.00    +0.000 A 
ATOM     16  N   UNL     1      -2.924  12.723  21.530  0.00  0.00    +0.000 N 
ATOM     17  C   UNL     1      -4.146  12.992  22.125  0.00  0.00    +0.000 A 
ATOM     18  C   UNL     1      -4.458  13.440  23.416  0.00  0.00    +0.000 A 
ATOM     19  C   UNL     1      -5.808  13.666  23.719  0.00  0.00    +0.000 A 
ATOM     20  C   UNL     1      -6.810  13.426  22.782  0.00  0.00    +0.000 A 
ATOM     21  C   UNL     1      -6.490  12.927  21.519  0.00  0.00    +0.000 A 
ATOM     22  C   UNL     1      -5.139  12.713  21.184  0.00  0.00    +0.000 A 
ATOM     23  H   UNL     1      -2.027  12.775  21.995  0.00  0.00    +0.000 HD
ENDROOT
BRANCH   5  24
ATOM     24  O   UNL     1       1.641   8.078  19.009  0.00  0.00    +0.000 OA
BRANCH  24  25
ATOM     25  C   UNL     1       2.901   7.432  19.190  0.00  0.00    +0.000 C 
BRANCH  25  26
ATOM     26  C   UNL     1       2.851   5.948  19.140  0.00  0.00    +0.000 A 
ATOM     27  C   UNL     1       3.577   4.905  18.496  0.00  0.00    +0.000 A 
ATOM     28  N   UNL     1       3.202   3.709  18.975  0.00  0.00    +0.000 NA
ATOM     29  O   UNL     1       2.242   3.938  19.941  0.00  0.00    +0.000 OA
ATOM     30  N   UNL     1       2.016   5.347  19.996  0.00  0.00    +0.000 N 
ATOM     31  O   UNL     1       1.211   5.756  20.864  0.00  0.00    +0.000 OA
BRANCH  27  32
ATOM     32  C   UNL     1       4.636   4.967  17.490  0.00  0.00    +0.000 A 
ATOM     33  C   UNL     1       5.705   5.870  17.634  0.00  0.00    +0.000 A 
ATOM     34  C   UNL     1       6.713   5.945  16.666  0.00  0.00    +0.000 A 
ATOM     35  C   UNL     1       6.667   5.120  15.538  0.00  0.00    +0.000 A 
ATOM     36  C   UNL     1       5.630   4.197  15.414  0.00  0.00    +0.000 A 
ATOM     37  C   UNL     1       4.631   4.111  16.388  0.00  0.00    +0.000 A 
ENDBRANCH  27  32
ENDBRANCH  25  26
ENDBRANCH  24  25
ENDBRANCH   5  24
TORSDOF 4
ENDMDL
MODEL 9
REMARK VINA RESULT:      -8.6      2.123      2.494
REMARK  Name = 
REMARK  4 active torsions:
REMARK  status: ('A' for Active; 'I' for Inactive)
REMARK    1  A    between atoms: C_5  and  O_6
REMARK    2  A    between atoms: O_6  and  C_7
REMARK    3  A    between atoms: C_7  and  C_8
REMARK    4  A    between atoms: C_9  and  C_10
REMARK                            x       y       z     vdW  Elec       q    Type
REMARK                         _______ _______ _______ _____ _____    ______ ____
ROOT
ATOM      1  O   UNL     1       0.199   8.789  21.573  0.00  0.00    +0.000 OA
ATOM      2  C   UNL     1       0.775   9.125  20.547  0.00  0.00    +0.000 A 
ATOM      3  C   UNL     1       1.469   8.121  19.736  0.00  0.00    +0.000 A 
ATOM      4  C   UNL     1       1.919   6.912  20.249  0.00  0.00    +0.000 A 
ATOM      5  C   UNL     1       2.601   6.074  19.373  0.00  0.00    +0.000 A 
ATOM      6  C   UNL     1       2.278   6.156  18.019  0.00  0.00    +0.000 A 
ATOM      7  C   UNL     1       1.924   7.406  17.516  0.00  0.00    +0.000 A 
ATOM      8  C   UNL     1       1.686   8.449  18.405  0.00  0.00    +0.000 A 
ATOM      9  N   UNL     1       1.857   9.787  17.999  0.00  0.00    +0.000 NA
ATOM     10  C   UNL     1       1.499  10.694  18.855  0.00  0.00    +0.000 A 
ATOM     11  N   UNL     1       0.807  10.411  20.026  0.00  0.00    +0.000 N 
ATOM     12  C   UNL     1      -0.043  11.448  20.613  0.00  0.00    +0.000 C 
ATOM     13  C   UNL     1       0.700  12.769  20.824  0.00  0.00    +0.000 C 
ATOM     14  C   UNL     1       1.513  13.075  19.615  0.00  0.00    +0.000 A 
ATOM     15  C   UNL     1       1.880  12.083  18.716  0.00  0.00    +0.000 A 
ATOM     16  N   UNL     1       2.763  12.654  17.834  0.00  0.00    +0.000 N 
ATOM     17  C   UNL     1       2.891  14.008  18.093  0.00  0.00    +0.000 A 
ATOM     18  C   UNL     1       3.665  14.993  17.465  0.00  0.00    +0.000 A 
ATOM     19  C   UNL     1       3.551  16.310  17.932  0.00  0.00    +0.000 A 
ATOM     20  C   UNL     1       2.718  16.628  19.002  0.00  0.00    +0.000 A 
ATOM     21  C   UNL     1       1.995  15.628  19.655  0.00  0.00    +0.000 A 
ATOM     22  C   UNL     1       2.078  14.302  19.190  0.00  0.00    +0.000 A 
ATOM     23  H   UNL     1       3.285  12.145  17.132  0.00  0.00    +0.000 HD
ENDROOT
BRANCH   5  24
ATOM     24  O   UNL     1       3.970   6.036  19.711  0.00  0.00    +0.000 OA
BRANCH  24  25
ATOM     25  C   UNL     1       4.699   4.847  19.407  0.00  0.00    +0.000 C 
BRANCH  25  26
ATOM     26  C   UNL     1       5.301   4.819  18.049  0.00  0.00    +0.000 A 
ATOM     27  C   UNL     1       6.318   5.530  17.349  0.00  0.00    +0.000 A 
ATOM     28  N   UNL     1       6.577   4.938  16.172  0.00  0.00    +0.000 NA
ATOM     29  O   UNL     1       5.757   3.832  16.082  0.00  0.00    +0.000 OA
ATOM     30  N   UNL     1       4.942   3.803  17.254  0.00  0.00    +0.000 N 
ATOM     31  O   UNL     1       4.167   2.828  17.380  0.00  0.00    +0.000 OA
BRANCH  27  32
ATOM     32  C   UNL     1       7.092   6.707  17.738  0.00  0.00    +0.000 A 
ATOM     33  C   UNL     1       6.901   7.936  17.080  0.00  0.00    +0.000 A 
ATOM     34  C   UNL     1       7.651   9.063  17.439  0.00  0.00    +0.000 A 
ATOM     35  C   UNL     1       8.606   8.977  18.456  0.00  0.00    +0.000 A 
ATOM     36  C   UNL     1       8.769   7.770  19.135  0.00  0.00    +0.000 A 
ATOM     37  C   UNL     1       8.009   6.649  18.789  0.00  0.00    +0.000 A 
ENDBRANCH  27  32
ENDBRANCH  25  26
ENDBRANCH  24  25
ENDBRANCH   5  24
TORSDOF 4
ENDMDL
