MODEL 1
REMARK VINA RESULT:      -8.5      0.000      0.000
REMARK  Name = 
REMARK  5 active torsions:
REMARK  status: ('A' for Active; 'I' for Inactive)
REMARK    1  A    between atoms: C_1  and  O_2
REMARK    2  A    between atoms: O_2  and  C_3
REMARK    3  A    between atoms: C_6  and  N_7
REMARK    4  A    between atoms: N_7  and  C_8
REMARK    5  A    between atoms: C_10  and  C_11
REMARK                            x       y       z     vdW  Elec       q    Type
REMARK                         _______ _______ _______ _____ _____    ______ ____
ROOT
ATOM      1  C   UNL     1       2.962   6.193  18.518  0.00  0.00    +0.000 A 
ATOM      2  N   UNL     1       3.890   6.714  17.702  0.00  0.00    +0.000 NA
ATOM      3  C   UNL     1       4.688   5.849  17.075  0.00  0.00    +0.000 A 
ATOM      4  N   UNL     1       4.571   4.528  17.067  0.00  0.00    +0.000 NA
ATOM      5  C   UNL     1       3.601   4.022  17.777  0.00  0.00    +0.000 A 
ATOM      6  C   UNL     1       3.674   2.647  17.828  0.00  0.00    +0.000 A 
ATOM      7  C   UNL     1       2.549   1.895  18.064  0.00  0.00    +0.000 A 
ATOM      8  C   UNL     1       1.393   2.595  18.386  0.00  0.00    +0.000 A 
ATOM      9  C   UNL     1       1.424   3.999  18.652  0.00  0.00    +0.000 A 
ATOM     10  C   UNL     1       2.607   4.783  18.399  0.00  0.00    +0.000 A 
ENDROOT
BRANCH   3  11
ATOM     11  C   UNL     1       6.088   6.118  17.310  0.00  0.00    +0.000 A 
ATOM     12  C   UNL     1       6.879   5.666  18.345  0.00  0.00    +0.000 A 
ATOM     13  C   UNL     1       7.888   6.636  18.543  0.00  0.00    +0.000 A 
ATOM     14  C   UNL     1       7.686   7.641  17.625  0.00  0.00    +0.000 A 
ATOM     15  N   UNL     1       6.613   7.302  16.854  0.00  0.00    +0.000 N 
ATOM     16  H   UNL     1       6.100   7.909  16.220  0.00  0.00    +0.000 HD
ENDBRANCH   3  11
BRANCH   1  17
ATOM     17  N   UNL     1       2.824   6.966  19.729  0.00  0.00    +0.000 N 
ATOM     18  H   UNL     1       2.950   6.413  20.567  0.00  0.00    +0.000 HD
BRANCH  17  22
ATOM     19  C   UNL     1      -0.193  10.032  20.254  0.00  0.00    +0.000 A 
ATOM     20  C   UNL     1       0.539   9.913  19.061  0.00  0.00    +0.000 A 
ATOM     21  C   UNL     1       1.526   8.916  18.900  0.00  0.00    +0.000 A 
ATOM     22  C   UNL     1       1.846   8.019  19.925  0.00  0.00    +0.000 A 
ATOM     23  C   UNL     1       1.102   8.164  21.118  0.00  0.00    +0.000 A 
ATOM     24  C   UNL     1       0.097   9.165  21.281  0.00  0.00    +0.000 A 
BRANCH  19  26
ATOM     25  C   UNL     1      -1.746  11.408  19.017  0.00  0.00    +0.000 C 
ATOM     26  O   UNL     1      -1.090  11.072  20.235  0.00  0.00    +0.000 OA
ENDBRANCH  19  26
ENDBRANCH  17  22
ENDBRANCH   1  17
TORSDOF 4
ENDMDL
MODEL 2
REMARK VINA RESULT:      -8.5      0.255      1.005
REMARK  Name = 
REMARK  5 active torsions:
REMARK  status: ('A' for Active; 'I' for Inactive)
REMARK    1  A    between atoms: C_1  and  O_2
REMARK    2  A    between atoms: O_2  and  C_3
REMARK    3  A    between atoms: C_6  and  N_7
REMARK    4  A    between atoms: N_7  and  C_8
REMARK    5  A    between atoms: C_10  and  C_11
REMARK                            x       y       z     vdW  Elec       q    Type
REMARK                         _______ _______ _______ _____ _____    ______ ____
ROOT
ATOM      1  C   UNL     1       2.940   6.137  18.543  0.00  0.00    +0.000 A 
ATOM      2  N   UNL     1       3.859   6.664  17.722  0.00  0.00    +0.000 NA
ATOM      3  C   UNL     1       4.659   5.805  17.090  0.00  0.00    +0.000 A 
ATOM      4  N   UNL     1       4.552   4.482  17.084  0.00  0.00    +0.000 NA
ATOM      5  C   UNL     1       3.590   3.970  17.800  0.00  0.00    +0.000 A 
ATOM      6  C   UNL     1       3.673   2.596  17.851  0.00  0.00    +0.000 A 
ATOM      7  C   UNL     1       2.555   1.836  18.095  0.00  0.00    +0.000 A 
ATOM      8  C   UNL     1       1.396   2.528  18.423  0.00  0.00    +0.000 A 
ATOM      9  C   UNL     1       1.419   3.931  18.689  0.00  0.00    +0.000 A 
ATOM     10  C   UNL     1       2.594   4.724  18.428  0.00  0.00    +0.000 A 
ENDROOT
BRANCH   3  11
ATOM     11  C   UNL     1       6.058   6.084  17.317  0.00  0.00    +0.000 A 
ATOM     12  C   UNL     1       6.847   5.679  18.372  0.00  0.00    +0.000 A 
ATOM     13  C   UNL     1       7.855   6.656  18.530  0.00  0.00    +0.000 A 
ATOM     14  C   UNL     1       7.656   7.620  17.568  0.00  0.00    +0.000 A 
ATOM     15  N   UNL     1       6.584   7.247  16.810  0.00  0.00    +0.000 N 
ATOM     16  H   UNL     1       6.072   7.825  16.148  0.00  0.00    +0.000 HD
ENDBRANCH   3  11
BRANCH   1  17
ATOM     17  N   UNL     1       2.803   6.909  19.755  0.00  0.00    +0.000 N 
ATOM     18  H   UNL     1       2.933   6.357  20.592  0.00  0.00    +0.000 HD
BRANCH  17  22
ATOM     19  C   UNL     1      -0.025  10.127  20.409  0.00  0.00    +0.000 A 
ATOM     20  C   UNL     1       0.247   9.170  21.401  0.00  0.00    +0.000 A 
ATOM     21  C   UNL     1       1.164   8.119  21.178  0.00  0.00    +0.000 A 
ATOM     22  C   UNL     1       1.824   7.960  19.953  0.00  0.00    +0.000 A 
ATOM     23  C   UNL     1       1.527   8.931  18.970  0.00  0.00    +0.000 A 
ATOM     24  C   UNL     1       0.607  10.000  19.196  0.00  0.00    +0.000 A 
BRANCH  19  26
ATOM     25  C   UNL     1      -1.506  11.946  19.833  0.00  0.00    +0.000 C 
ATOM     26  O   UNL     1      -0.958  11.056  20.799  0.00  0.00    +0.000 OA
ENDBRANCH  19  26
ENDBRANCH  17  22
ENDBRANCH   1  17
TORSDOF 4
ENDMDL
MODEL 3
REMARK VINA RESULT:      -8.3      1.637      2.219
REMARK  Name = 
REMARK  5 active torsions:
REMARK  status: ('A' for Active; 'I' for Inactive)
REMARK    1  A    between atoms: C_1  and  O_2
REMARK    2  A    between atoms: O_2  and  C_3
REMARK    3  A    between atoms: C_6  and  N_7
REMARK    4  A    between atoms: N_7  and  C_8
REMARK    5  A    between atoms: C_10  and  C_11
REMARK                            x       y       z     vdW  Elec       q    Type
REMARK                         _______ _______ _______ _____ _____    ______ ____
ROOT
ATOM      1  C   UNL     1       2.838   5.628  18.480  0.00  0.00    +0.000 A 
ATOM      2  N   UNL     1       3.425   5.204  17.352  0.00  0.00    +0.000 NA
ATOM      3  C   UNL     1       3.983   3.993  17.388  0.00  0.00    +0.000 A 
ATOM      4  N   UNL     1       3.900   3.113  18.376  0.00  0.00    +0.000 NA
ATOM      5  C   UNL     1       3.237   3.484  19.436  0.00  0.00    +0.000 A 
ATOM      6  C   UNL     1       3.352   2.563  20.454  0.00  0.00    +0.000 A 
ATOM      7  C   UNL     1       2.389   2.475  21.430  0.00  0.00    +0.000 A 
ATOM      8  C   UNL     1       1.394   3.444  21.407  0.00  0.00    +0.000 A 
ATOM      9  C   UNL     1       1.483   4.580  20.545  0.00  0.00    +0.000 A 
ATOM     10  C   UNL     1       2.494   4.665  19.521  0.00  0.00    +0.000 A 
ENDROOT
BRANCH   3  11
ATOM     11  C   UNL     1       5.375   4.015  16.999  0.00  0.00    +0.000 A 
ATOM     12  C   UNL     1       6.435   4.596  17.660  0.00  0.00    +0.000 A 
ATOM     13  C   UNL     1       7.391   4.943  16.679  0.00  0.00    +0.000 A 
ATOM     14  C   UNL     1       6.891   4.560  15.456  0.00  0.00    +0.000 A 
ATOM     15  N   UNL     1       5.681   3.963  15.660  0.00  0.00    +0.000 N 
ATOM     16  H   UNL     1       4.981   3.742  14.957  0.00  0.00    +0.000 HD
ENDBRANCH   3  11
BRANCH   1  17
ATOM     17  N   UNL     1       3.098   7.027  18.722  0.00  0.00    +0.000 N 
ATOM     18  H   UNL     1       3.924   7.183  19.287  0.00  0.00    +0.000 HD
BRANCH  17  22
ATOM     19  C   UNL     1       0.141  10.086  19.541  0.00  0.00    +0.000 A 
ATOM     20  C   UNL     1       0.627   9.239  20.551  0.00  0.00    +0.000 A 
ATOM     21  C   UNL     1       1.585   8.239  20.275  0.00  0.00    +0.000 A 
ATOM     22  C   UNL     1       2.075   8.021  18.983  0.00  0.00    +0.000 A 
ATOM     23  C   UNL     1       1.566   8.881  17.983  0.00  0.00    +0.000 A 
ATOM     24  C   UNL     1       0.604   9.899  18.261  0.00  0.00    +0.000 A 
BRANCH  19  26
ATOM     25  C   UNL     1      -1.600  11.689  19.054  0.00  0.00    +0.000 C 
ATOM     26  O   UNL     1      -0.800  10.978  19.993  0.00  0.00    +0.000 OA
ENDBRANCH  19  26
ENDBRANCH  17  22
ENDBRANCH   1  17
TORSDOF 4
ENDMDL
MODEL 4
REMARK VINA RESULT:      -8.3      1.667      2.053
REMARK  Name = 
REMARK  5 active torsions:
REMARK  status: ('A' for Active; 'I' for Inactive)
REMARK    1  A    between atoms: C_1  and  O_2
REMARK    2  A    between atoms: O_2  and  C_3
REMARK    3  A    between atoms: C_6  and  N_7
REMARK    4  A    between atoms: N_7  and  C_8
REMARK    5  A    between atoms: C_10  and  C_11
REMARK                            x       y       z     vdW  Elec       q    Type
REMARK                         _______ _______ _______ _____ _____    ______ ____
ROOT
ATOM      1  C   UNL     1       2.882   5.628  18.544  0.00  0.00    +0.000 A 
ATOM      2  N   UNL     1       3.503   5.198  17.436  0.00  0.00    +0.000 NA
ATOM      3  C   UNL     1       4.028   3.973  17.483  0.00  0.00    +0.000 A 
ATOM      4  N   UNL     1       3.882   3.086  18.460  0.00  0.00    +0.000 NA
ATOM      5  C   UNL     1       3.188   3.467  19.495  0.00  0.00    +0.000 A 
ATOM      6  C   UNL     1       3.238   2.535  20.509  0.00  0.00    +0.000 A 
ATOM      7  C   UNL     1       2.235   2.464  21.445  0.00  0.00    +0.000 A 
ATOM      8  C   UNL     1       1.268   3.458  21.392  0.00  0.00    +0.000 A 
ATOM      9  C   UNL     1       1.420   4.598  20.544  0.00  0.00    +0.000 A 
ATOM     10  C   UNL     1       2.473   4.666  19.562  0.00  0.00    +0.000 A 
ENDROOT
BRANCH   3  11
ATOM     11  C   UNL     1       5.433   3.961  17.150  0.00  0.00    +0.000 A 
ATOM     12  C   UNL     1       6.455   4.675  17.739  0.00  0.00    +0.000 A 
ATOM     13  C   UNL     1       7.444   4.869  16.749  0.00  0.00    +0.000 A 
ATOM     14  C   UNL     1       7.002   4.266  15.594  0.00  0.00    +0.000 A 
ATOM     15  N   UNL     1       5.797   3.683  15.854  0.00  0.00    +0.000 N 
ATOM     16  H   UNL     1       5.131   3.326  15.174  0.00  0.00    +0.000 HD
ENDBRANCH   3  11
BRANCH   1  17
ATOM     17  N   UNL     1       3.169   7.017  18.809  0.00  0.00    +0.000 N 
ATOM     18  H   UNL     1       3.961   7.146  19.426  0.00  0.00    +0.000 HD
BRANCH  17  22
ATOM     19  C   UNL     1       0.063   9.986  19.369  0.00  0.00    +0.000 A 
ATOM     20  C   UNL     1       0.653   9.762  18.113  0.00  0.00    +0.000 A 
ATOM     21  C   UNL     1       1.671   8.798  17.940  0.00  0.00    +0.000 A 
ATOM     22  C   UNL     1       2.162   8.041  19.010  0.00  0.00    +0.000 A 
ATOM     23  C   UNL     1       1.558   8.291  20.263  0.00  0.00    +0.000 A 
ATOM     24  C   UNL     1       0.523   9.258  20.440  0.00  0.00    +0.000 A 
BRANCH  19  26
ATOM     25  C   UNL     1      -2.002  10.859  18.468  0.00  0.00    +0.000 C 
ATOM     26  O   UNL     1      -0.889  10.976  19.347  0.00  0.00    +0.000 OA
ENDBRANCH  19  26
ENDBRANCH  17  22
ENDBRANCH   1  17
TORSDOF 4
ENDMDL
MODEL 5
REMARK VINA RESULT:      -8.2      4.117      5.634
REMARK  Name = 
REMARK  5 active torsions:
REMARK  status: ('A' for Active; 'I' for Inactive)
REMARK    1  A    between atoms: C_1  and  O_2
REMARK    2  A    between atoms: O_2  and  C_3
REMARK    3  A    between atoms: C_6  and  N_7
REMARK    4  A    between atoms: N_7  and  C_8
REMARK    5  A    between atoms: C_10  and  C_11
REMARK                            x       y       z     vdW  Elec       q    Type
REMARK                         _______ _______ _______ _____ _____    ______ ____
ROOT
ATOM      1  C   UNL     1       5.085   4.146  15.722  0.00  0.00    +0.000 A 
ATOM      2  N   UNL     1       5.349   5.255  16.427  0.00  0.00    +0.000 NA
ATOM      3  C   UNL     1       6.361   6.010  15.997  0.00  0.00    +0.000 A 
ATOM      4  N   UNL     1       7.044   5.850  14.870  0.00  0.00    +0.000 NA
ATOM      5  C   UNL     1       6.717   4.829  14.129  0.00  0.00    +0.000 A 
ATOM      6  C   UNL     1       7.591   4.667  13.075  0.00  0.00    +0.000 A 
ATOM      7  C   UNL     1       7.194   4.021  11.930  0.00  0.00    +0.000 A 
ATOM      8  C   UNL     1       5.938   3.430  11.956  0.00  0.00    +0.000 A 
ATOM      9  C   UNL     1       5.191   3.326  13.170  0.00  0.00    +0.000 A 
ATOM     10  C   UNL     1       5.611   4.008  14.368  0.00  0.00    +0.000 A 
ENDROOT
BRANCH   3  11
ATOM     11  C   UNL     1       7.349   6.246  17.024  0.00  0.00    +0.000 A 
ATOM     12  C   UNL     1       7.577   5.516  18.171  0.00  0.00    +0.000 A 
ATOM     13  C   UNL     1       8.109   6.410  19.127  0.00  0.00    +0.000 A 
ATOM     14  C   UNL     1       8.195   7.650  18.537  0.00  0.00    +0.000 A 
ATOM     15  N   UNL     1       7.767   7.536  17.246  0.00  0.00    +0.000 N 
ATOM     16  H   UNL     1       7.533   8.293  16.610  0.00  0.00    +0.000 HD
ENDBRANCH   3  11
BRANCH   1  17
ATOM     17  N   UNL     1       4.759   3.034  16.583  0.00  0.00    +0.000 N 
ATOM     18  H   UNL     1       4.779   2.144  16.102  0.00  0.00    +0.000 HD
BRANCH  17  22
ATOM     19  C   UNL     1       1.742   3.253  19.686  0.00  0.00    +0.000 A 
ATOM     20  C   UNL     1       3.084   2.960  19.980  0.00  0.00    +0.000 A 
ATOM     21  C   UNL     1       4.061   2.883  18.963  0.00  0.00    +0.000 A 
ATOM     22  C   UNL     1       3.738   3.063  17.613  0.00  0.00    +0.000 A 
ATOM     23  C   UNL     1       2.380   3.348  17.342  0.00  0.00    +0.000 A 
ATOM     24  C   UNL     1       1.393   3.436  18.370  0.00  0.00    +0.000 A 
BRANCH  19  26
ATOM     25  C   UNL     1       1.364   2.591  21.979  0.00  0.00    +0.000 C 
ATOM     26  O   UNL     1       0.937   3.262  20.798  0.00  0.00    +0.000 OA
ENDBRANCH  19  26
ENDBRANCH  17  22
ENDBRANCH   1  17
TORSDOF 4
ENDMDL
MODEL 6
REMARK VINA RESULT:      -8.2      1.364      1.708
REMARK  Name = 
REMARK  5 active torsions:
REMARK  status: ('A' for Active; 'I' for Inactive)
REMARK    1  A    between atoms: C_1  and  O_2
REMARK    2  A    between atoms: O_2  and  C_3
REMARK    3  A    between atoms: C_6  and  N_7
REMARK    4  A    between atoms: N_7  and  C_8
REMARK    5  A    between atoms: C_10  and  C_11
REMARK                            x       y       z     vdW  Elec       q    Type
REMARK                         _______ _______ _______ _____ _____    ______ ____
ROOT
ATOM      1  C   UNL     1       2.737   6.177  19.196  0.00  0.00    +0.000 A 
ATOM      2  N   UNL     1       3.585   6.163  18.158  0.00  0.00    +0.000 NA
ATOM      3  C   UNL     1       4.331   5.068  18.010  0.00  0.00    +0.000 A 
ATOM      4  N   UNL     1       4.225   3.940  18.700  0.00  0.00    +0.000 NA
ATOM      5  C   UNL     1       3.326   3.914  19.643  0.00  0.00    +0.000 A 
ATOM      6  C   UNL     1       3.414   2.762  20.395  0.00  0.00    +0.000 A 
ATOM      7  C   UNL     1       2.320   2.286  21.077  0.00  0.00    +0.000 A 
ATOM      8  C   UNL     1       1.191   3.096  21.078  0.00  0.00    +0.000 A 
ATOM      9  C   UNL     1       1.235   4.432  20.574  0.00  0.00    +0.000 A 
ATOM     10  C   UNL     1       2.384   4.924  19.857  0.00  0.00    +0.000 A 
ENDROOT
BRANCH   3  11
ATOM     11  C   UNL     1       5.744   5.365  17.960  0.00  0.00    +0.000 A 
ATOM     12  C   UNL     1       6.649   5.383  19.000  0.00  0.00    +0.000 A 
ATOM     13  C   UNL     1       7.658   6.307  18.651  0.00  0.00    +0.000 A 
ATOM     14  C   UNL     1       7.344   6.819  17.412  0.00  0.00    +0.000 A 
ATOM     15  N   UNL     1       6.200   6.215  16.981  0.00  0.00    +0.000 N 
ATOM     16  H   UNL     1       5.613   6.502  16.203  0.00  0.00    +0.000 HD
ENDBRANCH   3  11
BRANCH   1  17
ATOM     17  N   UNL     1       2.699   7.470  19.836  0.00  0.00    +0.000 N 
ATOM     18  H   UNL     1       3.078   7.458  20.774  0.00  0.00    +0.000 HD
BRANCH  17  22
ATOM     19  C   UNL     1      -0.475  10.401  19.514  0.00  0.00    +0.000 A 
ATOM     20  C   UNL     1      -0.222   9.716  20.714  0.00  0.00    +0.000 A 
ATOM     21  C   UNL     1       0.809   8.756  20.809  0.00  0.00    +0.000 A 
ATOM     22  C   UNL     1       1.609   8.418  19.712  0.00  0.00    +0.000 A 
ATOM     23  C   UNL     1       1.329   9.115  18.514  0.00  0.00    +0.000 A 
ATOM     24  C   UNL     1       0.293  10.093  18.417  0.00  0.00    +0.000 A 
BRANCH  19  26
ATOM     25  C   UNL     1      -2.070  11.850  18.420  0.00  0.00    +0.000 C 
ATOM     26  O   UNL     1      -1.530  11.277  19.606  0.00  0.00    +0.000 OA
ENDBRANCH  19  26
ENDBRANCH  17  22
ENDBRANCH   1  17
TORSDOF 4
ENDMDL
MODEL 7
REMARK VINA RESULT:      -8.2      1.795      2.492
REMARK  Name = 
REMARK  5 active torsions:
REMARK  status: ('A' for Active; 'I' for Inactive)
REMARK    1  A    between atoms: C_1  and  O_2
REMARK    2  A    between atoms: O_2  and  C_3
REMARK    3  A    between atoms: C_6  and  N_7
REMARK    4  A    between atoms: N_7  and  C_8
REMARK    5  A    between atoms: C_10  and  C_11
REMARK                            x       y       z     vdW  Elec       q    Type
REMARK                         _______ _______ _______ _____ _____    ______ ____
ROOT
ATOM      1  C   UNL     1       2.607   5.879  18.743  0.00  0.00    +0.000 A 
ATOM      2  N   UNL     1       3.085   5.597  17.523  0.00  0.00    +0.000 NA
ATOM      3  C   UNL     1       3.684   4.415  17.375  0.00  0.00    +0.000 A 
ATOM      4  N   UNL     1       3.735   3.436  18.269  0.00  0.00    +0.000 NA
ATOM      5  C   UNL     1       3.176   3.670  19.424  0.00  0.00    +0.000 A 
ATOM      6  C   UNL     1       3.429   2.657  20.324  0.00  0.00    +0.000 A 
ATOM      7  C   UNL     1       2.578   2.429  21.377  0.00  0.00    +0.000 A 
ATOM      8  C   UNL     1       1.555   3.351  21.558  0.00  0.00    +0.000 A 
ATOM      9  C   UNL     1       1.514   4.570  20.815  0.00  0.00    +0.000 A 
ATOM     10  C   UNL     1       2.408   4.803  19.708  0.00  0.00    +0.000 A 
ENDROOT
BRANCH   3  11
ATOM     11  C   UNL     1       5.025   4.537  16.851  0.00  0.00    +0.000 A 
ATOM     12  C   UNL     1       5.672   5.676  16.423  0.00  0.00    +0.000 A 
ATOM     13  C   UNL     1       6.608   5.275  15.444  0.00  0.00    +0.000 A 
ATOM     14  C   UNL     1       6.508   3.909  15.308  0.00  0.00    +0.000 A 
ATOM     15  N   UNL     1       5.570   3.461  16.192  0.00  0.00    +0.000 N 
ATOM     16  H   UNL     1       5.135   2.543  16.210  0.00  0.00    +0.000 HD
ENDBRANCH   3  11
BRANCH   1  17
ATOM     17  N   UNL     1       2.845   7.257  19.102  0.00  0.00    +0.000 N 
ATOM     18  H   UNL     1       3.761   7.407  19.505  0.00  0.00    +0.000 HD
BRANCH  17  22
ATOM     19  C   UNL     1      -0.018   9.967  20.901  0.00  0.00    +0.000 A 
ATOM     20  C   UNL     1       0.546   8.903  21.624  0.00  0.00    +0.000 A 
ATOM     21  C   UNL     1       1.473   8.019  21.028  0.00  0.00    +0.000 A 
ATOM     22  C   UNL     1       1.852   8.138  19.687  0.00  0.00    +0.000 A 
ATOM     23  C   UNL     1       1.265   9.212  18.979  0.00  0.00    +0.000 A 
ATOM     24  C   UNL     1       0.335  10.113  19.580  0.00  0.00    +0.000 A 
BRANCH  19  26
ATOM     25  C   UNL     1      -0.956  10.545  23.051  0.00  0.00    +0.000 C 
ATOM     26  O   UNL     1      -0.914  10.703  21.637  0.00  0.00    +0.000 OA
ENDBRANCH  19  26
ENDBRANCH  17  22
ENDBRANCH   1  17
TORSDOF 4
ENDMDL
MODEL 8
REMARK VINA RESULT:      -8.1      1.557      1.860
REMARK  Name = 
REMARK  5 active torsions:
REMARK  status: ('A' for Active; 'I' for Inactive)
REMARK    1  A    between atoms: C_1  and  O_2
REMARK    2  A    between atoms: O_2  and  C_3
REMARK    3  A    between atoms: C_6  and  N_7
REMARK    4  A    between atoms: N_7  and  C_8
REMARK    5  A    between atoms: C_10  and  C_11
REMARK                            x       y       z     vdW  Elec       q    Type
REMARK                         _______ _______ _______ _____ _____    ______ ____
ROOT
ATOM      1  C   UNL     1       2.590   6.039  19.039  0.00  0.00    +0.000 A 
ATOM      2  N   UNL     1       3.163   5.934  17.832  0.00  0.00    +0.000 NA
ATOM      3  C   UNL     1       3.817   4.800  17.578  0.00  0.00    +0.000 A 
ATOM      4  N   UNL     1       3.845   3.715  18.341  0.00  0.00    +0.000 NA
ATOM      5  C   UNL     1       3.198   3.778  19.471  0.00  0.00    +0.000 A 
ATOM      6  C   UNL     1       3.427   2.665  20.250  0.00  0.00    +0.000 A 
ATOM      7  C   UNL     1       2.515   2.275  21.199  0.00  0.00    +0.000 A 
ATOM      8  C   UNL     1       1.446   3.133  21.419  0.00  0.00    +0.000 A 
ATOM      9  C   UNL     1       1.408   4.438  20.838  0.00  0.00    +0.000 A 
ATOM     10  C   UNL     1       2.367   4.840  19.840  0.00  0.00    +0.000 A 
ENDROOT
BRANCH   3  11
ATOM     11  C   UNL     1       5.185   5.030  17.175  0.00  0.00    +0.000 A 
ATOM     12  C   UNL     1       5.778   4.736  15.966  0.00  0.00    +0.000 A 
ATOM     13  C   UNL     1       7.149   4.511  16.224  0.00  0.00    +0.000 A 
ATOM     14  C   UNL     1       7.351   4.679  17.575  0.00  0.00    +0.000 A 
ATOM     15  N   UNL     1       6.161   5.031  18.142  0.00  0.00    +0.000 N 
ATOM     16  H   UNL     1       5.936   5.044  19.133  0.00  0.00    +0.000 HD
ENDBRANCH   3  11
BRANCH   1  17
ATOM     17  N   UNL     1       2.747   7.365  19.589  0.00  0.00    +0.000 N 
ATOM     18  H   UNL     1       3.294   7.376  20.440  0.00  0.00    +0.000 HD
BRANCH  17  22
ATOM     19  C   UNL     1      -0.445  10.295  19.589  0.00  0.00    +0.000 A 
ATOM     20  C   UNL     1       0.328  10.046  18.443  0.00  0.00    +0.000 A 
ATOM     21  C   UNL     1       1.372   9.095  18.452  0.00  0.00    +0.000 A 
ATOM     22  C   UNL     1       1.709   8.377  19.606  0.00  0.00    +0.000 A 
ATOM     23  C   UNL     1       0.921   8.652  20.747  0.00  0.00    +0.000 A 
ATOM     24  C   UNL     1      -0.141   9.606  20.738  0.00  0.00    +0.000 A 
BRANCH  19  26
ATOM     25  C   UNL     1      -1.268  12.164  18.297  0.00  0.00    +0.000 C 
ATOM     26  O   UNL     1      -1.395  11.267  19.396  0.00  0.00    +0.000 OA
ENDBRANCH  19  26
ENDBRANCH  17  22
ENDBRANCH   1  17
TORSDOF 4
ENDMDL
MODEL 9
REMARK VINA RESULT:      -8.1      0.918      1.090
REMARK  Name = 
REMARK  5 active torsions:
REMARK  status: ('A' for Active; 'I' for Inactive)
REMARK    1  A    between atoms: C_1  and  O_2
REMARK    2  A    between atoms: O_2  and  C_3
REMARK    3  A    between atoms: C_6  and  N_7
REMARK    4  A    between atoms: N_7  and  C_8
REMARK    5  A    between atoms: C_10  and  C_11
REMARK                            x       y       z     vdW  Elec       q    Type
REMARK                         _______ _______ _______ _____ _____    ______ ____
ROOT
ATOM      1  C   UNL     1       2.694   5.923  18.712  0.00  0.00    +0.000 A 
ATOM      2  N   UNL     1       3.583   6.218  17.753  0.00  0.00    +0.000 NA
ATOM      3  C   UNL     1       4.217   5.188  17.190  0.00  0.00    +0.000 A 
ATOM      4  N   UNL     1       3.961   3.901  17.382  0.00  0.00    +0.000 NA
ATOM      5  C   UNL     1       3.021   3.613  18.238  0.00  0.00    +0.000 A 
ATOM      6  C   UNL     1       2.953   2.258  18.480  0.00  0.00    +0.000 A 
ATOM      7  C   UNL     1       1.785   1.684  18.918  0.00  0.00    +0.000 A 
ATOM      8  C   UNL     1       0.748   2.552  19.234  0.00  0.00    +0.000 A 
ATOM      9  C   UNL     1       0.954   3.965  19.293  0.00  0.00    +0.000 A 
ATOM     10  C   UNL     1       2.181   4.562  18.828  0.00  0.00    +0.000 A 
ENDROOT
BRANCH   3  11
ATOM     11  C   UNL     1       5.654   5.318  17.262  0.00  0.00    +0.000 A 
ATOM     12  C   UNL     1       6.612   4.534  16.656  0.00  0.00    +0.000 A 
ATOM     13  C   UNL     1       7.762   4.583  17.475  0.00  0.00    +0.000 A 
ATOM     14  C   UNL     1       7.475   5.396  18.548  0.00  0.00    +0.000 A 
ATOM     15  N   UNL     1       6.205   5.870  18.394  0.00  0.00    +0.000 N 
ATOM     16  H   UNL     1       5.637   6.337  19.095  0.00  0.00    +0.000 HD
ENDBRANCH   3  11
BRANCH   1  17
ATOM     17  N   UNL     1       2.761   6.862  19.806  0.00  0.00    +0.000 N 
ATOM     18  H   UNL     1       3.037   6.430  20.679  0.00  0.00    +0.000 HD
BRANCH  17  22
ATOM     19  C   UNL     1      -0.138  10.030  20.379  0.00  0.00    +0.000 A 
ATOM     20  C   UNL     1       0.576   9.891  19.178  0.00  0.00    +0.000 A 
ATOM     21  C   UNL     1       1.526   8.861  19.001  0.00  0.00    +0.000 A 
ATOM     22  C   UNL     1       1.824   7.947  20.018  0.00  0.00    +0.000 A 
ATOM     23  C   UNL     1       1.098   8.113  21.220  0.00  0.00    +0.000 A 
ATOM     24  C   UNL     1       0.131   9.148  21.399  0.00  0.00    +0.000 A 
BRANCH  19  26
ATOM     25  C   UNL     1      -1.672  11.453  19.171  0.00  0.00    +0.000 C 
ATOM     26  O   UNL     1      -0.998  11.101  20.374  0.00  0.00    +0.000 OA
ENDBRANCH  19  26
ENDBRANCH  17  22
ENDBRANCH   1  17
TORSDOF 4
ENDMDL
