MODEL 1
REMARK VINA RESULT:      -9.0      0.000      0.000
REMARK  Name = 
REMARK  11 active torsions:
REMARK  status: ('A' for Active; 'I' for Inactive)
REMARK    1  A    between atoms: C_1  and  C_2
REMARK    2  A    between atoms: C_2  and  C_3
REMARK    3  A    between atoms: C_3  and  C_4
REMARK    4  A    between atoms: C_11  and  O_12
REMARK    5  A    between atoms: O_12  and  C_13
REMARK    6  A    between atoms: C_13  and  C_14
REMARK    7  A    between atoms: N_16  and  CA_17
REMARK    8  A    between atoms: CA_17  and  CB_18
REMARK    9  A    between atoms: CA_17  and  C_28
REMARK   10  A    between atoms: CB_18  and  CG_19
REMARK   11  A    between atoms: C_28  and  OXT_30
REMARK                            x       y       z     vdW  Elec       q    Type
REMARK                         _______ _______ _______ _____ _____    ______ ____
ROOT
ATOM      1  C   UNK A   0       7.826   7.671  17.941  0.00  0.00    +0.000 C 
ATOM      2  O   UNK A   0       8.140   6.881  18.829  0.00  0.00    +0.000 OA
ATOM      3  N   TRP A   1       6.986   7.337  16.909  0.00  0.00    +0.000 N 
ATOM      4  H   TRP A   1       6.836   8.025  16.171  0.00  0.00    +0.000 HD
ENDROOT
BRANCH   1   5
ATOM      5  C   UNK A   0       8.257   9.139  17.961  0.00  0.00    +0.000 C 
BRANCH   5   6
ATOM      6  O   UNK A   0       9.044   9.443  19.111  0.00  0.00    +0.000 OA
BRANCH   6  14
ATOM      7  C   UNK A   0      11.243  14.680  18.992  0.00  0.00    +0.000 A 
ATOM      8  C   UNK A   0      11.159  15.395  20.119  0.00  0.00    +0.000 A 
ATOM      9  C   UNK A   0      10.565  14.890  21.367  0.00  0.00    +0.000 A 
ATOM     10  O   UNK A   0      10.474  15.608  22.356  0.00  0.00    +0.000 OA
ATOM     11  O   UNK A   0      10.140  13.577  21.362  0.00  0.00    +0.000 OA
ATOM     12  C   UNK A   0      10.182  12.801  20.185  0.00  0.00    +0.000 A 
ATOM     13  C   UNK A   0       9.643  11.516  20.288  0.00  0.00    +0.000 A 
ATOM     14  C   UNK A   0       9.585  10.699  19.165  0.00  0.00    +0.000 A 
ATOM     15  C   UNK A   0      10.105  11.182  17.959  0.00  0.00    +0.000 A 
ATOM     16  C   UNK A   0      10.660  12.471  17.874  0.00  0.00    +0.000 A 
ATOM     17  C   UNK A   0      10.698  13.304  18.992  0.00  0.00    +0.000 A 
BRANCH   7  18
ATOM     18  C   UNK A   0      11.889  15.270  17.758  0.00  0.00    +0.000 C 
BRANCH  18  20
ATOM     19  C   UNK A   0      10.805  17.509  17.363  0.00  0.00    +0.000 C 
ATOM     20  C   UNK A   0      10.890  16.058  16.915  0.00  0.00    +0.000 C 
ENDBRANCH  18  20
ENDBRANCH   7  18
ENDBRANCH   6  14
ENDBRANCH   5   6
ENDBRANCH   1   5
BRANCH   3  21
ATOM     21  CA  TRP A   1       6.354   6.025  16.746  0.00  0.00    +0.000 C 
BRANCH  21  22
ATOM     22  C   TRP A   1       6.488   5.633  15.259  0.00  0.00    +0.000 C 
ATOM     23  O   TRP A   1       5.565   5.698  14.453  0.00  0.00    +0.000 OA
BRANCH  22  24
ATOM     24  OXT TRP A   1       7.731   5.260  14.875  0.00  0.00    +0.000 OA
ATOM     25  HXT TRP A   1       8.187   4.643  15.475  0.00  0.00    +0.000 HD
ENDBRANCH  22  24
ENDBRANCH  21  22
BRANCH  21  26
ATOM     26  CB  TRP A   1       4.884   5.977  17.230  0.00  0.00    +0.000 C 
BRANCH  26  27
ATOM     27  CG  TRP A   1       4.585   4.800  18.110  0.00  0.00    +0.000 A 
ATOM     28  CD1 TRP A   1       5.468   4.214  18.996  0.00  0.00    +0.000 A 
ATOM     29  NE1 TRP A   1       4.937   3.012  19.372  0.00  0.00    +0.000 N 
ATOM     30  CE2 TRP A   1       3.600   2.982  19.058  0.00  0.00    +0.000 A 
ATOM     31  CZ2 TRP A   1       2.619   2.057  19.427  0.00  0.00    +0.000 A 
ATOM     32  CH2 TRP A   1       1.302   2.348  19.069  0.00  0.00    +0.000 A 
ATOM     33  CZ3 TRP A   1       0.998   3.477  18.311  0.00  0.00    +0.000 A 
ATOM     34  CE3 TRP A   1       2.010   4.342  17.870  0.00  0.00    +0.000 A 
ATOM     35  CD2 TRP A   1       3.339   4.110  18.280  0.00  0.00    +0.000 A 
ATOM     36  HE1 TRP A   1       5.420   2.299  19.901  0.00  0.00    +0.000 HD
ENDBRANCH  26  27
ENDBRANCH  21  26
ENDBRANCH   3  21
TORSDOF 10
ENDMDL
MODEL 2
REMARK VINA RESULT:      -8.7      6.676      7.883
REMARK  Name = 
REMARK  11 active torsions:
REMARK  status: ('A' for Active; 'I' for Inactive)
REMARK    1  A    between atoms: C_1  and  C_2
REMARK    2  A    between atoms: C_2  and  C_3
REMARK    3  A    between atoms: C_3  and  C_4
REMARK    4  A    between atoms: C_11  and  O_12
REMARK    5  A    between atoms: O_12  and  C_13
REMARK    6  A    between atoms: C_13  and  C_14
REMARK    7  A    between atoms: N_16  and  CA_17
REMARK    8  A    between atoms: CA_17  and  CB_18
REMARK    9  A    between atoms: CA_17  and  C_28
REMARK   10  A    between atoms: CB_18  and  CG_19
REMARK   11  A    between atoms: C_28  and  OXT_30
REMARK                            x       y       z     vdW  Elec       q    Type
REMARK                         _______ _______ _______ _____ _____    ______ ____
ROOT
ATOM      1  C   UNK A   0       4.440   6.468  18.141  0.00  0.00    +0.000 C 
ATOM      2  O   UNK A   0       4.307   6.193  19.331  0.00  0.00    +0.000 OA
ATOM      3  N   TRP A   1       5.153   5.685  17.270  0.00  0.00    +0.000 N 
ATOM      4  H   TRP A   1       5.281   6.022  16.315  0.00  0.00    +0.000 HD
ENDROOT
BRANCH   1   5
ATOM      5  C   UNK A   0       3.730   7.658  17.492  0.00  0.00    +0.000 C 
BRANCH   5   6
ATOM      6  O   UNK A   0       2.314   7.572  17.637  0.00  0.00    +0.000 OA
BRANCH   6  14
ATOM      7  C   UNK A   0      -0.261  11.386  20.969  0.00  0.00    +0.000 A 
ATOM      8  C   UNK A   0      -0.389  11.069  22.262  0.00  0.00    +0.000 A 
ATOM      9  C   UNK A   0       0.121   9.821  22.852  0.00  0.00    +0.000 A 
ATOM     10  O   UNK A   0      -0.067   9.564  24.036  0.00  0.00    +0.000 OA
ATOM     11  O   UNK A   0       0.825   8.982  22.013  0.00  0.00    +0.000 OA
ATOM     12  C   UNK A   0       0.953   9.267  20.638  0.00  0.00    +0.000 A 
ATOM     13  C   UNK A   0       1.614   8.296  19.879  0.00  0.00    +0.000 A 
ATOM     14  C   UNK A   0       1.736   8.460  18.504  0.00  0.00    +0.000 A 
ATOM     15  C   UNK A   0       1.217   9.620  17.919  0.00  0.00    +0.000 A 
ATOM     16  C   UNK A   0       0.570  10.596  18.697  0.00  0.00    +0.000 A 
ATOM     17  C   UNK A   0       0.422  10.425  20.074  0.00  0.00    +0.000 A 
BRANCH   7  18
ATOM     18  C   UNK A   0      -0.796  12.702  20.448  0.00  0.00    +0.000 C 
BRANCH  18  20
ATOM     19  C   UNK A   0      -2.865  11.981  19.206  0.00  0.00    +0.000 C 
ATOM     20  C   UNK A   0      -2.322  12.722  20.417  0.00  0.00    +0.000 C 
ENDBRANCH  18  20
ENDBRANCH   7  18
ENDBRANCH   6  14
ENDBRANCH   5   6
ENDBRANCH   1   5
BRANCH   3  21
ATOM     21  CA  TRP A   1       5.822   4.434  17.637  0.00  0.00    +0.000 C 
BRANCH  21  22
ATOM     22  C   TRP A   1       7.190   4.417  16.922  0.00  0.00    +0.000 C 
ATOM     23  O   TRP A   1       7.350   4.742  15.751  0.00  0.00    +0.000 OA
BRANCH  22  24
ATOM     24  OXT TRP A   1       8.239   4.068  17.704  0.00  0.00    +0.000 OA
ATOM     25  HXT TRP A   1       9.119   4.234  17.323  0.00  0.00    +0.000 HD
ENDBRANCH  22  24
ENDBRANCH  21  22
BRANCH  21  26
ATOM     26  CB  TRP A   1       4.988   3.167  17.326  0.00  0.00    +0.000 C 
BRANCH  26  27
ATOM     27  CG  TRP A   1       3.567   3.259  17.792  0.00  0.00    +0.000 A 
ATOM     28  CD1 TRP A   1       2.465   3.456  16.980  0.00  0.00    +0.000 A 
ATOM     29  NE1 TRP A   1       1.412   3.785  17.787  0.00  0.00    +0.000 N 
ATOM     30  CE2 TRP A   1       1.703   3.442  19.084  0.00  0.00    +0.000 A 
ATOM     31  CZ2 TRP A   1       0.869   3.406  20.205  0.00  0.00    +0.000 A 
ATOM     32  CH2 TRP A   1       1.406   2.888  21.385  0.00  0.00    +0.000 A 
ATOM     33  CZ3 TRP A   1       2.742   2.498  21.452  0.00  0.00    +0.000 A 
ATOM     34  CE3 TRP A   1       3.588   2.632  20.342  0.00  0.00    +0.000 A 
ATOM     35  CD2 TRP A   1       3.051   3.083  19.119  0.00  0.00    +0.000 A 
ATOM     36  HE1 TRP A   1       0.515   4.122  17.469  0.00  0.00    +0.000 HD
ENDBRANCH  26  27
ENDBRANCH  21  26
ENDBRANCH   3  21
TORSDOF 10
ENDMDL
MODEL 3
REMARK VINA RESULT:      -8.5      2.091      3.132
REMARK  Name = 
REMARK  11 active torsions:
REMARK  status: ('A' for Active; 'I' for Inactive)
REMARK    1  A    between atoms: C_1  and  C_2
REMARK    2  A    between atoms: C_2  and  C_3
REMARK    3  A    between atoms: C_3  and  C_4
REMARK    4  A    between atoms: C_11  and  O_12
REMARK    5  A    between atoms: O_12  and  C_13
REMARK    6  A    between atoms: C_13  and  C_14
REMARK    7  A    between atoms: N_16  and  CA_17
REMARK    8  A    between atoms: CA_17  and  CB_18
REMARK    9  A    between atoms: CA_17  and  C_28
REMARK   10  A    between atoms: CB_18  and  CG_19
REMARK   11  A    between atoms: C_28  and  OXT_30
REMARK                            x       y       z     vdW  Elec       q    Type
REMARK                         _______ _______ _______ _____ _____    ______ ____
ROOT
ATOM      1  C   UNK A   0       7.350   7.114  17.550  0.00  0.00    +0.000 C 
ATOM      2  O   UNK A   0       7.778   6.383  18.441  0.00  0.00    +0.000 OA
ATOM      3  N   TRP A   1       6.672   6.638  16.457  0.00  0.00    +0.000 N 
ATOM      4  H   TRP A   1       6.417   7.300  15.724  0.00  0.00    +0.000 HD
ENDROOT
BRANCH   1   5
ATOM      5  C   UNK A   0       7.439   8.640  17.629  0.00  0.00    +0.000 C 
BRANCH   5   6
ATOM      6  O   UNK A   0       8.775   9.080  17.863  0.00  0.00    +0.000 OA
BRANCH   6  14
ATOM      7  C   UNK A   0       9.583  14.098  20.402  0.00  0.00    +0.000 A 
ATOM      8  C   UNK A   0       9.408  15.189  19.650  0.00  0.00    +0.000 A 
ATOM      9  C   UNK A   0       8.997  15.153  18.238  0.00  0.00    +0.000 A 
ATOM     10  O   UNK A   0       8.898  16.186  17.585  0.00  0.00    +0.000 OA
ATOM     11  O   UNK A   0       8.719  13.910  17.707  0.00  0.00    +0.000 OA
ATOM     12  C   UNK A   0       8.922  12.734  18.458  0.00  0.00    +0.000 A 
ATOM     13  C   UNK A   0       8.687  11.535  17.779  0.00  0.00    +0.000 A 
ATOM     14  C   UNK A   0       8.918  10.323  18.419  0.00  0.00    +0.000 A 
ATOM     15  C   UNK A   0       9.353  10.340  19.749  0.00  0.00    +0.000 A 
ATOM     16  C   UNK A   0       9.569  11.553  20.425  0.00  0.00    +0.000 A 
ATOM     17  C   UNK A   0       9.362  12.773  19.779  0.00  0.00    +0.000 A 
BRANCH   7  18
ATOM     18  C   UNK A   0       9.986  14.226  21.855  0.00  0.00    +0.000 C 
BRANCH  18  20
ATOM     19  C   UNK A   0       8.138  15.426  23.075  0.00  0.00    +0.000 C 
ATOM     20  C   UNK A   0       8.789  14.082  22.792  0.00  0.00    +0.000 C 
ENDBRANCH  18  20
ENDBRANCH   7  18
ENDBRANCH   6  14
ENDBRANCH   5   6
ENDBRANCH   1   5
BRANCH   3  21
ATOM     21  CA  TRP A   1       6.363   5.224  16.225  0.00  0.00    +0.000 C 
BRANCH  21  22
ATOM     22  C   TRP A   1       6.995   4.831  14.872  0.00  0.00    +0.000 C 
ATOM     23  O   TRP A   1       7.906   5.457  14.340  0.00  0.00    +0.000 OA
BRANCH  22  24
ATOM     24  OXT TRP A   1       6.510   3.693  14.324  0.00  0.00    +0.000 OA
ATOM     25  HXT TRP A   1       5.721   3.801  13.763  0.00  0.00    +0.000 HD
ENDBRANCH  22  24
ENDBRANCH  21  22
BRANCH  21  26
ATOM     26  CB  TRP A   1       4.849   4.901  16.274  0.00  0.00    +0.000 C 
BRANCH  26  27
ATOM     27  CG  TRP A   1       4.249   5.063  17.638  0.00  0.00    +0.000 A 
ATOM     28  CD1 TRP A   1       4.437   4.206  18.706  0.00  0.00    +0.000 A 
ATOM     29  NE1 TRP A   1       3.502   4.518  19.654  0.00  0.00    +0.000 N 
ATOM     30  CE2 TRP A   1       2.982   5.762  19.394  0.00  0.00    +0.000 A 
ATOM     31  CZ2 TRP A   1       2.159   6.567  20.186  0.00  0.00    +0.000 A 
ATOM     32  CH2 TRP A   1       1.886   7.854  19.721  0.00  0.00    +0.000 A 
ATOM     33  CZ3 TRP A   1       2.356   8.283  18.482  0.00  0.00    +0.000 A 
ATOM     34  CE3 TRP A   1       3.101   7.425  17.659  0.00  0.00    +0.000 A 
ATOM     35  CD2 TRP A   1       3.452   6.146  18.137  0.00  0.00    +0.000 A 
ATOM     36  HE1 TRP A   1       3.303   3.973  20.480  0.00  0.00    +0.000 HD
ENDBRANCH  26  27
ENDBRANCH  21  26
ENDBRANCH   3  21
TORSDOF 10
ENDMDL
MODEL 4
REMARK VINA RESULT:      -8.5      6.854      9.647
REMARK  Name = 
REMARK  11 active torsions:
REMARK  status: ('A' for Active; 'I' for Inactive)
REMARK    1  A    between atoms: C_1  and  C_2
REMARK    2  A    between atoms: C_2  and  C_3
REMARK    3  A    between atoms: C_3  and  C_4
REMARK    4  A    between atoms: C_11  and  O_12
REMARK    5  A    between atoms: O_12  and  C_13
REMARK    6  A    between atoms: C_13  and  C_14
REMARK    7  A    between atoms: N_16  and  CA_17
REMARK    8  A    between atoms: CA_17  and  CB_18
REMARK    9  A    between atoms: CA_17  and  C_28
REMARK   10  A    between atoms: CB_18  and  CG_19
REMARK   11  A    between atoms: C_28  and  OXT_30
REMARK                            x       y       z     vdW  Elec       q    Type
REMARK                         _______ _______ _______ _____ _____    ______ ____
ROOT
ATOM      1  C   UNK A   0       2.573   7.951  18.236  0.00  0.00    +0.000 C 
ATOM      2  O   UNK A   0       2.588   7.475  19.369  0.00  0.00    +0.000 OA
ATOM      3  N   TRP A   1       3.403   7.517  17.234  0.00  0.00    +0.000 N 
ATOM      4  H   TRP A   1       3.382   8.015  16.344  0.00  0.00    +0.000 HD
ENDROOT
BRANCH   1   5
ATOM      5  C   UNK A   0       1.549   9.003  17.803  0.00  0.00    +0.000 C 
BRANCH   5   6
ATOM      6  O   UNK A   0       1.269   9.930  18.850  0.00  0.00    +0.000 OA
BRANCH   6  14
ATOM      7  C   UNK A   0      -4.061  11.892  18.715  0.00  0.00    +0.000 A 
ATOM      8  C   UNK A   0      -4.491  12.546  19.799  0.00  0.00    +0.000 A 
ATOM      9  C   UNK A   0      -3.658  12.800  20.985  0.00  0.00    +0.000 A 
ATOM     10  O   UNK A   0      -4.121  13.365  21.969  0.00  0.00    +0.000 OA
ATOM     11  O   UNK A   0      -2.343  12.388  20.917  0.00  0.00    +0.000 OA
ATOM     12  C   UNK A   0      -1.861  11.667  19.804  0.00  0.00    +0.000 A 
ATOM     13  C   UNK A   0      -0.536  11.231  19.894  0.00  0.00    +0.000 A 
ATOM     14  C   UNK A   0       0.007  10.461  18.872  0.00  0.00    +0.000 A 
ATOM     15  C   UNK A   0      -0.786  10.172  17.757  0.00  0.00    +0.000 A 
ATOM     16  C   UNK A   0      -2.112  10.632  17.672  0.00  0.00    +0.000 A 
ATOM     17  C   UNK A   0      -2.671  11.383  18.707  0.00  0.00    +0.000 A 
BRANCH   7  18
ATOM     18  C   UNK A   0      -4.978  11.692  17.528  0.00  0.00    +0.000 C 
BRANCH  18  20
ATOM     19  C   UNK A   0      -7.147  12.919  17.166  0.00  0.00    +0.000 C 
ATOM     20  C   UNK A   0      -6.449  11.801  17.922  0.00  0.00    +0.000 C 
ENDBRANCH  18  20
ENDBRANCH   7  18
ENDBRANCH   6  14
ENDBRANCH   5   6
ENDBRANCH   1   5
BRANCH   3  21
ATOM     21  CA  TRP A   1       4.385   6.438  17.380  0.00  0.00    +0.000 C 
BRANCH  21  22
ATOM     22  C   TRP A   1       5.505   6.694  16.349  0.00  0.00    +0.000 C 
ATOM     23  O   TRP A   1       5.394   6.456  15.151  0.00  0.00    +0.000 OA
BRANCH  22  24
ATOM     24  OXT TRP A   1       6.624   7.265  16.853  0.00  0.00    +0.000 OA
ATOM     25  HXT TRP A   1       6.859   8.131  16.475  0.00  0.00    +0.000 HD
ENDBRANCH  22  24
ENDBRANCH  21  22
BRANCH  21  26
ATOM     26  CB  TRP A   1       3.778   5.020  17.239  0.00  0.00    +0.000 C 
BRANCH  26  27
ATOM     27  CG  TRP A   1       3.940   4.178  18.468  0.00  0.00    +0.000 A 
ATOM     28  CD1 TRP A   1       5.139   3.693  18.958  0.00  0.00    +0.000 A 
ATOM     29  NE1 TRP A   1       4.845   2.737  19.890  0.00  0.00    +0.000 N 
ATOM     30  CE2 TRP A   1       3.534   2.859  20.277  0.00  0.00    +0.000 A 
ATOM     31  CZ2 TRP A   1       2.855   2.243  21.332  0.00  0.00    +0.000 A 
ATOM     32  CH2 TRP A   1       1.544   2.656  21.576  0.00  0.00    +0.000 A 
ATOM     33  CZ3 TRP A   1       0.922   3.589  20.750  0.00  0.00    +0.000 A 
ATOM     34  CE3 TRP A   1       1.590   4.125  19.638  0.00  0.00    +0.000 A 
ATOM     35  CD2 TRP A   1       2.938   3.779  19.413  0.00  0.00    +0.000 A 
ATOM     36  HE1 TRP A   1       5.514   2.110  20.314  0.00  0.00    +0.000 HD
ENDBRANCH  26  27
ENDBRANCH  21  26
ENDBRANCH   3  21
TORSDOF 10
ENDMDL
MODEL 5
REMARK VINA RESULT:      -8.5      5.844      8.353
REMARK  Name = 
REMARK  11 active torsions:
REMARK  status: ('A' for Active; 'I' for Inactive)
REMARK    1  A    between atoms: C_1  and  C_2
REMARK    2  A    between atoms: C_2  and  C_3
REMARK    3  A    between atoms: C_3  and  C_4
REMARK    4  A    between atoms: C_11  and  O_12
REMARK    5  A    between atoms: O_12  and  C_13
REMARK    6  A    between atoms: C_13  and  C_14
REMARK    7  A    between atoms: N_16  and  CA_17
REMARK    8  A    between atoms: CA_17  and  CB_18
REMARK    9  A    between atoms: CA_17  and  C_28
REMARK   10  A    between atoms: CB_18  and  CG_19
REMARK   11  A    between atoms: C_28  and  OXT_30
REMARK                            x       y       z     vdW  Elec       q    Type
REMARK                         _______ _______ _______ _____ _____    ______ ____
ROOT
ATOM      1  C   UNK A   0       2.223   4.587  19.482  0.00  0.00    +0.000 C 
ATOM      2  O   UNK A   0       1.260   3.825  19.437  0.00  0.00    +0.000 OA
ATOM      3  N   TRP A   1       3.405   4.334  18.835  0.00  0.00    +0.000 N 
ATOM      4  H   TRP A   1       4.182   4.978  18.985  0.00  0.00    +0.000 HD
ENDROOT
BRANCH   1   5
ATOM      5  C   UNK A   0       2.159   5.948  20.180  0.00  0.00    +0.000 C 
BRANCH   5   6
ATOM      6  O   UNK A   0       2.443   7.017  19.280  0.00  0.00    +0.000 OA
BRANCH   6  14
ATOM      7  C   UNK A   0      -0.374  11.913  19.891  0.00  0.00    +0.000 A 
ATOM      8  C   UNK A   0      -0.848  12.187  21.112  0.00  0.00    +0.000 A 
ATOM      9  C   UNK A   0      -0.652  11.316  22.281  0.00  0.00    +0.000 A 
ATOM     10  O   UNK A   0      -1.150  11.598  23.365  0.00  0.00    +0.000 OA
ATOM     11  O   UNK A   0       0.126  10.193  22.091  0.00  0.00    +0.000 OA
ATOM     12  C   UNK A   0       0.616   9.852  20.813  0.00  0.00    +0.000 A 
ATOM     13  C   UNK A   0       1.317   8.645  20.737  0.00  0.00    +0.000 A 
ATOM     14  C   UNK A   0       1.786   8.196  19.507  0.00  0.00    +0.000 A 
ATOM     15  C   UNK A   0       1.568   8.991  18.377  0.00  0.00    +0.000 A 
ATOM     16  C   UNK A   0       0.877  10.212  18.472  0.00  0.00    +0.000 A 
ATOM     17  C   UNK A   0       0.382  10.655  19.699  0.00  0.00    +0.000 A 
BRANCH   7  18
ATOM     18  C   UNK A   0      -0.603  12.875  18.747  0.00  0.00    +0.000 C 
BRANCH  18  20
ATOM     19  C   UNK A   0      -0.112  15.345  18.814  0.00  0.00    +0.000 C 
ATOM     20  C   UNK A   0       0.480  13.950  18.683  0.00  0.00    +0.000 C 
ENDBRANCH  18  20
ENDBRANCH   7  18
ENDBRANCH   6  14
ENDBRANCH   5   6
ENDBRANCH   1   5
BRANCH   3  21
ATOM     21  CA  TRP A   1       3.660   3.151  18.007  0.00  0.00    +0.000 C 
BRANCH  21  22
ATOM     22  C   TRP A   1       4.200   2.046  18.940  0.00  0.00    +0.000 C 
ATOM     23  O   TRP A   1       4.770   2.270  20.002  0.00  0.00    +0.000 OA
BRANCH  22  24
ATOM     24  OXT TRP A   1       3.947   0.780  18.531  0.00  0.00    +0.000 OA
ATOM     25  HXT TRP A   1       3.025   0.484  18.629  0.00  0.00    +0.000 HD
ENDBRANCH  22  24
ENDBRANCH  21  22
BRANCH  21  26
ATOM     26  CB  TRP A   1       4.610   3.419  16.813  0.00  0.00    +0.000 C 
BRANCH  26  27
ATOM     27  CG  TRP A   1       5.164   4.812  16.793  0.00  0.00    +0.000 A 
ATOM     28  CD1 TRP A   1       4.663   5.865  16.052  0.00  0.00    +0.000 A 
ATOM     29  NE1 TRP A   1       5.602   6.859  16.063  0.00  0.00    +0.000 N 
ATOM     30  CE2 TRP A   1       6.501   6.631  17.075  0.00  0.00    +0.000 A 
ATOM     31  CZ2 TRP A   1       7.497   7.467  17.588  0.00  0.00    +0.000 A 
ATOM     32  CH2 TRP A   1       8.185   7.021  18.718  0.00  0.00    +0.000 A 
ATOM     33  CZ3 TRP A   1       7.935   5.762  19.259  0.00  0.00    +0.000 A 
ATOM     34  CE3 TRP A   1       6.997   4.899  18.671  0.00  0.00    +0.000 A 
ATOM     35  CD2 TRP A   1       6.238   5.355  17.574  0.00  0.00    +0.000 A 
ATOM     36  HE1 TRP A   1       5.578   7.692  15.492  0.00  0.00    +0.000 HD
ENDBRANCH  26  27
ENDBRANCH  21  26
ENDBRANCH   3  21
TORSDOF 10
ENDMDL
MODEL 6
REMARK VINA RESULT:      -8.4      2.081      2.863
REMARK  Name = 
REMARK  11 active torsions:
REMARK  status: ('A' for Active; 'I' for Inactive)
REMARK    1  A    between atoms: C_1  and  C_2
REMARK    2  A    between atoms: C_2  and  C_3
REMARK    3  A    between atoms: C_3  and  C_4
REMARK    4  A    between atoms: C_11  and  O_12
REMARK    5  A    between atoms: O_12  and  C_13
REMARK    6  A    between atoms: C_13  and  C_14
REMARK    7  A    between atoms: N_16  and  CA_17
REMARK    8  A    between atoms: CA_17  and  CB_18
REMARK    9  A    between atoms: CA_17  and  C_28
REMARK   10  A    between atoms: CB_18  and  CG_19
REMARK   11  A    between atoms: C_28  and  OXT_30
REMARK                            x       y       z     vdW  Elec       q    Type
REMARK                         _______ _______ _______ _____ _____    ______ ____
ROOT
ATOM      1  C   UNK A   0       7.541   6.574  18.276  0.00  0.00    +0.000 C 
ATOM      2  O   UNK A   0       6.964   5.910  19.134  0.00  0.00    +0.000 OA
ATOM      3  N   TRP A   1       7.301   6.427  16.933  0.00  0.00    +0.000 N 
ATOM      4  H   TRP A   1       7.876   6.961  16.281  0.00  0.00    +0.000 HD
ENDROOT
BRANCH   1   5
ATOM      5  C   UNK A   0       8.506   7.708  18.629  0.00  0.00    +0.000 C 
BRANCH   5   6
ATOM      6  O   UNK A   0       8.364   8.818  17.743  0.00  0.00    +0.000 OA
BRANCH   6  14
ATOM      7  C   UNK A   0       9.645  13.810  20.135  0.00  0.00    +0.000 A 
ATOM      8  C   UNK A   0       9.371  14.908  19.422  0.00  0.00    +0.000 A 
ATOM      9  C   UNK A   0       8.740  14.884  18.093  0.00  0.00    +0.000 A 
ATOM     10  O   UNK A   0       8.555  15.922  17.467  0.00  0.00    +0.000 OA
ATOM     11  O   UNK A   0       8.361  13.649  17.610  0.00  0.00    +0.000 OA
ATOM     12  C   UNK A   0       8.662  12.466  18.317  0.00  0.00    +0.000 A 
ATOM     13  C   UNK A   0       8.303  11.274  17.681  0.00  0.00    +0.000 A 
ATOM     14  C   UNK A   0       8.614  10.055  18.273  0.00  0.00    +0.000 A 
ATOM     15  C   UNK A   0       9.254  10.059  19.517  0.00  0.00    +0.000 A 
ATOM     16  C   UNK A   0       9.594  11.266  20.153  0.00  0.00    +0.000 A 
ATOM     17  C   UNK A   0       9.308  12.492  19.551  0.00  0.00    +0.000 A 
BRANCH   7  18
ATOM     18  C   UNK A   0      10.276  13.924  21.504  0.00  0.00    +0.000 C 
BRANCH  18  20
ATOM     19  C   UNK A   0       8.070  13.637  22.686  0.00  0.00    +0.000 C 
ATOM     20  C   UNK A   0       9.307  14.507  22.530  0.00  0.00    +0.000 C 
ENDBRANCH  18  20
ENDBRANCH   7  18
ENDBRANCH   6  14
ENDBRANCH   5   6
ENDBRANCH   1   5
BRANCH   3  21
ATOM     21  CA  TRP A   1       6.332   5.487  16.363  0.00  0.00    +0.000 C 
BRANCH  21  22
ATOM     22  C   TRP A   1       6.968   4.886  15.091  0.00  0.00    +0.000 C 
ATOM     23  O   TRP A   1       6.595   3.839  14.573  0.00  0.00    +0.000 OA
BRANCH  22  24
ATOM     24  OXT TRP A   1       7.949   5.635  14.535  0.00  0.00    +0.000 OA
ATOM     25  HXT TRP A   1       8.272   6.375  15.080  0.00  0.00    +0.000 HD
ENDBRANCH  22  24
ENDBRANCH  21  22
BRANCH  21  26
ATOM     26  CB  TRP A   1       4.946   6.117  16.078  0.00  0.00    +0.000 C 
BRANCH  26  27
ATOM     27  CG  TRP A   1       3.970   5.943  17.201  0.00  0.00    +0.000 A 
ATOM     28  CD1 TRP A   1       3.458   6.959  17.986  0.00  0.00    +0.000 A 
ATOM     29  NE1 TRP A   1       2.858   6.380  19.069  0.00  0.00    +0.000 N 
ATOM     30  CE2 TRP A   1       2.643   5.048  18.818  0.00  0.00    +0.000 A 
ATOM     31  CZ2 TRP A   1       1.892   4.115  19.539  0.00  0.00    +0.000 A 
ATOM     32  CH2 TRP A   1       1.738   2.847  18.976  0.00  0.00    +0.000 A 
ATOM     33  CZ3 TRP A   1       2.373   2.512  17.782  0.00  0.00    +0.000 A 
ATOM     34  CE3 TRP A   1       3.200   3.433  17.122  0.00  0.00    +0.000 A 
ATOM     35  CD2 TRP A   1       3.313   4.743  17.633  0.00  0.00    +0.000 A 
ATOM     36  HE1 TRP A   1       2.521   6.873  19.884  0.00  0.00    +0.000 HD
ENDBRANCH  26  27
ENDBRANCH  21  26
ENDBRANCH   3  21
TORSDOF 10
ENDMDL
MODEL 7
REMARK VINA RESULT:      -8.4      5.761      8.877
REMARK  Name = 
REMARK  11 active torsions:
REMARK  status: ('A' for Active; 'I' for Inactive)
REMARK    1  A    between atoms: C_1  and  C_2
REMARK    2  A    between atoms: C_2  and  C_3
REMARK    3  A    between atoms: C_3  and  C_4
REMARK    4  A    between atoms: C_11  and  O_12
REMARK    5  A    between atoms: O_12  and  C_13
REMARK    6  A    between atoms: C_13  and  C_14
REMARK    7  A    between atoms: N_16  and  CA_17
REMARK    8  A    between atoms: CA_17  and  CB_18
REMARK    9  A    between atoms: CA_17  and  C_28
REMARK   10  A    between atoms: CB_18  and  CG_19
REMARK   11  A    between atoms: C_28  and  OXT_30
REMARK                            x       y       z     vdW  Elec       q    Type
REMARK                         _______ _______ _______ _____ _____    ______ ____
ROOT
ATOM      1  C   UNK A   0       2.439   4.781  19.011  0.00  0.00    +0.000 C 
ATOM      2  O   UNK A   0       1.412   4.371  18.474  0.00  0.00    +0.000 OA
ATOM      3  N   TRP A   1       3.661   4.182  18.837  0.00  0.00    +0.000 N 
ATOM      4  H   TRP A   1       4.451   4.535  19.377  0.00  0.00    +0.000 HD
ENDROOT
BRANCH   1   5
ATOM      5  C   UNK A   0       2.473   6.065  19.843  0.00  0.00    +0.000 C 
BRANCH   5   6
ATOM      6  O   UNK A   0       2.657   7.219  19.025  0.00  0.00    +0.000 OA
BRANCH   6  14
ATOM      7  C   UNK A   0      -0.971  11.544  19.665  0.00  0.00    +0.000 A 
ATOM      8  C   UNK A   0      -1.370  11.817  20.912  0.00  0.00    +0.000 A 
ATOM      9  C   UNK A   0      -0.900  11.087  22.100  0.00  0.00    +0.000 A 
ATOM     10  O   UNK A   0      -1.336  11.352  23.214  0.00  0.00    +0.000 OA
ATOM     11  O   UNK A   0       0.056  10.115  21.890  0.00  0.00    +0.000 OA
ATOM     12  C   UNK A   0       0.478   9.776  20.588  0.00  0.00    +0.000 A 
ATOM     13  C   UNK A   0       1.385   8.716  20.503  0.00  0.00    +0.000 A 
ATOM     14  C   UNK A   0       1.811   8.271  19.257  0.00  0.00    +0.000 A 
ATOM     15  C   UNK A   0       1.339   8.925  18.114  0.00  0.00    +0.000 A 
ATOM     16  C   UNK A   0       0.440  10.001  18.215  0.00  0.00    +0.000 A 
ATOM     17  C   UNK A   0      -0.011  10.436  19.462  0.00  0.00    +0.000 A 
BRANCH   7  18
ATOM     18  C   UNK A   0      -1.488  12.359  18.501  0.00  0.00    +0.000 C 
BRANCH  18  20
ATOM     19  C   UNK A   0      -3.895  11.628  18.375  0.00  0.00    +0.000 C 
ATOM     20  C   UNK A   0      -2.536  11.596  17.694  0.00  0.00    +0.000 C 
ENDBRANCH  18  20
ENDBRANCH   7  18
ENDBRANCH   6  14
ENDBRANCH   5   6
ENDBRANCH   1   5
BRANCH   3  21
ATOM     21  CA  TRP A   1       3.896   3.009  17.989  0.00  0.00    +0.000 C 
BRANCH  21  22
ATOM     22  C   TRP A   1       4.275   1.838  18.921  0.00  0.00    +0.000 C 
ATOM     23  O   TRP A   1       4.689   1.986  20.066  0.00  0.00    +0.000 OA
BRANCH  22  24
ATOM     24  OXT TRP A   1       4.064   0.605  18.404  0.00  0.00    +0.000 OA
ATOM     25  HXT TRP A   1       4.269   0.507  17.457  0.00  0.00    +0.000 HD
ENDBRANCH  22  24
ENDBRANCH  21  22
BRANCH  21  26
ATOM     26  CB  TRP A   1       4.956   3.241  16.885  0.00  0.00    +0.000 C 
BRANCH  26  27
ATOM     27  CG  TRP A   1       5.402   4.668  16.776  0.00  0.00    +0.000 A 
ATOM     28  CD1 TRP A   1       4.840   5.624  15.950  0.00  0.00    +0.000 A 
ATOM     29  NE1 TRP A   1       5.699   6.687  15.909  0.00  0.00    +0.000 N 
ATOM     30  CE2 TRP A   1       6.586   6.602  16.953  0.00  0.00    +0.000 A 
ATOM     31  CZ2 TRP A   1       7.502   7.547  17.424  0.00  0.00    +0.000 A 
ATOM     32  CH2 TRP A   1       8.193   7.238  18.596  0.00  0.00    +0.000 A 
ATOM     33  CZ3 TRP A   1       8.027   6.004  19.221  0.00  0.00    +0.000 A 
ATOM     34  CE3 TRP A   1       7.174   5.031  18.679  0.00  0.00    +0.000 A 
ATOM     35  CD2 TRP A   1       6.410   5.347  17.537  0.00  0.00    +0.000 A 
ATOM     36  HE1 TRP A   1       5.625   7.474  15.279  0.00  0.00    +0.000 HD
ENDBRANCH  26  27
ENDBRANCH  21  26
ENDBRANCH   3  21
TORSDOF 10
ENDMDL
MODEL 8
REMARK VINA RESULT:      -8.3      5.934      8.937
REMARK  Name = 
REMARK  11 active torsions:
REMARK  status: ('A' for Active; 'I' for Inactive)
REMARK    1  A    between atoms: C_1  and  C_2
REMARK    2  A    between atoms: C_2  and  C_3
REMARK    3  A    between atoms: C_3  and  C_4
REMARK    4  A    between atoms: C_11  and  O_12
REMARK    5  A    between atoms: O_12  and  C_13
REMARK    6  A    between atoms: C_13  and  C_14
REMARK    7  A    between atoms: N_16  and  CA_17
REMARK    8  A    between atoms: CA_17  and  CB_18
REMARK    9  A    between atoms: CA_17  and  C_28
REMARK   10  A    between atoms: CB_18  and  CG_19
REMARK   11  A    between atoms: C_28  and  OXT_30
REMARK                            x       y       z     vdW  Elec       q    Type
REMARK                         _______ _______ _______ _____ _____    ______ ____
ROOT
ATOM      1  C   UNK A   0       2.031   4.546  19.896  0.00  0.00    +0.000 C 
ATOM      2  O   UNK A   0       1.038   3.839  19.735  0.00  0.00    +0.000 OA
ATOM      3  N   TRP A   1       3.244   4.269  19.320  0.00  0.00    +0.000 N 
ATOM      4  H   TRP A   1       4.038   4.861  19.563  0.00  0.00    +0.000 HD
ENDROOT
BRANCH   1   5
ATOM      5  C   UNK A   0       1.980   5.866  20.668  0.00  0.00    +0.000 C 
BRANCH   5   6
ATOM      6  O   UNK A   0       2.230   6.985  19.820  0.00  0.00    +0.000 OA
BRANCH   6  14
ATOM      7  C   UNK A   0      -0.509  11.720  21.355  0.00  0.00    +0.000 A 
ATOM      8  C   UNK A   0      -0.697  12.643  20.405  0.00  0.00    +0.000 A 
ATOM      9  C   UNK A   0      -0.264  12.479  19.009  0.00  0.00    +0.000 A 
ATOM     10  O   UNK A   0      -0.422  13.380  18.192  0.00  0.00    +0.000 OA
ATOM     11  O   UNK A   0       0.304  11.267  18.675  0.00  0.00    +0.000 OA
ATOM     12  C   UNK A   0       0.549  10.282  19.654  0.00  0.00    +0.000 A 
ATOM     13  C   UNK A   0       1.208   9.134  19.206  0.00  0.00    +0.000 A 
ATOM     14  C   UNK A   0       1.546   8.135  20.111  0.00  0.00    +0.000 A 
ATOM     15  C   UNK A   0       1.182   8.294  21.452  0.00  0.00    +0.000 A 
ATOM     16  C   UNK A   0       0.503   9.446  21.886  0.00  0.00    +0.000 A 
ATOM     17  C   UNK A   0       0.184  10.465  20.987  0.00  0.00    +0.000 A 
BRANCH   7  18
ATOM     18  C   UNK A   0      -1.005  11.959  22.763  0.00  0.00    +0.000 C 
BRANCH  18  20
ATOM     19  C   UNK A   0      -3.378  12.265  23.551  0.00  0.00    +0.000 C 
ATOM     20  C   UNK A   0      -2.218  12.887  22.789  0.00  0.00    +0.000 C 
ENDBRANCH  18  20
ENDBRANCH   7  18
ENDBRANCH   6  14
ENDBRANCH   5   6
ENDBRANCH   1   5
BRANCH   3  21
ATOM     21  CA  TRP A   1       3.503   3.124  18.442  0.00  0.00    +0.000 C 
BRANCH  21  22
ATOM     22  C   TRP A   1       4.287   2.081  19.266  0.00  0.00    +0.000 C 
ATOM     23  O   TRP A   1       4.868   2.340  20.315  0.00  0.00    +0.000 OA
BRANCH  22  24
ATOM     24  OXT TRP A   1       4.245   0.818  18.779  0.00  0.00    +0.000 OA
ATOM     25  HXT TRP A   1       4.495   0.722  17.843  0.00  0.00    +0.000 HD
ENDBRANCH  22  24
ENDBRANCH  21  22
BRANCH  21  26
ATOM     26  CB  TRP A   1       4.235   3.498  17.130  0.00  0.00    +0.000 C 
BRANCH  26  27
ATOM     27  CG  TRP A   1       4.789   4.890  17.132  0.00  0.00    +0.000 A 
ATOM     28  CD1 TRP A   1       4.160   6.006  16.612  0.00  0.00    +0.000 A 
ATOM     29  NE1 TRP A   1       5.093   7.003  16.529  0.00  0.00    +0.000 N 
ATOM     30  CE2 TRP A   1       6.175   6.686  17.312  0.00  0.00    +0.000 A 
ATOM     31  CZ2 TRP A   1       7.263   7.477  17.690  0.00  0.00    +0.000 A 
ATOM     32  CH2 TRP A   1       8.160   6.931  18.609  0.00  0.00    +0.000 A 
ATOM     33  CZ3 TRP A   1       8.011   5.623  19.066  0.00  0.00    +0.000 A 
ATOM     34  CE3 TRP A   1       6.965   4.813  18.600  0.00  0.00    +0.000 A 
ATOM     35  CD2 TRP A   1       6.004   5.365  17.728  0.00  0.00    +0.000 A 
ATOM     36  HE1 TRP A   1       4.963   7.887  16.057  0.00  0.00    +0.000 HD
ENDBRANCH  26  27
ENDBRANCH  21  26
ENDBRANCH   3  21
TORSDOF 10
ENDMDL
MODEL 9
REMARK VINA RESULT:      -8.2      6.279      7.697
REMARK  Name = 
REMARK  11 active torsions:
REMARK  status: ('A' for Active; 'I' for Inactive)
REMARK    1  A    between atoms: C_1  and  C_2
REMARK    2  A    between atoms: C_2  and  C_3
REMARK    3  A    between atoms: C_3  and  C_4
REMARK    4  A    between atoms: C_11  and  O_12
REMARK    5  A    between atoms: O_12  and  C_13
REMARK    6  A    between atoms: C_13  and  C_14
REMARK    7  A    between atoms: N_16  and  CA_17
REMARK    8  A    between atoms: CA_17  and  CB_18
REMARK    9  A    between atoms: CA_17  and  C_28
REMARK   10  A    between atoms: CB_18  and  CG_19
REMARK   11  A    between atoms: C_28  and  OXT_30
REMARK                            x       y       z     vdW  Elec       q    Type
REMARK                         _______ _______ _______ _____ _____    ______ ____
ROOT
ATOM      1  C   UNK A   0       5.194   6.810  17.256  0.00  0.00    +0.000 C 
ATOM      2  O   UNK A   0       6.364   7.062  17.533  0.00  0.00    +0.000 OA
ATOM      3  N   TRP A   1       4.750   5.542  16.977  0.00  0.00    +0.000 N 
ATOM      4  H   TRP A   1       3.781   5.427  16.681  0.00  0.00    +0.000 HD
ENDROOT
BRANCH   1   5
ATOM      5  C   UNK A   0       4.094   7.873  17.300  0.00  0.00    +0.000 C 
BRANCH   5   6
ATOM      6  O   UNK A   0       2.856   7.334  17.761  0.00  0.00    +0.000 OA
BRANCH   6  14
ATOM      7  C   UNK A   0      -0.613  10.840  20.582  0.00  0.00    +0.000 A 
ATOM      8  C   UNK A   0      -0.665  10.696  21.910  0.00  0.00    +0.000 A 
ATOM      9  C   UNK A   0       0.138   9.717  22.660  0.00  0.00    +0.000 A 
ATOM     10  O   UNK A   0       0.014   9.600  23.873  0.00  0.00    +0.000 OA
ATOM     11  O   UNK A   0       1.035   8.965  21.930  0.00  0.00    +0.000 OA
ATOM     12  C   UNK A   0       1.096   9.064  20.524  0.00  0.00    +0.000 A 
ATOM     13  C   UNK A   0       1.983   8.186  19.895  0.00  0.00    +0.000 A 
ATOM     14  C   UNK A   0       2.069   8.169  18.507  0.00  0.00    +0.000 A 
ATOM     15  C   UNK A   0       1.279   9.063  17.777  0.00  0.00    +0.000 A 
ATOM     16  C   UNK A   0       0.403   9.952  18.424  0.00  0.00    +0.000 A 
ATOM     17  C   UNK A   0       0.295   9.956  19.815  0.00  0.00    +0.000 A 
BRANCH   7  18
ATOM     18  C   UNK A   0      -1.457  11.887  19.891  0.00  0.00    +0.000 C 
BRANCH  18  20
ATOM     19  C   UNK A   0      -1.138  14.246  20.716  0.00  0.00    +0.000 C 
ATOM     20  C   UNK A   0      -0.697  13.199  19.706  0.00  0.00    +0.000 C 
ENDBRANCH  18  20
ENDBRANCH   7  18
ENDBRANCH   6  14
ENDBRANCH   5   6
ENDBRANCH   1   5
BRANCH   3  21
ATOM     21  CA  TRP A   1       5.597   4.346  16.990  0.00  0.00    +0.000 C 
BRANCH  21  22
ATOM     22  C   TRP A   1       6.388   4.328  15.665  0.00  0.00    +0.000 C 
ATOM     23  O   TRP A   1       7.561   4.672  15.567  0.00  0.00    +0.000 OA
BRANCH  22  24
ATOM     24  OXT TRP A   1       5.707   3.842  14.600  0.00  0.00    +0.000 OA
ATOM     25  HXT TRP A   1       5.440   4.502  13.936  0.00  0.00    +0.000 HD
ENDBRANCH  22  24
ENDBRANCH  21  22
BRANCH  21  26
ATOM     26  CB  TRP A   1       4.813   3.030  17.218  0.00  0.00    +0.000 C 
BRANCH  26  27
ATOM     27  CG  TRP A   1       3.434   3.244  17.765  0.00  0.00    +0.000 A 
ATOM     28  CD1 TRP A   1       2.308   3.532  17.017  0.00  0.00    +0.000 A 
ATOM     29  NE1 TRP A   1       1.336   3.951  17.882  0.00  0.00    +0.000 N 
ATOM     30  CE2 TRP A   1       1.672   3.589  19.163  0.00  0.00    +0.000 A 
ATOM     31  CZ2 TRP A   1       0.905   3.627  20.330  0.00  0.00    +0.000 A 
ATOM     32  CH2 TRP A   1       1.465   3.069  21.481  0.00  0.00    +0.000 A 
ATOM     33  CZ3 TRP A   1       2.764   2.567  21.473  0.00  0.00    +0.000 A 
ATOM     34  CE3 TRP A   1       3.553   2.625  20.315  0.00  0.00    +0.000 A 
ATOM     35  CD2 TRP A   1       2.985   3.117  19.121  0.00  0.00    +0.000 A 
ATOM     36  HE1 TRP A   1       0.453   4.363  17.613  0.00  0.00    +0.000 HD
ENDBRANCH  26  27
ENDBRANCH  21  26
ENDBRANCH   3  21
TORSDOF 10
ENDMDL
