MODEL 1
REMARK VINA RESULT:      -8.8      0.000      0.000
REMARK  Name = 
REMARK  12 active torsions:
REMARK  status: ('A' for Active; 'I' for Inactive)
REMARK    1  A    between atoms: C_2  and  C_3
REMARK    2  A    between atoms: C_3  and  C_4
REMARK    3  A    between atoms: C_4  and  C_5
REMARK    4  A    between atoms: C_5  and  C_6
REMARK    5  A    between atoms: C_6  and  C_7
REMARK    6  A    between atoms: C_7  and  C_8
REMARK    7  A    between atoms: C_8  and  N_9
REMARK    8  A    between atoms: C_10  and  C_12
REMARK    9  A    between atoms: C_15  and  C_16
REMARK   10  A    between atoms: C_16  and  C_17
REMARK   11  A    between atoms: C_16  and  C_23
REMARK   12  A    between atoms: N_31  and  O_32
REMARK                            x       y       z     vdW  Elec       q    Type
REMARK                         _______ _______ _______ _____ _____    ______ ____
ROOT
ATOM      1  C   UNL     1       1.405   9.056  19.394  0.00  0.00    +0.000 A 
ATOM      2  C   UNL     1       1.776   7.955  20.176  0.00  0.00    +0.000 A 
ATOM      3  C   UNL     1       2.523   6.917  19.614  0.00  0.00    +0.000 A 
ATOM      4  C   UNL     1       2.900   6.962  18.262  0.00  0.00    +0.000 A 
ATOM      5  C   UNL     1       2.516   8.077  17.490  0.00  0.00    +0.000 A 
ATOM      6  C   UNL     1       1.771   9.112  18.050  0.00  0.00    +0.000 A 
ENDROOT
BRANCH   1   8
ATOM      7  N   UNL     1       0.411  11.245  19.118  0.00  0.00    +0.000 N 
ATOM      8  C   UNL     1       0.592  10.164  19.951  0.00  0.00    +0.000 C 
ATOM      9  O   UNL     1       0.125  10.082  21.080  0.00  0.00    +0.000 OA
ATOM     10  H   UNL     1       0.778  11.221  18.176  0.00  0.00    +0.000 HD
BRANCH   7  11
ATOM     11  C   UNL     1      -0.354  12.406  19.523  0.00  0.00    +0.000 C 
BRANCH  11  12
ATOM     12  C   UNL     1      -1.679  12.506  18.771  0.00  0.00    +0.000 C 
BRANCH  12  13
ATOM     13  C   UNL     1      -2.883  12.166  19.656  0.00  0.00    +0.000 C 
BRANCH  13  14
ATOM     14  C   UNL     1      -4.172  11.957  18.854  0.00  0.00    +0.000 C 
BRANCH  14  15
ATOM     15  C   UNL     1      -4.159  10.752  17.908  0.00  0.00    +0.000 C 
BRANCH  15  16
ATOM     16  C   UNL     1      -4.309  11.142  16.441  0.00  0.00    +0.000 C 
BRANCH  16  18
ATOM     17  O   UNL     1      -2.135  10.173  16.054  0.00  0.00    +0.000 OA
ATOM     18  C   UNL     1      -3.225  10.516  15.598  0.00  0.00    +0.000 C 
ATOM     19  N   UNL     1      -3.561  10.332  14.281  0.00  0.00    +0.000 N 
ATOM     20  H   UNL     1      -4.377  10.731  13.824  0.00  0.00    +0.000 HD
BRANCH  19  21
ATOM     21  O   UNL     1      -2.542   9.824  13.445  0.00  0.00    +0.000 OA
ATOM     22  H   UNL     1      -3.032   9.183  12.884  0.00  0.00    +0.000 HD
ENDBRANCH  19  21
ENDBRANCH  16  18
ENDBRANCH  15  16
ENDBRANCH  14  15
ENDBRANCH  13  14
ENDBRANCH  12  13
ENDBRANCH  11  12
ENDBRANCH   7  11
ENDBRANCH   1   8
BRANCH   4  23
ATOM     23  C   UNL     1       3.640   5.774  17.628  0.00  0.00    +0.000 C 
BRANCH  23  24
ATOM     24  C   UNL     1       5.142   5.894  17.928  0.00  0.00    +0.000 A 
ATOM     25  C   UNL     1       5.722   5.317  19.070  0.00  0.00    +0.000 A 
ATOM     26  C   UNL     1       7.050   5.586  19.406  0.00  0.00    +0.000 A 
ATOM     27  C   UNL     1       7.818   6.425  18.603  0.00  0.00    +0.000 A 
ATOM     28  C   UNL     1       7.267   6.985  17.454  0.00  0.00    +0.000 A 
ATOM     29  C   UNL     1       5.938   6.723  17.118  0.00  0.00    +0.000 A 
ENDBRANCH  23  24
BRANCH  23  30
ATOM     30  C   UNL     1       3.034   4.384  17.894  0.00  0.00    +0.000 A 
ATOM     31  C   UNL     1       3.736   3.183  17.704  0.00  0.00    +0.000 A 
ATOM     32  C   UNL     1       3.130   1.950  17.952  0.00  0.00    +0.000 A 
ATOM     33  C   UNL     1       1.820   1.889  18.412  0.00  0.00    +0.000 A 
ATOM     34  C   UNL     1       1.111   3.067  18.628  0.00  0.00    +0.000 A 
ATOM     35  C   UNL     1       1.712   4.302  18.376  0.00  0.00    +0.000 A 
ENDBRANCH  23  30
ENDBRANCH   4  23
TORSDOF 12
ENDMDL
MODEL 2
REMARK VINA RESULT:      -8.7      1.354      3.717
REMARK  Name = 
REMARK  12 active torsions:
REMARK  status: ('A' for Active; 'I' for Inactive)
REMARK    1  A    between atoms: C_2  and  C_3
REMARK    2  A    between atoms: C_3  and  C_4
REMARK    3  A    between atoms: C_4  and  C_5
REMARK    4  A    between atoms: C_5  and  C_6
REMARK    5  A    between atoms: C_6  and  C_7
REMARK    6  A    between atoms: C_7  and  C_8
REMARK    7  A    between atoms: C_8  and  N_9
REMARK    8  A    between atoms: C_10  and  C_12
REMARK    9  A    between atoms: C_15  and  C_16
REMARK   10  A    between atoms: C_16  and  C_17
REMARK   11  A    between atoms: C_16  and  C_23
REMARK   12  A    between atoms: N_31  and  O_32
REMARK                            x       y       z     vdW  Elec       q    Type
REMARK                         _______ _______ _______ _____ _____    ______ ____
ROOT
ATOM      1  C   UNL     1       1.046   9.294  19.446  0.00  0.00    +0.000 A 
ATOM      2  C   UNL     1       1.279   8.538  20.602  0.00  0.00    +0.000 A 
ATOM      3  C   UNL     1       2.097   7.406  20.545  0.00  0.00    +0.000 A 
ATOM      4  C   UNL     1       2.682   7.011  19.332  0.00  0.00    +0.000 A 
ATOM      5  C   UNL     1       2.434   7.783  18.179  0.00  0.00    +0.000 A 
ATOM      6  C   UNL     1       1.619   8.911  18.234  0.00  0.00    +0.000 A 
ENDROOT
BRANCH   1   8
ATOM      7  N   UNL     1      -0.274  10.920  18.234  0.00  0.00    +0.000 N 
ATOM      8  C   UNL     1       0.164  10.486  19.465  0.00  0.00    +0.000 C 
ATOM      9  O   UNL     1      -0.136  11.017  20.527  0.00  0.00    +0.000 OA
ATOM     10  H   UNL     1      -0.032  10.399  17.402  0.00  0.00    +0.000 HD
BRANCH   7  11
ATOM     11  C   UNL     1      -1.135  12.075  18.090  0.00  0.00    +0.000 C 
BRANCH  11  12
ATOM     12  C   UNL     1      -2.604  11.679  17.976  0.00  0.00    +0.000 C 
BRANCH  12  13
ATOM     13  C   UNL     1      -2.796  10.165  17.844  0.00  0.00    +0.000 C 
BRANCH  13  14
ATOM     14  C   UNL     1      -3.720   9.778  16.684  0.00  0.00    +0.000 C 
BRANCH  14  15
ATOM     15  C   UNL     1      -3.022   9.594  15.333  0.00  0.00    +0.000 C 
BRANCH  15  16
ATOM     16  C   UNL     1      -3.639  10.436  14.220  0.00  0.00    +0.000 C 
BRANCH  16  18
ATOM     17  O   UNL     1      -2.342   9.328  12.516  0.00  0.00    +0.000 OA
ATOM     18  C   UNL     1      -3.423   9.797  12.871  0.00  0.00    +0.000 C 
ATOM     19  N   UNL     1      -4.540   9.754  12.075  0.00  0.00    +0.000 N 
ATOM     20  H   UNL     1      -5.406  10.255  12.254  0.00  0.00    +0.000 HD
BRANCH  19  21
ATOM     21  O   UNL     1      -4.355   9.236  10.773  0.00  0.00    +0.000 OA
ATOM     22  H   UNL     1      -3.789   8.450  10.939  0.00  0.00    +0.000 HD
ENDBRANCH  19  21
ENDBRANCH  16  18
ENDBRANCH  15  16
ENDBRANCH  14  15
ENDBRANCH  13  14
ENDBRANCH  12  13
ENDBRANCH  11  12
ENDBRANCH   7  11
ENDBRANCH   1   8
BRANCH   4  23
ATOM     23  C   UNL     1       3.502   5.714  19.258  0.00  0.00    +0.000 C 
BRANCH  23  24
ATOM     24  C   UNL     1       2.551   4.525  19.054  0.00  0.00    +0.000 A 
ATOM     25  C   UNL     1       1.481   4.269  19.928  0.00  0.00    +0.000 A 
ATOM     26  C   UNL     1       0.741   3.090  19.820  0.00  0.00    +0.000 A 
ATOM     27  C   UNL     1       1.053   2.157  18.835  0.00  0.00    +0.000 A 
ATOM     28  C   UNL     1       2.094   2.406  17.944  0.00  0.00    +0.000 A 
ATOM     29  C   UNL     1       2.840   3.580  18.053  0.00  0.00    +0.000 A 
ENDBRANCH  23  24
BRANCH  23  30
ATOM     30  C   UNL     1       4.721   5.740  18.318  0.00  0.00    +0.000 A 
ATOM     31  C   UNL     1       4.638   6.038  16.948  0.00  0.00    +0.000 A 
ATOM     32  C   UNL     1       5.778   6.035  16.142  0.00  0.00    +0.000 A 
ATOM     33  C   UNL     1       7.025   5.756  16.688  0.00  0.00    +0.000 A 
ATOM     34  C   UNL     1       7.136   5.479  18.047  0.00  0.00    +0.000 A 
ATOM     35  C   UNL     1       5.997   5.475  18.855  0.00  0.00    +0.000 A 
ENDBRANCH  23  30
ENDBRANCH   4  23
TORSDOF 12
ENDMDL
MODEL 3
REMARK VINA RESULT:      -8.7      1.107      1.535
REMARK  Name = 
REMARK  12 active torsions:
REMARK  status: ('A' for Active; 'I' for Inactive)
REMARK    1  A    between atoms: C_2  and  C_3
REMARK    2  A    between atoms: C_3  and  C_4
REMARK    3  A    between atoms: C_4  and  C_5
REMARK    4  A    between atoms: C_5  and  C_6
REMARK    5  A    between atoms: C_6  and  C_7
REMARK    6  A    between atoms: C_7  and  C_8
REMARK    7  A    between atoms: C_8  and  N_9
REMARK    8  A    between atoms: C_10  and  C_12
REMARK    9  A    between atoms: C_15  and  C_16
REMARK   10  A    between atoms: C_16  and  C_17
REMARK   11  A    between atoms: C_16  and  C_23
REMARK   12  A    between atoms: N_31  and  O_32
REMARK                            x       y       z     vdW  Elec       q    Type
REMARK                         _______ _______ _______ _____ _____    ______ ____
ROOT
ATOM      1  C   UNL     1       1.102   9.053  19.870  0.00  0.00    +0.000 A 
ATOM      2  C   UNL     1       1.531   7.929  20.587  0.00  0.00    +0.000 A 
ATOM      3  C   UNL     1       2.292   6.943  19.952  0.00  0.00    +0.000 A 
ATOM      4  C   UNL     1       2.624   7.064  18.594  0.00  0.00    +0.000 A 
ATOM      5  C   UNL     1       2.181   8.202  17.889  0.00  0.00    +0.000 A 
ATOM      6  C   UNL     1       1.423   9.185  18.520  0.00  0.00    +0.000 A 
ENDROOT
BRANCH   1   8
ATOM      7  N   UNL     1      -0.324  10.995  19.639  0.00  0.00    +0.000 N 
ATOM      8  C   UNL     1       0.273  10.106  20.505  0.00  0.00    +0.000 C 
ATOM      9  O   UNL     1       0.148  10.145  21.722  0.00  0.00    +0.000 OA
ATOM     10  H   UNL     1      -0.222  10.869  18.641  0.00  0.00    +0.000 HD
BRANCH   7  11
ATOM     11  C   UNL     1      -1.157  12.082  20.109  0.00  0.00    +0.000 C 
BRANCH  11  12
ATOM     12  C   UNL     1      -2.247  12.439  19.103  0.00  0.00    +0.000 C 
BRANCH  12  13
ATOM     13  C   UNL     1      -1.996  11.824  17.722  0.00  0.00    +0.000 C 
BRANCH  13  14
ATOM     14  C   UNL     1      -2.777  10.525  17.495  0.00  0.00    +0.000 C 
BRANCH  14  15
ATOM     15  C   UNL     1      -2.647   9.928  16.090  0.00  0.00    +0.000 C 
BRANCH  15  16
ATOM     16  C   UNL     1      -3.933  10.027  15.276  0.00  0.00    +0.000 C 
BRANCH  16  18
ATOM     17  O   UNL     1      -4.535   9.948  12.942  0.00  0.00    +0.000 OA
ATOM     18  C   UNL     1      -3.655   9.887  13.800  0.00  0.00    +0.000 C 
ATOM     19  N   UNL     1      -2.332   9.712  13.483  0.00  0.00    +0.000 N 
ATOM     20  H   UNL     1      -1.593   9.503  14.149  0.00  0.00    +0.000 HD
BRANCH  19  21
ATOM     21  O   UNL     1      -2.044   9.495  12.117  0.00  0.00    +0.000 OA
ATOM     22  H   UNL     1      -2.527  10.233  11.682  0.00  0.00    +0.000 HD
ENDBRANCH  19  21
ENDBRANCH  16  18
ENDBRANCH  15  16
ENDBRANCH  14  15
ENDBRANCH  13  14
ENDBRANCH  12  13
ENDBRANCH  11  12
ENDBRANCH   7  11
ENDBRANCH   1   8
BRANCH   4  23
ATOM     23  C   UNL     1       3.379   5.932  17.881  0.00  0.00    +0.000 C 
BRANCH  23  24
ATOM     24  C   UNL     1       4.887   6.096  18.126  0.00  0.00    +0.000 A 
ATOM     25  C   UNL     1       5.711   6.816  17.245  0.00  0.00    +0.000 A 
ATOM     26  C   UNL     1       7.098   6.804  17.398  0.00  0.00    +0.000 A 
ATOM     27  C   UNL     1       7.680   6.083  18.437  0.00  0.00    +0.000 A 
ATOM     28  C   UNL     1       6.877   5.384  19.336  0.00  0.00    +0.000 A 
ATOM     29  C   UNL     1       5.490   5.389  19.182  0.00  0.00    +0.000 A 
ENDBRANCH  23  24
BRANCH  23  30
ATOM     30  C   UNL     1       2.835   4.511  18.110  0.00  0.00    +0.000 A 
ATOM     31  C   UNL     1       3.120   3.425  17.266  0.00  0.00    +0.000 A 
ATOM     32  C   UNL     1       2.588   2.160  17.518  0.00  0.00    +0.000 A 
ATOM     33  C   UNL     1       1.779   1.945  18.627  0.00  0.00    +0.000 A 
ATOM     34  C   UNL     1       1.499   2.999  19.490  0.00  0.00    +0.000 A 
ATOM     35  C   UNL     1       2.025   4.269  19.237  0.00  0.00    +0.000 A 
ENDBRANCH  23  30
ENDBRANCH   4  23
TORSDOF 12
ENDMDL
MODEL 4
REMARK VINA RESULT:      -8.7      1.521      1.836
REMARK  Name = 
REMARK  12 active torsions:
REMARK  status: ('A' for Active; 'I' for Inactive)
REMARK    1  A    between atoms: C_2  and  C_3
REMARK    2  A    between atoms: C_3  and  C_4
REMARK    3  A    between atoms: C_4  and  C_5
REMARK    4  A    between atoms: C_5  and  C_6
REMARK    5  A    between atoms: C_6  and  C_7
REMARK    6  A    between atoms: C_7  and  C_8
REMARK    7  A    between atoms: C_8  and  N_9
REMARK    8  A    between atoms: C_10  and  C_12
REMARK    9  A    between atoms: C_15  and  C_16
REMARK   10  A    between atoms: C_16  and  C_17
REMARK   11  A    between atoms: C_16  and  C_23
REMARK   12  A    between atoms: N_31  and  O_32
REMARK                            x       y       z     vdW  Elec       q    Type
REMARK                         _______ _______ _______ _____ _____    ______ ____
ROOT
ATOM      1  C   UNL     1       1.259   9.242  19.835  0.00  0.00    +0.000 A 
ATOM      2  C   UNL     1       1.626   8.108  20.570  0.00  0.00    +0.000 A 
ATOM      3  C   UNL     1       2.271   7.041  19.937  0.00  0.00    +0.000 A 
ATOM      4  C   UNL     1       2.547   7.092  18.562  0.00  0.00    +0.000 A 
ATOM      5  C   UNL     1       2.168   8.240  17.838  0.00  0.00    +0.000 A 
ATOM      6  C   UNL     1       1.525   9.303  18.468  0.00  0.00    +0.000 A 
ENDROOT
BRANCH   1   8
ATOM      7  N   UNL     1       0.898  11.629  19.999  0.00  0.00    +0.000 N 
ATOM      8  C   UNL     1       0.553  10.381  20.469  0.00  0.00    +0.000 C 
ATOM      9  O   UNL     1      -0.279  10.184  21.344  0.00  0.00    +0.000 OA
ATOM     10  H   UNL     1       1.553  11.715  19.234  0.00  0.00    +0.000 HD
BRANCH   7  11
ATOM     11  C   UNL     1       0.300  12.839  20.524  0.00  0.00    +0.000 C 
BRANCH  11  12
ATOM     12  C   UNL     1      -0.688  13.459  19.540  0.00  0.00    +0.000 C 
BRANCH  12  13
ATOM     13  C   UNL     1      -1.891  12.552  19.263  0.00  0.00    +0.000 C 
BRANCH  13  14
ATOM     14  C   UNL     1      -1.803  11.839  17.909  0.00  0.00    +0.000 C 
BRANCH  14  15
ATOM     15  C   UNL     1      -2.156  10.348  17.937  0.00  0.00    +0.000 C 
BRANCH  15  16
ATOM     16  C   UNL     1      -3.339   9.997  17.039  0.00  0.00    +0.000 C 
BRANCH  16  18
ATOM     17  O   UNL     1      -5.060  10.625  18.606  0.00  0.00    +0.000 OA
ATOM     18  C   UNL     1      -4.587  10.723  17.475  0.00  0.00    +0.000 C 
ATOM     19  N   UNL     1      -5.143  11.530  16.514  0.00  0.00    +0.000 N 
ATOM     20  H   UNL     1      -4.887  11.530  15.530  0.00  0.00    +0.000 HD
BRANCH  19  21
ATOM     21  O   UNL     1      -6.358  12.161  16.860  0.00  0.00    +0.000 OA
ATOM     22  H   UNL     1      -6.997  11.735  16.248  0.00  0.00    +0.000 HD
ENDBRANCH  19  21
ENDBRANCH  16  18
ENDBRANCH  15  16
ENDBRANCH  14  15
ENDBRANCH  13  14
ENDBRANCH  12  13
ENDBRANCH  11  12
ENDBRANCH   7  11
ENDBRANCH   1   8
BRANCH   4  23
ATOM     23  C   UNL     1       3.169   5.877  17.856  0.00  0.00    +0.000 C 
BRANCH  23  24
ATOM     24  C   UNL     1       4.698   5.938  17.998  0.00  0.00    +0.000 A 
ATOM     25  C   UNL     1       5.375   5.293  19.046  0.00  0.00    +0.000 A 
ATOM     26  C   UNL     1       6.740   5.506  19.249  0.00  0.00    +0.000 A 
ATOM     27  C   UNL     1       7.447   6.356  18.404  0.00  0.00    +0.000 A 
ATOM     28  C   UNL     1       6.798   6.984  17.344  0.00  0.00    +0.000 A 
ATOM     29  C   UNL     1       5.433   6.778  17.141  0.00  0.00    +0.000 A 
ENDBRANCH  23  24
BRANCH  23  30
ATOM     30  C   UNL     1       2.540   4.511  18.184  0.00  0.00    +0.000 A 
ATOM     31  C   UNL     1       1.548   4.328  19.161  0.00  0.00    +0.000 A 
ATOM     32  C   UNL     1       1.022   3.062  19.422  0.00  0.00    +0.000 A 
ATOM     33  C   UNL     1       1.459   1.956  18.702  0.00  0.00    +0.000 A 
ATOM     34  C   UNL     1       2.425   2.116  17.714  0.00  0.00    +0.000 A 
ATOM     35  C   UNL     1       2.958   3.380  17.454  0.00  0.00    +0.000 A 
ENDBRANCH  23  30
ENDBRANCH   4  23
TORSDOF 12
ENDMDL
MODEL 5
REMARK VINA RESULT:      -8.6      1.333      2.026
REMARK  Name = 
REMARK  12 active torsions:
REMARK  status: ('A' for Active; 'I' for Inactive)
REMARK    1  A    between atoms: C_2  and  C_3
REMARK    2  A    between atoms: C_3  and  C_4
REMARK    3  A    between atoms: C_4  and  C_5
REMARK    4  A    between atoms: C_5  and  C_6
REMARK    5  A    between atoms: C_6  and  C_7
REMARK    6  A    between atoms: C_7  and  C_8
REMARK    7  A    between atoms: C_8  and  N_9
REMARK    8  A    between atoms: C_10  and  C_12
REMARK    9  A    between atoms: C_15  and  C_16
REMARK   10  A    between atoms: C_16  and  C_17
REMARK   11  A    between atoms: C_16  and  C_23
REMARK   12  A    between atoms: N_31  and  O_32
REMARK                            x       y       z     vdW  Elec       q    Type
REMARK                         _______ _______ _______ _____ _____    ______ ____
ROOT
ATOM      1  C   UNL     1       1.259   9.269  19.836  0.00  0.00    +0.000 A 
ATOM      2  C   UNL     1       1.516   9.322  18.460  0.00  0.00    +0.000 A 
ATOM      3  C   UNL     1       2.112   8.234  17.817  0.00  0.00    +0.000 A 
ATOM      4  C   UNL     1       2.468   7.087  18.542  0.00  0.00    +0.000 A 
ATOM      5  C   UNL     1       2.204   7.053  19.926  0.00  0.00    +0.000 A 
ATOM      6  C   UNL     1       1.610   8.136  20.568  0.00  0.00    +0.000 A 
ENDROOT
BRANCH   1   8
ATOM      7  N   UNL     1       0.938  11.659  20.042  0.00  0.00    +0.000 N 
ATOM      8  C   UNL     1       0.649  10.414  20.555  0.00  0.00    +0.000 C 
ATOM      9  O   UNL     1      -0.064  10.223  21.531  0.00  0.00    +0.000 OA
ATOM     10  H   UNL     1       1.489  11.739  19.198  0.00  0.00    +0.000 HD
BRANCH   7  11
ATOM     11  C   UNL     1       0.422  12.873  20.639  0.00  0.00    +0.000 C 
BRANCH  11  12
ATOM     12  C   UNL     1      -0.499  13.629  19.685  0.00  0.00    +0.000 C 
BRANCH  12  13
ATOM     13  C   UNL     1      -0.657  12.919  18.336  0.00  0.00    +0.000 C 
BRANCH  13  14
ATOM     14  C   UNL     1      -1.934  12.076  18.251  0.00  0.00    +0.000 C 
BRANCH  14  15
ATOM     15  C   UNL     1      -1.732  10.642  17.750  0.00  0.00    +0.000 C 
BRANCH  15  16
ATOM     16  C   UNL     1      -3.041   9.879  17.574  0.00  0.00    +0.000 C 
BRANCH  16  18
ATOM     17  O   UNL     1      -3.915  11.007  15.630  0.00  0.00    +0.000 OA
ATOM     18  C   UNL     1      -4.052  10.702  16.814  0.00  0.00    +0.000 C 
ATOM     19  N   UNL     1      -5.157  11.062  17.543  0.00  0.00    +0.000 N 
ATOM     20  H   UNL     1      -5.250  10.970  18.551  0.00  0.00    +0.000 HD
BRANCH  19  21
ATOM     21  O   UNL     1      -6.086  11.902  16.887  0.00  0.00    +0.000 OA
ATOM     22  H   UNL     1      -5.523  12.357  16.222  0.00  0.00    +0.000 HD
ENDBRANCH  19  21
ENDBRANCH  16  18
ENDBRANCH  15  16
ENDBRANCH  14  15
ENDBRANCH  13  14
ENDBRANCH  12  13
ENDBRANCH  11  12
ENDBRANCH   7  11
ENDBRANCH   1   8
BRANCH   4  23
ATOM     23  C   UNL     1       3.209   5.934  17.846  0.00  0.00    +0.000 C 
BRANCH  23  24
ATOM     24  C   UNL     1       4.719   6.085  18.086  0.00  0.00    +0.000 A 
ATOM     25  C   UNL     1       5.548   6.787  17.195  0.00  0.00    +0.000 A 
ATOM     26  C   UNL     1       6.936   6.763  17.344  0.00  0.00    +0.000 A 
ATOM     27  C   UNL     1       7.513   6.046  18.389  0.00  0.00    +0.000 A 
ATOM     28  C   UNL     1       6.705   5.365  19.297  0.00  0.00    +0.000 A 
ATOM     29  C   UNL     1       5.318   5.383  19.147  0.00  0.00    +0.000 A 
ENDBRANCH  23  24
BRANCH  23  30
ATOM     30  C   UNL     1       2.649   4.523  18.099  0.00  0.00    +0.000 A 
ATOM     31  C   UNL     1       3.107   3.375  17.433  0.00  0.00    +0.000 A 
ATOM     32  C   UNL     1       2.553   2.122  17.697  0.00  0.00    +0.000 A 
ATOM     33  C   UNL     1       1.546   1.983  18.644  0.00  0.00    +0.000 A 
ATOM     34  C   UNL     1       1.090   3.102  19.334  0.00  0.00    +0.000 A 
ATOM     35  C   UNL     1       1.638   4.359  19.067  0.00  0.00    +0.000 A 
ENDBRANCH  23  30
ENDBRANCH   4  23
TORSDOF 12
ENDMDL
MODEL 6
REMARK VINA RESULT:      -8.6      1.136      1.776
REMARK  Name = 
REMARK  12 active torsions:
REMARK  status: ('A' for Active; 'I' for Inactive)
REMARK    1  A    between atoms: C_2  and  C_3
REMARK    2  A    between atoms: C_3  and  C_4
REMARK    3  A    between atoms: C_4  and  C_5
REMARK    4  A    between atoms: C_5  and  C_6
REMARK    5  A    between atoms: C_6  and  C_7
REMARK    6  A    between atoms: C_7  and  C_8
REMARK    7  A    between atoms: C_8  and  N_9
REMARK    8  A    between atoms: C_10  and  C_12
REMARK    9  A    between atoms: C_15  and  C_16
REMARK   10  A    between atoms: C_16  and  C_17
REMARK   11  A    between atoms: C_16  and  C_23
REMARK   12  A    between atoms: N_31  and  O_32
REMARK                            x       y       z     vdW  Elec       q    Type
REMARK                         _______ _______ _______ _____ _____    ______ ____
ROOT
ATOM      1  C   UNL     1       1.262   9.036  20.105  0.00  0.00    +0.000 A 
ATOM      2  C   UNL     1       1.657   7.857  20.749  0.00  0.00    +0.000 A 
ATOM      3  C   UNL     1       2.321   6.857  20.034  0.00  0.00    +0.000 A 
ATOM      4  C   UNL     1       2.589   7.019  18.666  0.00  0.00    +0.000 A 
ATOM      5  C   UNL     1       2.182   8.211  18.034  0.00  0.00    +0.000 A 
ATOM      6  C   UNL     1       1.520   9.208  18.745  0.00  0.00    +0.000 A 
ENDROOT
BRANCH   1   8
ATOM      7  N   UNL     1       1.136  11.347  20.812  0.00  0.00    +0.000 N 
ATOM      8  C   UNL     1       0.535  10.108  20.827  0.00  0.00    +0.000 C 
ATOM      9  O   UNL     1      -0.529   9.868  21.382  0.00  0.00    +0.000 OA
ATOM     10  H   UNL     1       1.988  11.486  20.286  0.00  0.00    +0.000 HD
BRANCH   7  11
ATOM     11  C   UNL     1       0.551  12.491  21.479  0.00  0.00    +0.000 C 
BRANCH  11  12
ATOM     12  C   UNL     1      -0.362  13.286  20.549  0.00  0.00    +0.000 C 
BRANCH  12  13
ATOM     13  C   UNL     1       0.312  13.628  19.217  0.00  0.00    +0.000 C 
BRANCH  13  14
ATOM     14  C   UNL     1      -0.448  13.077  18.005  0.00  0.00    +0.000 C 
BRANCH  14  15
ATOM     15  C   UNL     1      -1.715  12.284  18.340  0.00  0.00    +0.000 C 
BRANCH  15  16
ATOM     16  C   UNL     1      -1.593  10.797  18.019  0.00  0.00    +0.000 C 
BRANCH  16  18
ATOM     17  O   UNL     1      -3.195   9.391  16.893  0.00  0.00    +0.000 OA
ATOM     18  C   UNL     1      -2.505  10.409  16.882  0.00  0.00    +0.000 C 
ATOM     19  N   UNL     1      -2.525  11.299  15.838  0.00  0.00    +0.000 N 
ATOM     20  H   UNL     1      -1.870  12.066  15.709  0.00  0.00    +0.000 HD
BRANCH  19  21
ATOM     21  O   UNL     1      -3.305  10.928  14.720  0.00  0.00    +0.000 OA
ATOM     22  H   UNL     1      -2.767  11.262  13.969  0.00  0.00    +0.000 HD
ENDBRANCH  19  21
ENDBRANCH  16  18
ENDBRANCH  15  16
ENDBRANCH  14  15
ENDBRANCH  13  14
ENDBRANCH  12  13
ENDBRANCH  11  12
ENDBRANCH   7  11
ENDBRANCH   1   8
BRANCH   4  23
ATOM     23  C   UNL     1       3.234   5.876  17.866  0.00  0.00    +0.000 C 
BRANCH  23  24
ATOM     24  C   UNL     1       4.762   5.968  17.994  0.00  0.00    +0.000 A 
ATOM     25  C   UNL     1       5.459   5.357  19.051  0.00  0.00    +0.000 A 
ATOM     26  C   UNL     1       6.821   5.599  19.239  0.00  0.00    +0.000 A 
ATOM     27  C   UNL     1       7.506   6.445  18.371  0.00  0.00    +0.000 A 
ATOM     28  C   UNL     1       6.837   7.039  17.303  0.00  0.00    +0.000 A 
ATOM     29  C   UNL     1       5.475   6.804  17.116  0.00  0.00    +0.000 A 
ENDBRANCH  23  24
BRANCH  23  30
ATOM     30  C   UNL     1       2.645   4.473  18.101  0.00  0.00    +0.000 A 
ATOM     31  C   UNL     1       1.486   4.235  18.856  0.00  0.00    +0.000 A 
ATOM     32  C   UNL     1       1.005   2.938  19.044  0.00  0.00    +0.000 A 
ATOM     33  C   UNL     1       1.657   1.855  18.466  0.00  0.00    +0.000 A 
ATOM     34  C   UNL     1       2.796   2.068  17.696  0.00  0.00    +0.000 A 
ATOM     35  C   UNL     1       3.283   3.364  17.511  0.00  0.00    +0.000 A 
ENDBRANCH  23  30
ENDBRANCH   4  23
TORSDOF 12
ENDMDL
MODEL 7
REMARK VINA RESULT:      -8.5      2.416      3.267
REMARK  Name = 
REMARK  12 active torsions:
REMARK  status: ('A' for Active; 'I' for Inactive)
REMARK    1  A    between atoms: C_2  and  C_3
REMARK    2  A    between atoms: C_3  and  C_4
REMARK    3  A    between atoms: C_4  and  C_5
REMARK    4  A    between atoms: C_5  and  C_6
REMARK    5  A    between atoms: C_6  and  C_7
REMARK    6  A    between atoms: C_7  and  C_8
REMARK    7  A    between atoms: C_8  and  N_9
REMARK    8  A    between atoms: C_10  and  C_12
REMARK    9  A    between atoms: C_15  and  C_16
REMARK   10  A    between atoms: C_16  and  C_17
REMARK   11  A    between atoms: C_16  and  C_23
REMARK   12  A    between atoms: N_31  and  O_32
REMARK                            x       y       z     vdW  Elec       q    Type
REMARK                         _______ _______ _______ _____ _____    ______ ____
ROOT
ATOM      1  C   UNL     1       1.375   9.397  19.526  0.00  0.00    +0.000 A 
ATOM      2  C   UNL     1       1.694   9.378  18.162  0.00  0.00    +0.000 A 
ATOM      3  C   UNL     1       2.274   8.241  17.595  0.00  0.00    +0.000 A 
ATOM      4  C   UNL     1       2.551   7.114  18.385  0.00  0.00    +0.000 A 
ATOM      5  C   UNL     1       2.225   7.152  19.756  0.00  0.00    +0.000 A 
ATOM      6  C   UNL     1       1.648   8.286  20.322  0.00  0.00    +0.000 A 
ENDROOT
BRANCH   1   8
ATOM      7  N   UNL     1       0.296  10.409  21.441  0.00  0.00    +0.000 N 
ATOM      8  C   UNL     1       0.781  10.596  20.166  0.00  0.00    +0.000 C 
ATOM      9  O   UNL     1       0.749  11.664  19.569  0.00  0.00    +0.000 OA
ATOM     10  H   UNL     1       0.407   9.512  21.895  0.00  0.00    +0.000 HD
BRANCH   7  11
ATOM     11  C   UNL     1      -0.319  11.483  22.193  0.00  0.00    +0.000 C 
BRANCH  11  12
ATOM     12  C   UNL     1      -1.415  10.971  23.124  0.00  0.00    +0.000 C 
BRANCH  12  13
ATOM     13  C   UNL     1      -2.545  11.988  23.315  0.00  0.00    +0.000 C 
BRANCH  13  14
ATOM     14  C   UNL     1      -2.074  13.439  23.171  0.00  0.00    +0.000 C 
BRANCH  14  15
ATOM     15  C   UNL     1      -2.760  14.235  22.055  0.00  0.00    +0.000 C 
BRANCH  15  16
ATOM     16  C   UNL     1      -1.805  14.642  20.937  0.00  0.00    +0.000 C 
BRANCH  16  18
ATOM     17  O   UNL     1      -2.610  12.688  19.776  0.00  0.00    +0.000 OA
ATOM     18  C   UNL     1      -1.855  13.659  19.794  0.00  0.00    +0.000 C 
ATOM     19  N   UNL     1      -1.005  13.948  18.756  0.00  0.00    +0.000 N 
ATOM     20  H   UNL     1      -0.260  14.639  18.784  0.00  0.00    +0.000 HD
BRANCH  19  21
ATOM     21  O   UNL     1      -0.966  13.004  17.705  0.00  0.00    +0.000 OA
ATOM     22  H   UNL     1      -0.937  12.151  18.192  0.00  0.00    +0.000 HD
ENDBRANCH  19  21
ENDBRANCH  16  18
ENDBRANCH  15  16
ENDBRANCH  14  15
ENDBRANCH  13  14
ENDBRANCH  12  13
ENDBRANCH  11  12
ENDBRANCH   7  11
ENDBRANCH   1   8
BRANCH   4  23
ATOM     23  C   UNL     1       3.275   5.904  17.774  0.00  0.00    +0.000 C 
BRANCH  23  24
ATOM     24  C   UNL     1       4.784   6.036  18.026  0.00  0.00    +0.000 A 
ATOM     25  C   UNL     1       5.643   6.655  17.102  0.00  0.00    +0.000 A 
ATOM     26  C   UNL     1       7.027   6.609  17.274  0.00  0.00    +0.000 A 
ATOM     27  C   UNL     1       7.572   5.954  18.376  0.00  0.00    +0.000 A 
ATOM     28  C   UNL     1       6.736   5.357  19.316  0.00  0.00    +0.000 A 
ATOM     29  C   UNL     1       5.352   5.396  19.143  0.00  0.00    +0.000 A 
ENDBRANCH  23  24
BRANCH  23  30
ATOM     30  C   UNL     1       2.679   4.524  18.107  0.00  0.00    +0.000 A 
ATOM     31  C   UNL     1       1.602   4.336  18.987  0.00  0.00    +0.000 A 
ATOM     32  C   UNL     1       1.111   3.058  19.259  0.00  0.00    +0.000 A 
ATOM     33  C   UNL     1       1.670   1.943  18.645  0.00  0.00    +0.000 A 
ATOM     34  C   UNL     1       2.725   2.106  17.752  0.00  0.00    +0.000 A 
ATOM     35  C   UNL     1       3.222   3.383  17.482  0.00  0.00    +0.000 A 
ENDBRANCH  23  30
ENDBRANCH   4  23
TORSDOF 12
ENDMDL
MODEL 8
REMARK VINA RESULT:      -8.5      2.611      4.384
REMARK  Name = 
REMARK  12 active torsions:
REMARK  status: ('A' for Active; 'I' for Inactive)
REMARK    1  A    between atoms: C_2  and  C_3
REMARK    2  A    between atoms: C_3  and  C_4
REMARK    3  A    between atoms: C_4  and  C_5
REMARK    4  A    between atoms: C_5  and  C_6
REMARK    5  A    between atoms: C_6  and  C_7
REMARK    6  A    between atoms: C_7  and  C_8
REMARK    7  A    between atoms: C_8  and  N_9
REMARK    8  A    between atoms: C_10  and  C_12
REMARK    9  A    between atoms: C_15  and  C_16
REMARK   10  A    between atoms: C_16  and  C_17
REMARK   11  A    between atoms: C_16  and  C_23
REMARK   12  A    between atoms: N_31  and  O_32
REMARK                            x       y       z     vdW  Elec       q    Type
REMARK                         _______ _______ _______ _____ _____    ______ ____
ROOT
ATOM      1  C   UNL     1       1.180   9.303  19.422  0.00  0.00    +0.000 A 
ATOM      2  C   UNL     1       1.686   8.996  18.153  0.00  0.00    +0.000 A 
ATOM      3  C   UNL     1       2.391   7.807  17.948  0.00  0.00    +0.000 A 
ATOM      4  C   UNL     1       2.608   6.917  19.011  0.00  0.00    +0.000 A 
ATOM      5  C   UNL     1       2.093   7.243  20.282  0.00  0.00    +0.000 A 
ATOM      6  C   UNL     1       1.390   8.428  20.487  0.00  0.00    +0.000 A 
ENDROOT
BRANCH   1   8
ATOM      7  N   UNL     1      -0.362  11.002  18.655  0.00  0.00    +0.000 N 
ATOM      8  C   UNL     1       0.447  10.566  19.680  0.00  0.00    +0.000 C 
ATOM      9  O   UNL     1       0.576  11.149  20.749  0.00  0.00    +0.000 OA
ATOM     10  H   UNL     1      -0.464  10.440  17.821  0.00  0.00    +0.000 HD
BRANCH   7  11
ATOM     11  C   UNL     1      -1.136  12.223  18.755  0.00  0.00    +0.000 C 
BRANCH  11  12
ATOM     12  C   UNL     1      -2.632  11.962  18.607  0.00  0.00    +0.000 C 
BRANCH  12  13
ATOM     13  C   UNL     1      -2.930  10.648  17.878  0.00  0.00    +0.000 C 
BRANCH  13  14
ATOM     14  C   UNL     1      -4.428  10.415  17.654  0.00  0.00    +0.000 C 
BRANCH  14  15
ATOM     15  C   UNL     1      -5.354  11.333  18.460  0.00  0.00    +0.000 C 
BRANCH  15  16
ATOM     16  C   UNL     1      -6.797  10.839  18.501  0.00  0.00    +0.000 C 
BRANCH  16  18
ATOM     17  O   UNL     1      -7.003  10.621  20.893  0.00  0.00    +0.000 OA
ATOM     18  C   UNL     1      -7.082  10.097  19.783  0.00  0.00    +0.000 C 
ATOM     19  N   UNL     1      -7.465   8.791  19.612  0.00  0.00    +0.000 N 
ATOM     20  H   UNL     1      -7.399   8.270  18.742  0.00  0.00    +0.000 HD
BRANCH  19  21
ATOM     21  O   UNL     1      -7.660   8.042  20.794  0.00  0.00    +0.000 OA
ATOM     22  H   UNL     1      -7.156   8.563  21.458  0.00  0.00    +0.000 HD
ENDBRANCH  19  21
ENDBRANCH  16  18
ENDBRANCH  15  16
ENDBRANCH  14  15
ENDBRANCH  13  14
ENDBRANCH  12  13
ENDBRANCH  11  12
ENDBRANCH   7  11
ENDBRANCH   1   8
BRANCH   4  23
ATOM     23  C   UNL     1       3.464   5.659  18.800  0.00  0.00    +0.000 C 
BRANCH  23  24
ATOM     24  C   UNL     1       2.630   4.415  19.139  0.00  0.00    +0.000 A 
ATOM     25  C   UNL     1       1.535   4.016  18.354  0.00  0.00    +0.000 A 
ATOM     26  C   UNL     1       0.692   2.987  18.779  0.00  0.00    +0.000 A 
ATOM     27  C   UNL     1       0.936   2.337  19.986  0.00  0.00    +0.000 A 
ATOM     28  C   UNL     1       2.032   2.702  20.764  0.00  0.00    +0.000 A 
ATOM     29  C   UNL     1       2.873   3.734  20.346  0.00  0.00    +0.000 A 
ENDBRANCH  23  24
BRANCH  23  30
ATOM     30  C   UNL     1       4.233   5.582  17.468  0.00  0.00    +0.000 A 
ATOM     31  C   UNL     1       4.666   6.712  16.756  0.00  0.00    +0.000 A 
ATOM     32  C   UNL     1       5.350   6.580  15.547  0.00  0.00    +0.000 A 
ATOM     33  C   UNL     1       5.635   5.321  15.032  0.00  0.00    +0.000 A 
ATOM     34  C   UNL     1       5.235   4.186  15.731  0.00  0.00    +0.000 A 
ATOM     35  C   UNL     1       4.545   4.314  16.938  0.00  0.00    +0.000 A 
ENDBRANCH  23  30
ENDBRANCH   4  23
TORSDOF 12
ENDMDL
MODEL 9
REMARK VINA RESULT:      -8.5      2.440      4.295
REMARK  Name = 
REMARK  12 active torsions:
REMARK  status: ('A' for Active; 'I' for Inactive)
REMARK    1  A    between atoms: C_2  and  C_3
REMARK    2  A    between atoms: C_3  and  C_4
REMARK    3  A    between atoms: C_4  and  C_5
REMARK    4  A    between atoms: C_5  and  C_6
REMARK    5  A    between atoms: C_6  and  C_7
REMARK    6  A    between atoms: C_7  and  C_8
REMARK    7  A    between atoms: C_8  and  N_9
REMARK    8  A    between atoms: C_10  and  C_12
REMARK    9  A    between atoms: C_15  and  C_16
REMARK   10  A    between atoms: C_16  and  C_17
REMARK   11  A    between atoms: C_16  and  C_23
REMARK   12  A    between atoms: N_31  and  O_32
REMARK                            x       y       z     vdW  Elec       q    Type
REMARK                         _______ _______ _______ _____ _____    ______ ____
ROOT
ATOM      1  C   UNL     1       1.277   9.020  19.303  0.00  0.00    +0.000 A 
ATOM      2  C   UNL     1       1.491   8.170  20.395  0.00  0.00    +0.000 A 
ATOM      3  C   UNL     1       2.338   7.066  20.267  0.00  0.00    +0.000 A 
ATOM      4  C   UNL     1       2.972   6.793  19.045  0.00  0.00    +0.000 A 
ATOM      5  C   UNL     1       2.743   7.659  17.957  0.00  0.00    +0.000 A 
ATOM      6  C   UNL     1       1.899   8.759  18.083  0.00  0.00    +0.000 A 
ENDROOT
BRANCH   1   8
ATOM      7  N   UNL     1      -0.055  10.709  18.194  0.00  0.00    +0.000 N 
ATOM      8  C   UNL     1       0.366  10.187  19.396  0.00  0.00    +0.000 C 
ATOM      9  O   UNL     1       0.029  10.623  20.489  0.00  0.00    +0.000 OA
ATOM     10  H   UNL     1       0.218  10.263  17.328  0.00  0.00    +0.000 HD
BRANCH   7  11
ATOM     11  C   UNL     1      -0.941  11.852  18.122  0.00  0.00    +0.000 C 
BRANCH  11  12
ATOM     12  C   UNL     1      -2.368  11.493  18.527  0.00  0.00    +0.000 C 
BRANCH  12  13
ATOM     13  C   UNL     1      -2.938  10.333  17.703  0.00  0.00    +0.000 C 
BRANCH  13  14
ATOM     14  C   UNL     1      -4.470  10.295  17.706  0.00  0.00    +0.000 C 
BRANCH  14  15
ATOM     15  C   UNL     1      -5.149  11.542  18.283  0.00  0.00    +0.000 C 
BRANCH  15  16
ATOM     16  C   UNL     1      -6.663  11.399  18.399  0.00  0.00    +0.000 C 
BRANCH  16  18
ATOM     17  O   UNL     1      -6.915  10.767  20.712  0.00  0.00    +0.000 OA
ATOM     18  C   UNL     1      -7.037  10.467  19.525  0.00  0.00    +0.000 C 
ATOM     19  N   UNL     1      -7.552   9.262  19.120  0.00  0.00    +0.000 N 
ATOM     20  H   UNL     1      -7.531   8.907  18.168  0.00  0.00    +0.000 HD
BRANCH  19  21
ATOM     21  O   UNL     1      -7.836   8.333  20.146  0.00  0.00    +0.000 OA
ATOM     22  H   UNL     1      -8.463   7.719  19.703  0.00  0.00    +0.000 HD
ENDBRANCH  19  21
ENDBRANCH  16  18
ENDBRANCH  15  16
ENDBRANCH  14  15
ENDBRANCH  13  14
ENDBRANCH  12  13
ENDBRANCH  11  12
ENDBRANCH   7  11
ENDBRANCH   1   8
BRANCH   4  23
ATOM     23  C   UNL     1       3.826   5.526  18.886  0.00  0.00    +0.000 C 
BRANCH  23  24
ATOM     24  C   UNL     1       2.907   4.295  18.871  0.00  0.00    +0.000 A 
ATOM     25  C   UNL     1       1.661   4.303  18.223  0.00  0.00    +0.000 A 
ATOM     26  C   UNL     1       0.775   3.234  18.370  0.00  0.00    +0.000 A 
ATOM     27  C   UNL     1       1.124   2.141  19.158  0.00  0.00    +0.000 A 
ATOM     28  C   UNL     1       2.366   2.104  19.788  0.00  0.00    +0.000 A 
ATOM     29  C   UNL     1       3.251   3.173  19.647  0.00  0.00    +0.000 A 
ENDBRANCH  23  24
BRANCH  23  30
ATOM     30  C   UNL     1       4.882   5.561  17.767  0.00  0.00    +0.000 A 
ATOM     31  C   UNL     1       4.684   5.002  16.494  0.00  0.00    +0.000 A 
ATOM     32  C   UNL     1       5.684   5.055  15.522  0.00  0.00    +0.000 A 
ATOM     33  C   UNL     1       6.894   5.684  15.790  0.00  0.00    +0.000 A 
ATOM     34  C   UNL     1       7.106   6.266  17.036  0.00  0.00    +0.000 A 
ATOM     35  C   UNL     1       6.110   6.208  18.014  0.00  0.00    +0.000 A 
ENDBRANCH  23  30
ENDBRANCH   4  23
TORSDOF 12
ENDMDL
