MODEL 1
REMARK VINA RESULT:      -8.4      0.000      0.000
REMARK  Name = 
REMARK  7 active torsions:
REMARK  status: ('A' for Active; 'I' for Inactive)
REMARK    1  A    between atoms: C_1  and  C_2
REMARK    2  A    between atoms: C_5  and  N_6
REMARK    3  A    between atoms: N_6  and  S_7
REMARK    4  A    between atoms: S_7  and  C_10
REMARK    5  A    between atoms: C_13  and  N_14
REMARK    6  A    between atoms: C_15  and  C_17
REMARK    7  A    between atoms: C_24  and  C_25
REMARK                            x       y       z     vdW  Elec       q    Type
REMARK                         _______ _______ _______ _____ _____    ______ ____
ROOT
ATOM      1  C   UNL     1       2.419   4.541  18.781  0.00  0.00    +0.000 A 
ATOM      2  C   UNL     1       2.372   5.769  18.132  0.00  0.00    +0.000 A 
ATOM      3  C   UNL     1       2.129   6.931  18.866  0.00  0.00    +0.000 A 
ATOM      4  C   UNL     1       1.917   6.896  20.245  0.00  0.00    +0.000 A 
ATOM      5  C   UNL     1       1.945   5.650  20.890  0.00  0.00    +0.000 A 
ATOM      6  C   UNL     1       2.169   4.471  20.156  0.00  0.00    +0.000 A 
ENDROOT
BRANCH   4   7
ATOM      7  N   UNL     1       1.666   8.078  20.987  0.00  0.00    +0.000 N 
ATOM      8  C   UNL     1       0.425   8.452  21.519  0.00  0.00    +0.000 C 
ATOM      9  O   UNL     1      -0.622   7.819  21.416  0.00  0.00    +0.000 OA
ATOM     10  H   UNL     1       2.452   8.703  21.131  0.00  0.00    +0.000 HD
BRANCH   8  11
ATOM     11  C   UNL     1       0.427   9.797  22.265  0.00  0.00    +0.000 C 
ATOM     12  C   UNL     1       0.087  11.042  21.396  0.00  0.00    +0.000 C 
ATOM     13  C   UNL     1      -0.655  11.614  22.615  0.00  0.00    +0.000 C 
ATOM     14  C   UNL     1      -0.837  10.161  23.100  0.00  0.00    +0.000 C 
ENDBRANCH   8  11
ENDBRANCH   4   7
BRANCH   1  15
ATOM     15  S   UNL     1       2.711   3.067  17.823  0.00  0.00    +0.000 S 
ATOM     16  O   UNL     1       2.163   3.318  16.499  0.00  0.00    +0.000 OA
ATOM     17  O   UNL     1       2.247   1.945  18.604  0.00  0.00    +0.000 OA
BRANCH  15  18
ATOM     18  N   UNL     1       4.379   2.979  17.655  0.00  0.00    +0.000 N 
ATOM     19  H   UNL     1       4.817   2.068  17.740  0.00  0.00    +0.000 HD
BRANCH  18  24
ATOM     20  C   UNL     1       7.619   7.711  17.372  0.00  0.00    +0.000 C 
ATOM     21  C   UNL     1       6.764   6.477  17.477  0.00  0.00    +0.000 A 
ATOM     22  C   UNL     1       5.856   6.193  16.456  0.00  0.00    +0.000 A 
ATOM     23  C   UNL     1       5.048   5.039  16.501  0.00  0.00    +0.000 A 
ATOM     24  C   UNL     1       5.174   4.155  17.567  0.00  0.00    +0.000 A 
ATOM     25  C   UNL     1       6.058   4.446  18.606  0.00  0.00    +0.000 A 
ATOM     26  C   UNL     1       6.863   5.599  18.573  0.00  0.00    +0.000 A 
ATOM     27  C   UNL     1       7.816   5.873  19.705  0.00  0.00    +0.000 C 
ENDBRANCH  18  24
ENDBRANCH  15  18
ENDBRANCH   1  15
TORSDOF 5
ENDMDL
MODEL 2
REMARK VINA RESULT:      -8.4      0.578      1.680
REMARK  Name = 
REMARK  7 active torsions:
REMARK  status: ('A' for Active; 'I' for Inactive)
REMARK    1  A    between atoms: C_1  and  C_2
REMARK    2  A    between atoms: C_5  and  N_6
REMARK    3  A    between atoms: N_6  and  S_7
REMARK    4  A    between atoms: S_7  and  C_10
REMARK    5  A    between atoms: C_13  and  N_14
REMARK    6  A    between atoms: C_15  and  C_17
REMARK    7  A    between atoms: C_24  and  C_25
REMARK                            x       y       z     vdW  Elec       q    Type
REMARK                         _______ _______ _______ _____ _____    ______ ____
ROOT
ATOM      1  C   UNL     1       2.220   4.470  19.013  0.00  0.00    +0.000 A 
ATOM      2  C   UNL     1       1.922   4.483  20.370  0.00  0.00    +0.000 A 
ATOM      3  C   UNL     1       1.696   5.700  21.016  0.00  0.00    +0.000 A 
ATOM      4  C   UNL     1       1.773   6.917  20.336  0.00  0.00    +0.000 A 
ATOM      5  C   UNL     1       2.095   6.895  18.971  0.00  0.00    +0.000 A 
ATOM      6  C   UNL     1       2.345   5.675  18.315  0.00  0.00    +0.000 A 
ENDROOT
BRANCH   4   7
ATOM      7  N   UNL     1       1.547   8.151  20.997  0.00  0.00    +0.000 N 
ATOM      8  C   UNL     1       0.327   8.561  21.551  0.00  0.00    +0.000 C 
ATOM      9  O   UNL     1      -0.719   7.918  21.541  0.00  0.00    +0.000 OA
ATOM     10  H   UNL     1       2.335   8.787  21.060  0.00  0.00    +0.000 HD
BRANCH   8  11
ATOM     11  C   UNL     1       0.353   9.958  22.194  0.00  0.00    +0.000 C 
ATOM     12  C   UNL     1      -0.082  11.127  21.264  0.00  0.00    +0.000 C 
ATOM     13  C   UNL     1      -0.744  11.775  22.490  0.00  0.00    +0.000 C 
ATOM     14  C   UNL     1      -0.853  10.360  23.094  0.00  0.00    +0.000 C 
ENDBRANCH   8  11
ENDBRANCH   4   7
BRANCH   1  15
ATOM     15  S   UNL     1       2.524   2.908  18.211  0.00  0.00    +0.000 S 
ATOM     16  O   UNL     1       2.154   3.080  16.815  0.00  0.00    +0.000 OA
ATOM     17  O   UNL     1       1.898   1.882  19.011  0.00  0.00    +0.000 OA
BRANCH  15  18
ATOM     18  N   UNL     1       4.190   2.710  18.256  0.00  0.00    +0.000 N 
ATOM     19  H   UNL     1       4.554   1.804  18.531  0.00  0.00    +0.000 HD
BRANCH  18  24
ATOM     20  C   UNL     1       7.734   7.160  17.474  0.00  0.00    +0.000 C 
ATOM     21  C   UNL     1       6.822   5.978  17.658  0.00  0.00    +0.000 A 
ATOM     22  C   UNL     1       6.442   5.609  18.949  0.00  0.00    +0.000 A 
ATOM     23  C   UNL     1       5.574   4.521  19.169  0.00  0.00    +0.000 A 
ATOM     24  C   UNL     1       5.068   3.816  18.082  0.00  0.00    +0.000 A 
ATOM     25  C   UNL     1       5.465   4.160  16.789  0.00  0.00    +0.000 A 
ATOM     26  C   UNL     1       6.337   5.240  16.561  0.00  0.00    +0.000 A 
ATOM     27  C   UNL     1       6.733   5.591  15.152  0.00  0.00    +0.000 C 
ENDBRANCH  18  24
ENDBRANCH  15  18
ENDBRANCH   1  15
TORSDOF 5
ENDMDL
MODEL 3
REMARK VINA RESULT:      -8.3      2.594      7.640
REMARK  Name = 
REMARK  7 active torsions:
REMARK  status: ('A' for Active; 'I' for Inactive)
REMARK    1  A    between atoms: C_1  and  C_2
REMARK    2  A    between atoms: C_5  and  N_6
REMARK    3  A    between atoms: N_6  and  S_7
REMARK    4  A    between atoms: S_7  and  C_10
REMARK    5  A    between atoms: C_13  and  N_14
REMARK    6  A    between atoms: C_15  and  C_17
REMARK    7  A    between atoms: C_24  and  C_25
REMARK                            x       y       z     vdW  Elec       q    Type
REMARK                         _______ _______ _______ _____ _____    ______ ____
ROOT
ATOM      1  C   UNL     1       2.963   4.009  19.419  0.00  0.00    +0.000 A 
ATOM      2  C   UNL     1       2.412   3.742  18.171  0.00  0.00    +0.000 A 
ATOM      3  C   UNL     1       3.250   3.560  17.070  0.00  0.00    +0.000 A 
ATOM      4  C   UNL     1       4.638   3.652  17.181  0.00  0.00    +0.000 A 
ATOM      5  C   UNL     1       5.185   3.943  18.440  0.00  0.00    +0.000 A 
ATOM      6  C   UNL     1       4.348   4.148  19.553  0.00  0.00    +0.000 A 
ENDROOT
BRANCH   4   7
ATOM      7  N   UNL     1       5.485   3.471  16.059  0.00  0.00    +0.000 N 
ATOM      8  C   UNL     1       5.747   4.437  15.078  0.00  0.00    +0.000 C 
ATOM      9  O   UNL     1       5.279   5.571  15.043  0.00  0.00    +0.000 OA
ATOM     10  H   UNL     1       5.926   2.562  15.961  0.00  0.00    +0.000 HD
BRANCH   8  11
ATOM     11  C   UNL     1       6.690   3.970  13.956  0.00  0.00    +0.000 C 
ATOM     12  C   UNL     1       5.991   3.529  12.638  0.00  0.00    +0.000 C 
ATOM     13  C   UNL     1       7.170   4.154  11.875  0.00  0.00    +0.000 C 
ATOM     14  C   UNL     1       7.389   5.068  13.098  0.00  0.00    +0.000 C 
ENDBRANCH   8  11
ENDBRANCH   4   7
BRANCH   1  15
ATOM     15  S   UNL     1       1.875   4.257  20.808  0.00  0.00    +0.000 S 
ATOM     16  O   UNL     1       2.297   3.319  21.837  0.00  0.00    +0.000 OA
ATOM     17  O   UNL     1       0.521   4.230  20.308  0.00  0.00    +0.000 OA
BRANCH  15  18
ATOM     18  N   UNL     1       2.231   5.796  21.373  0.00  0.00    +0.000 N 
ATOM     19  H   UNL     1       2.568   5.887  22.325  0.00  0.00    +0.000 HD
BRANCH  18  24
ATOM     20  C   UNL     1       0.897  10.491  18.347  0.00  0.00    +0.000 C 
ATOM     21  C   UNL     1       1.216   9.258  19.149  0.00  0.00    +0.000 A 
ATOM     22  C   UNL     1       2.060   8.292  18.599  0.00  0.00    +0.000 A 
ATOM     23  C   UNL     1       2.403   7.130  19.319  0.00  0.00    +0.000 A 
ATOM     24  C   UNL     1       1.913   6.953  20.608  0.00  0.00    +0.000 A 
ATOM     25  C   UNL     1       1.046   7.900  21.155  0.00  0.00    +0.000 A 
ATOM     26  C   UNL     1       0.692   9.059  20.440  0.00  0.00    +0.000 A 
ATOM     27  C   UNL     1      -0.235  10.065  21.067  0.00  0.00    +0.000 C 
ENDBRANCH  18  24
ENDBRANCH  15  18
ENDBRANCH   1  15
TORSDOF 5
ENDMDL
MODEL 4
REMARK VINA RESULT:      -8.2      2.589      7.656
REMARK  Name = 
REMARK  7 active torsions:
REMARK  status: ('A' for Active; 'I' for Inactive)
REMARK    1  A    between atoms: C_1  and  C_2
REMARK    2  A    between atoms: C_5  and  N_6
REMARK    3  A    between atoms: N_6  and  S_7
REMARK    4  A    between atoms: S_7  and  C_10
REMARK    5  A    between atoms: C_13  and  N_14
REMARK    6  A    between atoms: C_15  and  C_17
REMARK    7  A    between atoms: C_24  and  C_25
REMARK                            x       y       z     vdW  Elec       q    Type
REMARK                         _______ _______ _______ _____ _____    ______ ____
ROOT
ATOM      1  C   UNL     1       2.908   4.062  19.401  0.00  0.00    +0.000 A 
ATOM      2  C   UNL     1       4.283   4.203  19.550  0.00  0.00    +0.000 A 
ATOM      3  C   UNL     1       5.120   4.021  18.448  0.00  0.00    +0.000 A 
ATOM      4  C   UNL     1       4.616   3.685  17.191  0.00  0.00    +0.000 A 
ATOM      5  C   UNL     1       3.229   3.524  17.053  0.00  0.00    +0.000 A 
ATOM      6  C   UNL     1       2.378   3.685  18.162  0.00  0.00    +0.000 A 
ENDROOT
BRANCH   4   7
ATOM      7  N   UNL     1       5.470   3.497  16.075  0.00  0.00    +0.000 N 
ATOM      8  C   UNL     1       5.788   4.477  15.124  0.00  0.00    +0.000 C 
ATOM      9  O   UNL     1       5.372   5.632  15.115  0.00  0.00    +0.000 OA
ATOM     10  H   UNL     1       5.871   2.573  15.957  0.00  0.00    +0.000 HD
BRANCH   8  11
ATOM     11  C   UNL     1       6.725   4.000  14.003  0.00  0.00    +0.000 C 
ATOM     12  C   UNL     1       6.017   3.495  12.713  0.00  0.00    +0.000 C 
ATOM     13  C   UNL     1       7.165   4.126  11.908  0.00  0.00    +0.000 C 
ATOM     14  C   UNL     1       7.378   5.086  13.096  0.00  0.00    +0.000 C 
ENDBRANCH   8  11
ENDBRANCH   4   7
BRANCH   1  15
ATOM     15  S   UNL     1       1.858   4.279  20.823  0.00  0.00    +0.000 S 
ATOM     16  O   UNL     1       2.285   3.297  21.808  0.00  0.00    +0.000 OA
ATOM     17  O   UNL     1       0.493   4.297  20.354  0.00  0.00    +0.000 OA
BRANCH  15  18
ATOM     18  N   UNL     1       2.257   5.791  21.434  0.00  0.00    +0.000 N 
ATOM     19  H   UNL     1       2.753   5.830  22.319  0.00  0.00    +0.000 HD
BRANCH  18  24
ATOM     20  C   UNL     1       0.349  10.588  18.921  0.00  0.00    +0.000 C 
ATOM     21  C   UNL     1       0.878   9.337  19.570  0.00  0.00    +0.000 A 
ATOM     22  C   UNL     1       0.434   8.997  20.848  0.00  0.00    +0.000 A 
ATOM     23  C   UNL     1       0.886   7.826  21.488  0.00  0.00    +0.000 A 
ATOM     24  C   UNL     1       1.772   6.982  20.827  0.00  0.00    +0.000 A 
ATOM     25  C   UNL     1       2.244   7.329  19.561  0.00  0.00    +0.000 A 
ATOM     26  C   UNL     1       1.803   8.500  18.918  0.00  0.00    +0.000 A 
ATOM     27  C   UNL     1       2.323   8.835  17.546  0.00  0.00    +0.000 C 
ENDBRANCH  18  24
ENDBRANCH  15  18
ENDBRANCH   1  15
TORSDOF 5
ENDMDL
MODEL 5
REMARK VINA RESULT:      -8.2      2.619      7.739
REMARK  Name = 
REMARK  7 active torsions:
REMARK  status: ('A' for Active; 'I' for Inactive)
REMARK    1  A    between atoms: C_1  and  C_2
REMARK    2  A    between atoms: C_5  and  N_6
REMARK    3  A    between atoms: N_6  and  S_7
REMARK    4  A    between atoms: S_7  and  C_10
REMARK    5  A    between atoms: C_13  and  N_14
REMARK    6  A    between atoms: C_15  and  C_17
REMARK    7  A    between atoms: C_24  and  C_25
REMARK                            x       y       z     vdW  Elec       q    Type
REMARK                         _______ _______ _______ _____ _____    ______ ____
ROOT
ATOM      1  C   UNL     1       2.974   4.194  19.280  0.00  0.00    +0.000 A 
ATOM      2  C   UNL     1       4.352   4.305  19.420  0.00  0.00    +0.000 A 
ATOM      3  C   UNL     1       5.178   4.108  18.311  0.00  0.00    +0.000 A 
ATOM      4  C   UNL     1       4.657   3.787  17.057  0.00  0.00    +0.000 A 
ATOM      5  C   UNL     1       3.266   3.657  16.929  0.00  0.00    +0.000 A 
ATOM      6  C   UNL     1       2.426   3.834  18.045  0.00  0.00    +0.000 A 
ENDROOT
BRANCH   4   7
ATOM      7  N   UNL     1       5.499   3.584  15.934  0.00  0.00    +0.000 N 
ATOM      8  C   UNL     1       6.044   4.599  15.136  0.00  0.00    +0.000 C 
ATOM      9  O   UNL     1       5.870   5.805  15.289  0.00  0.00    +0.000 OA
ATOM     10  H   UNL     1       5.709   2.622  15.688  0.00  0.00    +0.000 HD
BRANCH   8  11
ATOM     11  C   UNL     1       6.909   4.100  13.967  0.00  0.00    +0.000 C 
ATOM     12  C   UNL     1       6.123   3.495  12.768  0.00  0.00    +0.000 C 
ATOM     13  C   UNL     1       7.173   4.128  11.840  0.00  0.00    +0.000 C 
ATOM     14  C   UNL     1       7.436   5.160  12.955  0.00  0.00    +0.000 C 
ENDBRANCH   8  11
ENDBRANCH   4   7
BRANCH   1  15
ATOM     15  S   UNL     1       1.939   4.430  20.711  0.00  0.00    +0.000 S 
ATOM     16  O   UNL     1       2.393   3.478  21.713  0.00  0.00    +0.000 OA
ATOM     17  O   UNL     1       0.568   4.417  20.260  0.00  0.00    +0.000 OA
BRANCH  15  18
ATOM     18  N   UNL     1       2.324   5.961  21.281  0.00  0.00    +0.000 N 
ATOM     19  H   UNL     1       2.762   6.033  22.194  0.00  0.00    +0.000 HD
BRANCH  18  24
ATOM     20  C   UNL     1       0.571  10.708  18.566  0.00  0.00    +0.000 C 
ATOM     21  C   UNL     1       1.002   9.460  19.289  0.00  0.00    +0.000 A 
ATOM     22  C   UNL     1       1.821   8.543  18.629  0.00  0.00    +0.000 A 
ATOM     23  C   UNL     1       2.265   7.370  19.271  0.00  0.00    +0.000 A 
ATOM     24  C   UNL     1       1.901   7.132  20.592  0.00  0.00    +0.000 A 
ATOM     25  C   UNL     1       1.059   8.028  21.250  0.00  0.00    +0.000 A 
ATOM     26  C   UNL     1       0.605   9.198  20.614  0.00  0.00    +0.000 A 
ATOM     27  C   UNL     1      -0.292  10.150  21.359  0.00  0.00    +0.000 C 
ENDBRANCH  18  24
ENDBRANCH  15  18
ENDBRANCH   1  15
TORSDOF 5
ENDMDL
MODEL 6
REMARK VINA RESULT:      -8.2      0.609      1.124
REMARK  Name = 
REMARK  7 active torsions:
REMARK  status: ('A' for Active; 'I' for Inactive)
REMARK    1  A    between atoms: C_1  and  C_2
REMARK    2  A    between atoms: C_5  and  N_6
REMARK    3  A    between atoms: N_6  and  S_7
REMARK    4  A    between atoms: S_7  and  C_10
REMARK    5  A    between atoms: C_13  and  N_14
REMARK    6  A    between atoms: C_15  and  C_17
REMARK    7  A    between atoms: C_24  and  C_25
REMARK                            x       y       z     vdW  Elec       q    Type
REMARK                         _______ _______ _______ _____ _____    ______ ____
ROOT
ATOM      1  C   UNL     1       2.838   4.418  18.781  0.00  0.00    +0.000 A 
ATOM      2  C   UNL     1       2.894   4.520  20.165  0.00  0.00    +0.000 A 
ATOM      3  C   UNL     1       2.556   5.725  20.783  0.00  0.00    +0.000 A 
ATOM      4  C   UNL     1       2.171   6.846  20.045  0.00  0.00    +0.000 A 
ATOM      5  C   UNL     1       2.138   6.740  18.647  0.00  0.00    +0.000 A 
ATOM      6  C   UNL     1       2.497   5.536  18.013  0.00  0.00    +0.000 A 
ENDROOT
BRANCH   4   7
ATOM      7  N   UNL     1       1.833   8.069  20.677  0.00  0.00    +0.000 N 
ATOM      8  C   UNL     1       0.612   8.344  21.308  0.00  0.00    +0.000 C 
ATOM      9  O   UNL     1      -0.339   7.572  21.402  0.00  0.00    +0.000 OA
ATOM     10  H   UNL     1       2.532   8.804  20.656  0.00  0.00    +0.000 HD
BRANCH   8  11
ATOM     11  C   UNL     1       0.500   9.760  21.896  0.00  0.00    +0.000 C 
ATOM     12  C   UNL     1      -0.455  10.724  21.135  0.00  0.00    +0.000 C 
ATOM     13  C   UNL     1      -0.853  11.310  22.499  0.00  0.00    +0.000 C 
ATOM     14  C   UNL     1      -0.441   9.960  23.122  0.00  0.00    +0.000 C 
ENDBRANCH   8  11
ENDBRANCH   4   7
BRANCH   1  15
ATOM     15  S   UNL     1       3.292   2.877  18.010  0.00  0.00    +0.000 S 
ATOM     16  O   UNL     1       2.138   2.444  17.237  0.00  0.00    +0.000 OA
ATOM     17  O   UNL     1       3.843   2.025  19.037  0.00  0.00    +0.000 OA
BRANCH  15  18
ATOM     18  N   UNL     1       4.496   3.276  16.911  0.00  0.00    +0.000 N 
ATOM     19  H   UNL     1       4.726   2.599  16.191  0.00  0.00    +0.000 HD
BRANCH  18  24
ATOM     20  C   UNL     1       7.726   7.965  17.659  0.00  0.00    +0.000 C 
ATOM     21  C   UNL     1       6.874   6.735  17.494  0.00  0.00    +0.000 A 
ATOM     22  C   UNL     1       5.975   6.672  16.429  0.00  0.00    +0.000 A 
ATOM     23  C   UNL     1       5.170   5.534  16.222  0.00  0.00    +0.000 A 
ATOM     24  C   UNL     1       5.289   4.445  17.079  0.00  0.00    +0.000 A 
ATOM     25  C   UNL     1       6.164   4.511  18.164  0.00  0.00    +0.000 A 
ATOM     26  C   UNL     1       6.966   5.646  18.381  0.00  0.00    +0.000 A 
ATOM     27  C   UNL     1       7.909   5.677  19.554  0.00  0.00    +0.000 C 
ENDBRANCH  18  24
ENDBRANCH  15  18
ENDBRANCH   1  15
TORSDOF 5
ENDMDL
MODEL 7
REMARK VINA RESULT:      -8.1      3.565      8.798
REMARK  Name = 
REMARK  7 active torsions:
REMARK  status: ('A' for Active; 'I' for Inactive)
REMARK    1  A    between atoms: C_1  and  C_2
REMARK    2  A    between atoms: C_5  and  N_6
REMARK    3  A    between atoms: N_6  and  S_7
REMARK    4  A    between atoms: S_7  and  C_10
REMARK    5  A    between atoms: C_13  and  N_14
REMARK    6  A    between atoms: C_15  and  C_17
REMARK    7  A    between atoms: C_24  and  C_25
REMARK                            x       y       z     vdW  Elec       q    Type
REMARK                         _______ _______ _______ _____ _____    ______ ____
ROOT
ATOM      1  C   UNL     1       1.506   8.586  19.842  0.00  0.00    +0.000 A 
ATOM      2  C   UNL     1       1.810   7.338  20.374  0.00  0.00    +0.000 A 
ATOM      3  C   UNL     1       2.582   6.441  19.635  0.00  0.00    +0.000 A 
ATOM      4  C   UNL     1       3.052   6.755  18.359  0.00  0.00    +0.000 A 
ATOM      5  C   UNL     1       2.723   8.008  17.821  0.00  0.00    +0.000 A 
ATOM      6  C   UNL     1       1.929   8.913  18.550  0.00  0.00    +0.000 A 
ENDROOT
BRANCH   4   7
ATOM      7  N   UNL     1       3.832   5.839  17.609  0.00  0.00    +0.000 N 
ATOM      8  C   UNL     1       5.008   5.221  18.057  0.00  0.00    +0.000 C 
ATOM      9  O   UNL     1       5.533   5.385  19.154  0.00  0.00    +0.000 OA
ATOM     10  H   UNL     1       3.513   5.628  16.670  0.00  0.00    +0.000 HD
BRANCH   8  11
ATOM     11  C   UNL     1       5.668   4.283  17.032  0.00  0.00    +0.000 C 
ATOM     12  C   UNL     1       5.175   4.446  15.566  0.00  0.00    +0.000 C 
ATOM     13  C   UNL     1       6.617   4.168  15.114  0.00  0.00    +0.000 C 
ATOM     14  C   UNL     1       7.076   4.679  16.495  0.00  0.00    +0.000 C 
ENDBRANCH   8  11
ENDBRANCH   4   7
BRANCH   1  15
ATOM     15  S   UNL     1       0.504   9.710  20.794  0.00  0.00    +0.000 S 
ATOM     16  O   UNL     1       1.358  10.237  21.848  0.00  0.00    +0.000 OA
ATOM     17  O   UNL     1      -0.722   9.022  21.124  0.00  0.00    +0.000 OA
BRANCH  15  18
ATOM     18  N   UNL     1       0.167  10.983  19.754  0.00  0.00    +0.000 N 
ATOM     19  H   UNL     1       0.854  11.724  19.672  0.00  0.00    +0.000 HD
BRANCH  18  24
ATOM     20  C   UNL     1      -4.954  11.458  17.198  0.00  0.00    +0.000 C 
ATOM     21  C   UNL     1      -3.598  11.336  17.840  0.00  0.00    +0.000 A 
ATOM     22  C   UNL     1      -3.343  12.032  19.022  0.00  0.00    +0.000 A 
ATOM     23  C   UNL     1      -2.095  11.934  19.669  0.00  0.00    +0.000 A 
ATOM     24  C   UNL     1      -1.108  11.112  19.136  0.00  0.00    +0.000 A 
ATOM     25  C   UNL     1      -1.344  10.435  17.940  0.00  0.00    +0.000 A 
ATOM     26  C   UNL     1      -2.585  10.532  17.283  0.00  0.00    +0.000 A 
ATOM     27  C   UNL     1      -2.809   9.776  16.001  0.00  0.00    +0.000 C 
ENDBRANCH  18  24
ENDBRANCH  15  18
ENDBRANCH   1  15
TORSDOF 5
ENDMDL
MODEL 8
REMARK VINA RESULT:      -7.9      3.808      8.986
REMARK  Name = 
REMARK  7 active torsions:
REMARK  status: ('A' for Active; 'I' for Inactive)
REMARK    1  A    between atoms: C_1  and  C_2
REMARK    2  A    between atoms: C_5  and  N_6
REMARK    3  A    between atoms: N_6  and  S_7
REMARK    4  A    between atoms: S_7  and  C_10
REMARK    5  A    between atoms: C_13  and  N_14
REMARK    6  A    between atoms: C_15  and  C_17
REMARK    7  A    between atoms: C_24  and  C_25
REMARK                            x       y       z     vdW  Elec       q    Type
REMARK                         _______ _______ _______ _____ _____    ______ ____
ROOT
ATOM      1  C   UNL     1       1.236   9.139  19.878  0.00  0.00    +0.000 A 
ATOM      2  C   UNL     1       1.517   9.352  18.534  0.00  0.00    +0.000 A 
ATOM      3  C   UNL     1       2.178   8.365  17.801  0.00  0.00    +0.000 A 
ATOM      4  C   UNL     1       2.581   7.163  18.386  0.00  0.00    +0.000 A 
ATOM      5  C   UNL     1       2.312   6.965  19.748  0.00  0.00    +0.000 A 
ATOM      6  C   UNL     1       1.665   7.963  20.501  0.00  0.00    +0.000 A 
ENDROOT
BRANCH   4   7
ATOM      7  N   UNL     1       3.256   6.165  17.639  0.00  0.00    +0.000 N 
ATOM      8  C   UNL     1       4.595   6.226  17.229  0.00  0.00    +0.000 C 
ATOM      9  O   UNL     1       5.372   7.150  17.450  0.00  0.00    +0.000 OA
ATOM     10  H   UNL     1       2.716   5.347  17.376  0.00  0.00    +0.000 HD
BRANCH   8  11
ATOM     11  C   UNL     1       5.070   5.013  16.412  0.00  0.00    +0.000 C 
ATOM     12  C   UNL     1       5.585   5.335  14.980  0.00  0.00    +0.000 C 
ATOM     13  C   UNL     1       6.639   4.234  15.176  0.00  0.00    +0.000 C 
ATOM     14  C   UNL     1       6.504   4.471  16.695  0.00  0.00    +0.000 C 
ENDBRANCH   8  11
ENDBRANCH   4   7
BRANCH   1  15
ATOM     15  S   UNL     1       0.409  10.420  20.800  0.00  0.00    +0.000 S 
ATOM     16  O   UNL     1       1.427  11.071  21.610  0.00  0.00    +0.000 OA
ATOM     17  O   UNL     1      -0.749   9.824  21.424  0.00  0.00    +0.000 OA
BRANCH  15  18
ATOM     18  N   UNL     1      -0.090  11.535  19.650  0.00  0.00    +0.000 N 
ATOM     19  H   UNL     1       0.530  12.311  19.440  0.00  0.00    +0.000 HD
BRANCH  18  24
ATOM     20  C   UNL     1      -5.369  11.335  17.399  0.00  0.00    +0.000 C 
ATOM     21  C   UNL     1      -3.973  11.391  17.960  0.00  0.00    +0.000 A 
ATOM     22  C   UNL     1      -3.733  12.151  19.105  0.00  0.00    +0.000 A 
ATOM     23  C   UNL     1      -2.447  12.218  19.678  0.00  0.00    +0.000 A 
ATOM     24  C   UNL     1      -1.404  11.497  19.107  0.00  0.00    +0.000 A 
ATOM     25  C   UNL     1      -1.628  10.757  17.946  0.00  0.00    +0.000 A 
ATOM     26  C   UNL     1      -2.907  10.691  17.363  0.00  0.00    +0.000 A 
ATOM     27  C   UNL     1      -3.115   9.872  16.118  0.00  0.00    +0.000 C 
ENDBRANCH  18  24
ENDBRANCH  15  18
ENDBRANCH   1  15
TORSDOF 5
ENDMDL
MODEL 9
REMARK VINA RESULT:      -7.8      4.051      7.176
REMARK  Name = 
REMARK  7 active torsions:
REMARK  status: ('A' for Active; 'I' for Inactive)
REMARK    1  A    between atoms: C_1  and  C_2
REMARK    2  A    between atoms: C_5  and  N_6
REMARK    3  A    between atoms: N_6  and  S_7
REMARK    4  A    between atoms: S_7  and  C_10
REMARK    5  A    between atoms: C_13  and  N_14
REMARK    6  A    between atoms: C_15  and  C_17
REMARK    7  A    between atoms: C_24  and  C_25
REMARK                            x       y       z     vdW  Elec       q    Type
REMARK                         _______ _______ _______ _____ _____    ______ ____
ROOT
ATOM      1  C   UNL     1       7.033   6.097  17.240  0.00  0.00    +0.000 A 
ATOM      2  C   UNL     1       6.981   7.410  16.786  0.00  0.00    +0.000 A 
ATOM      3  C   UNL     1       7.658   8.410  17.486  0.00  0.00    +0.000 A 
ATOM      4  C   UNL     1       8.383   8.132  18.646  0.00  0.00    +0.000 A 
ATOM      5  C   UNL     1       8.412   6.809  19.109  0.00  0.00    +0.000 A 
ATOM      6  C   UNL     1       7.716   5.796  18.423  0.00  0.00    +0.000 A 
ENDROOT
BRANCH   4   7
ATOM      7  N   UNL     1       9.066   9.152  19.356  0.00  0.00    +0.000 N 
ATOM      8  C   UNL     1       9.191  10.484  18.938  0.00  0.00    +0.000 C 
ATOM      9  O   UNL     1       8.736  10.959  17.901  0.00  0.00    +0.000 OA
ATOM     10  H   UNL     1       9.505   8.885  20.230  0.00  0.00    +0.000 HD
BRANCH   8  11
ATOM     11  C   UNL     1      10.002  11.379  19.890  0.00  0.00    +0.000 C 
ATOM     12  C   UNL     1      11.489  11.602  19.491  0.00  0.00    +0.000 C 
ATOM     13  C   UNL     1      11.352  13.040  20.017  0.00  0.00    +0.000 C 
ATOM     14  C   UNL     1       9.838  12.922  19.745  0.00  0.00    +0.000 C 
ENDBRANCH   8  11
ENDBRANCH   4   7
BRANCH   1  15
ATOM     15  S   UNL     1       6.146   4.838  16.344  0.00  0.00    +0.000 S 
ATOM     16  O   UNL     1       7.112   4.195  15.467  0.00  0.00    +0.000 OA
ATOM     17  O   UNL     1       4.959   5.451  15.797  0.00  0.00    +0.000 OA
BRANCH  15  18
ATOM     18  N   UNL     1       5.705   3.706  17.502  0.00  0.00    +0.000 N 
ATOM     19  H   UNL     1       6.232   2.840  17.545  0.00  0.00    +0.000 HD
BRANCH  18  24
ATOM     20  C   UNL     1       0.927   4.321  20.627  0.00  0.00    +0.000 C 
ATOM     21  C   UNL     1       2.162   4.155  19.783  0.00  0.00    +0.000 A 
ATOM     22  C   UNL     1       3.234   5.028  19.971  0.00  0.00    +0.000 A 
ATOM     23  C   UNL     1       4.418   4.901  19.217  0.00  0.00    +0.000 A 
ATOM     24  C   UNL     1       4.530   3.873  18.287  0.00  0.00    +0.000 A 
ATOM     25  C   UNL     1       3.453   3.013  18.072  0.00  0.00    +0.000 A 
ATOM     26  C   UNL     1       2.265   3.138  18.814  0.00  0.00    +0.000 A 
ATOM     27  C   UNL     1       1.128   2.184  18.565  0.00  0.00    +0.000 C 
ENDBRANCH  18  24
ENDBRANCH  15  18
ENDBRANCH   1  15
TORSDOF 5
ENDMDL
