MODEL 1
REMARK VINA RESULT:      -7.1      0.000      0.000
REMARK  Name = 
REMARK  6 active torsions:
REMARK  status: ('A' for Active; 'I' for Inactive)
REMARK    1  A    between atoms: C_1  and  C_2
REMARK    2  A    between atoms: N_6  and  C_7
REMARK    3  A    between atoms: N_10  and  C_11
REMARK    4  A    between atoms: N_10  and  C_12
REMARK    5  A    between atoms: C_12  and  C_13
REMARK    6  A    between atoms: C_21  and  N_22
REMARK                            x       y       z     vdW  Elec       q    Type
REMARK                         _______ _______ _______ _____ _____    ______ ____
ROOT
ATOM      1  C   UNL     1       0.698  11.049  20.349  0.00  0.00    +0.000 A 
ATOM      2  N   UNL     1       1.342  10.152  19.565  0.00  0.00    +0.000 NA
ATOM      3  C   UNL     1       1.359   8.852  19.920  0.00  0.00    +0.000 A 
ATOM      4  N   UNL     1       1.972   7.949  19.085  0.00  0.00    +0.000 N 
ATOM      5  C   UNL     1       2.165   8.335  17.704  0.00  0.00    +0.000 C 
ATOM      6  N   UNL     1       0.707   8.404  21.006  0.00  0.00    +0.000 NA
ATOM      7  C   UNL     1      -0.020   9.292  21.716  0.00  0.00    +0.000 A 
ATOM      8  C   UNL     1      -0.037  10.636  21.429  0.00  0.00    +0.000 A 
ENDROOT
BRANCH   1  14
ATOM      9  C   UNL     1      -0.923  12.667  18.280  0.00  0.00    +0.000 C 
ATOM     10  C   UNL     1       0.257  13.153  19.042  0.00  0.00    +0.000 A 
ATOM     11  N   UNL     1       0.754  14.373  18.947  0.00  0.00    +0.000 NA
ATOM     12  C   UNL     1       1.729  14.455  19.894  0.00  0.00    +0.000 A 
ATOM     13  C   UNL     1       1.835  13.274  20.587  0.00  0.00    +0.000 A 
ATOM     14  N   UNL     1       0.898  12.424  20.037  0.00  0.00    +0.000 N 
ENDBRANCH   1  14
BRANCH   8  15
ATOM     15  N   UNL     1      -0.960  11.473  22.133  0.00  0.00    +0.000 N 
ATOM     16  O   UNL     1      -0.670  11.767  23.300  0.00  0.00    +0.000 OA
ATOM     17  O   UNL     1      -1.965  11.840  21.515  0.00  0.00    +0.000 OA
ENDBRANCH   8  15
BRANCH   4  18
ATOM     18  C   UNL     1       2.726   6.838  19.642  0.00  0.00    +0.000 C 
BRANCH  18  19
ATOM     19  C   UNL     1       2.068   5.478  19.455  0.00  0.00    +0.000 A 
ATOM     20  C   UNL     1       2.081   4.851  18.198  0.00  0.00    +0.000 A 
ATOM     21  C   UNL     1       1.545   3.570  18.026  0.00  0.00    +0.000 A 
ATOM     22  C   UNL     1       0.988   2.897  19.107  0.00  0.00    +0.000 A 
ATOM     23  C   UNL     1       0.956   3.501  20.362  0.00  0.00    +0.000 A 
ATOM     24  C   UNL     1       1.488   4.791  20.533  0.00  0.00    +0.000 A 
ENDBRANCH  18  19
ENDBRANCH   4  18
TORSDOF 4
ENDMDL
MODEL 2
REMARK VINA RESULT:      -6.8      4.279      7.621
REMARK  Name = 
REMARK  6 active torsions:
REMARK  status: ('A' for Active; 'I' for Inactive)
REMARK    1  A    between atoms: C_1  and  C_2
REMARK    2  A    between atoms: N_6  and  C_7
REMARK    3  A    between atoms: N_10  and  C_11
REMARK    4  A    between atoms: N_10  and  C_12
REMARK    5  A    between atoms: C_12  and  C_13
REMARK    6  A    between atoms: C_21  and  N_22
REMARK                            x       y       z     vdW  Elec       q    Type
REMARK                         _______ _______ _______ _____ _____    ______ ____
ROOT
ATOM      1  C   UNL     1       4.373   6.140  17.926  0.00  0.00    +0.000 A 
ATOM      2  N   UNL     1       3.665   7.288  17.801  0.00  0.00    +0.000 NA
ATOM      3  C   UNL     1       2.683   7.562  18.683  0.00  0.00    +0.000 A 
ATOM      4  N   UNL     1       2.012   8.756  18.572  0.00  0.00    +0.000 N 
ATOM      5  C   UNL     1       2.656   9.822  17.837  0.00  0.00    +0.000 C 
ATOM      6  N   UNL     1       2.415   6.753  19.722  0.00  0.00    +0.000 NA
ATOM      7  C   UNL     1       3.200   5.669  19.895  0.00  0.00    +0.000 A 
ATOM      8  C   UNL     1       4.185   5.315  19.004  0.00  0.00    +0.000 A 
ENDROOT
BRANCH   1  14
ATOM      9  C   UNL     1       7.307   7.055  17.653  0.00  0.00    +0.000 C 
ATOM     10  C   UNL     1       6.532   6.287  16.645  0.00  0.00    +0.000 A 
ATOM     11  N   UNL     1       7.021   5.868  15.492  0.00  0.00    +0.000 NA
ATOM     12  C   UNL     1       6.047   5.099  14.930  0.00  0.00    +0.000 A 
ATOM     13  C   UNL     1       4.945   5.036  15.746  0.00  0.00    +0.000 A 
ATOM     14  N   UNL     1       5.243   5.810  16.849  0.00  0.00    +0.000 N 
ENDBRANCH   1  14
BRANCH   8  15
ATOM     15  N   UNL     1       5.070   4.246  19.353  0.00  0.00    +0.000 N 
ATOM     16  O   UNL     1       6.188   4.562  19.780  0.00  0.00    +0.000 OA
ATOM     17  O   UNL     1       4.641   3.096  19.207  0.00  0.00    +0.000 OA
ENDBRANCH   8  15
BRANCH   4  18
ATOM     18  C   UNL     1       0.584   8.816  18.839  0.00  0.00    +0.000 C 
BRANCH  18  19
ATOM     19  C   UNL     1       0.222   9.485  20.158  0.00  0.00    +0.000 A 
ATOM     20  C   UNL     1      -0.104  10.851  20.194  0.00  0.00    +0.000 A 
ATOM     21  C   UNL     1      -0.510  11.465  21.383  0.00  0.00    +0.000 A 
ATOM     22  C   UNL     1      -0.595  10.722  22.556  0.00  0.00    +0.000 A 
ATOM     23  C   UNL     1      -0.270   9.368  22.547  0.00  0.00    +0.000 A 
ATOM     24  C   UNL     1       0.145   8.753  21.353  0.00  0.00    +0.000 A 
ENDBRANCH  18  19
ENDBRANCH   4  18
TORSDOF 4
ENDMDL
MODEL 3
REMARK VINA RESULT:      -6.7      0.571      1.724
REMARK  Name = 
REMARK  6 active torsions:
REMARK  status: ('A' for Active; 'I' for Inactive)
REMARK    1  A    between atoms: C_1  and  C_2
REMARK    2  A    between atoms: N_6  and  C_7
REMARK    3  A    between atoms: N_10  and  C_11
REMARK    4  A    between atoms: N_10  and  C_12
REMARK    5  A    between atoms: C_12  and  C_13
REMARK    6  A    between atoms: C_21  and  N_22
REMARK                            x       y       z     vdW  Elec       q    Type
REMARK                         _______ _______ _______ _____ _____    ______ ____
ROOT
ATOM      1  C   UNL     1       0.450  11.343  20.129  0.00  0.00    +0.000 A 
ATOM      2  N   UNL     1       1.071  10.424  19.350  0.00  0.00    +0.000 NA
ATOM      3  C   UNL     1       1.226   9.165  19.803  0.00  0.00    +0.000 A 
ATOM      4  N   UNL     1       1.811   8.235  18.979  0.00  0.00    +0.000 N 
ATOM      5  C   UNL     1       1.822   8.510  17.558  0.00  0.00    +0.000 C 
ATOM      6  N   UNL     1       0.734   8.772  20.990  0.00  0.00    +0.000 NA
ATOM      7  C   UNL     1       0.023   9.668  21.706  0.00  0.00    +0.000 A 
ATOM      8  C   UNL     1      -0.128  10.977  21.316  0.00  0.00    +0.000 A 
ENDROOT
BRANCH   1  14
ATOM      9  C   UNL     1       2.595  13.402  20.952  0.00  0.00    +0.000 C 
ATOM     10  C   UNL     1       1.397  13.672  20.114  0.00  0.00    +0.000 A 
ATOM     11  N   UNL     1       1.109  14.847  19.584  0.00  0.00    +0.000 NA
ATOM     12  C   UNL     1       0.022  14.643  18.790  0.00  0.00    +0.000 A 
ATOM     13  C   UNL     1      -0.366  13.326  18.824  0.00  0.00    +0.000 A 
ATOM     14  N   UNL     1       0.508  12.694  19.686  0.00  0.00    +0.000 N 
ENDBRANCH   1  14
BRANCH   8  15
ATOM     15  N   UNL     1      -1.030  11.810  22.052  0.00  0.00    +0.000 N 
ATOM     16  O   UNL     1      -2.148  11.999  21.556  0.00  0.00    +0.000 OA
ATOM     17  O   UNL     1      -0.621  12.264  23.126  0.00  0.00    +0.000 OA
ENDBRANCH   8  15
BRANCH   4  18
ATOM     18  C   UNL     1       2.705   7.230  19.532  0.00  0.00    +0.000 C 
BRANCH  18  19
ATOM     19  C   UNL     1       2.180   5.805  19.437  0.00  0.00    +0.000 A 
ATOM     20  C   UNL     1       1.618   5.180  20.562  0.00  0.00    +0.000 A 
ATOM     21  C   UNL     1       1.064   3.898  20.474  0.00  0.00    +0.000 A 
ATOM     22  C   UNL     1       1.065   3.221  19.259  0.00  0.00    +0.000 A 
ATOM     23  C   UNL     1       1.624   3.817  18.131  0.00  0.00    +0.000 A 
ATOM     24  C   UNL     1       2.186   5.102  18.222  0.00  0.00    +0.000 A 
ENDBRANCH  18  19
ENDBRANCH   4  18
TORSDOF 4
ENDMDL
MODEL 4
REMARK VINA RESULT:      -6.6      4.375      7.790
REMARK  Name = 
REMARK  6 active torsions:
REMARK  status: ('A' for Active; 'I' for Inactive)
REMARK    1  A    between atoms: C_1  and  C_2
REMARK    2  A    between atoms: N_6  and  C_7
REMARK    3  A    between atoms: N_10  and  C_11
REMARK    4  A    between atoms: N_10  and  C_12
REMARK    5  A    between atoms: C_12  and  C_13
REMARK    6  A    between atoms: C_21  and  N_22
REMARK                            x       y       z     vdW  Elec       q    Type
REMARK                         _______ _______ _______ _____ _____    ______ ____
ROOT
ATOM      1  C   UNL     1       4.422   6.045  17.778  0.00  0.00    +0.000 A 
ATOM      2  N   UNL     1       3.747   7.214  17.652  0.00  0.00    +0.000 NA
ATOM      3  C   UNL     1       2.726   7.484  18.489  0.00  0.00    +0.000 A 
ATOM      4  N   UNL     1       2.088   8.696  18.380  0.00  0.00    +0.000 N 
ATOM      5  C   UNL     1       2.793   9.768  17.713  0.00  0.00    +0.000 C 
ATOM      6  N   UNL     1       2.386   6.651  19.487  0.00  0.00    +0.000 NA
ATOM      7  C   UNL     1       3.137   5.544  19.668  0.00  0.00    +0.000 A 
ATOM      8  C   UNL     1       4.159   5.194  18.819  0.00  0.00    +0.000 A 
ENDROOT
BRANCH   1  14
ATOM      9  C   UNL     1       7.339   7.037  17.602  0.00  0.00    +0.000 C 
ATOM     10  C   UNL     1       6.622   6.237  16.575  0.00  0.00    +0.000 A 
ATOM     11  N   UNL     1       7.165   5.818  15.446  0.00  0.00    +0.000 NA
ATOM     12  C   UNL     1       6.234   5.017  14.858  0.00  0.00    +0.000 A 
ATOM     13  C   UNL     1       5.104   4.933  15.634  0.00  0.00    +0.000 A 
ATOM     14  N   UNL     1       5.340   5.727  16.737  0.00  0.00    +0.000 N 
ENDBRANCH   1  14
BRANCH   8  15
ATOM     15  N   UNL     1       5.001   4.094  19.180  0.00  0.00    +0.000 N 
ATOM     16  O   UNL     1       4.525   2.959  19.046  0.00  0.00    +0.000 OA
ATOM     17  O   UNL     1       6.135   4.368  19.587  0.00  0.00    +0.000 OA
ENDBRANCH   8  15
BRANCH   4  18
ATOM     18  C   UNL     1       0.650   8.782  18.575  0.00  0.00    +0.000 C 
BRANCH  18  19
ATOM     19  C   UNL     1       0.229   9.621  19.773  0.00  0.00    +0.000 A 
ATOM     20  C   UNL     1       0.603   9.240  21.072  0.00  0.00    +0.000 A 
ATOM     21  C   UNL     1       0.288  10.038  22.177  0.00  0.00    +0.000 A 
ATOM     22  C   UNL     1      -0.405  11.230  22.000  0.00  0.00    +0.000 A 
ATOM     23  C   UNL     1      -0.793  11.626  20.722  0.00  0.00    +0.000 A 
ATOM     24  C   UNL     1      -0.483  10.820  19.613  0.00  0.00    +0.000 A 
ENDBRANCH  18  19
ENDBRANCH   4  18
TORSDOF 4
ENDMDL
MODEL 5
REMARK VINA RESULT:      -6.5      0.815      1.374
REMARK  Name = 
REMARK  6 active torsions:
REMARK  status: ('A' for Active; 'I' for Inactive)
REMARK    1  A    between atoms: C_1  and  C_2
REMARK    2  A    between atoms: N_6  and  C_7
REMARK    3  A    between atoms: N_10  and  C_11
REMARK    4  A    between atoms: N_10  and  C_12
REMARK    5  A    between atoms: C_12  and  C_13
REMARK    6  A    between atoms: C_21  and  N_22
REMARK                            x       y       z     vdW  Elec       q    Type
REMARK                         _______ _______ _______ _____ _____    ______ ____
ROOT
ATOM      1  C   UNL     1       0.700  11.208  20.306  0.00  0.00    +0.000 A 
ATOM      2  N   UNL     1       1.338  10.289  19.540  0.00  0.00    +0.000 NA
ATOM      3  C   UNL     1       1.304   8.991  19.896  0.00  0.00    +0.000 A 
ATOM      4  N   UNL     1       1.912   8.068  19.079  0.00  0.00    +0.000 N 
ATOM      5  C   UNL     1       2.155   8.446  17.704  0.00  0.00    +0.000 C 
ATOM      6  N   UNL     1       0.610   8.564  20.964  0.00  0.00    +0.000 NA
ATOM      7  C   UNL     1      -0.108   9.475  21.654  0.00  0.00    +0.000 A 
ATOM      8  C   UNL     1      -0.076  10.819  21.365  0.00  0.00    +0.000 A 
ENDROOT
BRANCH   1  14
ATOM      9  C   UNL     1      -0.806  12.868  18.185  0.00  0.00    +0.000 C 
ATOM     10  C   UNL     1       0.363  13.320  18.983  0.00  0.00    +0.000 A 
ATOM     11  N   UNL     1       0.898  14.525  18.901  0.00  0.00    +0.000 NA
ATOM     12  C   UNL     1       1.846  14.580  19.878  0.00  0.00    +0.000 A 
ATOM     13  C   UNL     1       1.895  13.399  20.576  0.00  0.00    +0.000 A 
ATOM     14  N   UNL     1       0.950  12.575  19.998  0.00  0.00    +0.000 N 
ENDBRANCH   1  14
BRANCH   8  15
ATOM     15  N   UNL     1      -0.992  11.685  22.043  0.00  0.00    +0.000 N 
ATOM     16  O   UNL     1      -2.018  12.004  21.429  0.00  0.00    +0.000 OA
ATOM     17  O   UNL     1      -0.686  12.036  23.188  0.00  0.00    +0.000 OA
ENDBRANCH   8  15
BRANCH   4  18
ATOM     18  C   UNL     1       2.616   6.935  19.658  0.00  0.00    +0.000 C 
BRANCH  18  19
ATOM     19  C   UNL     1       2.776   5.750  18.716  0.00  0.00    +0.000 A 
ATOM     20  C   UNL     1       4.010   5.499  18.094  0.00  0.00    +0.000 A 
ATOM     21  C   UNL     1       4.195   4.374  17.284  0.00  0.00    +0.000 A 
ATOM     22  C   UNL     1       3.147   3.481  17.083  0.00  0.00    +0.000 A 
ATOM     23  C   UNL     1       1.912   3.712  17.683  0.00  0.00    +0.000 A 
ATOM     24  C   UNL     1       1.725   4.847  18.491  0.00  0.00    +0.000 A 
ENDBRANCH  18  19
ENDBRANCH   4  18
TORSDOF 4
ENDMDL
MODEL 6
REMARK VINA RESULT:      -6.5      0.682      1.261
REMARK  Name = 
REMARK  6 active torsions:
REMARK  status: ('A' for Active; 'I' for Inactive)
REMARK    1  A    between atoms: C_1  and  C_2
REMARK    2  A    between atoms: N_6  and  C_7
REMARK    3  A    between atoms: N_10  and  C_11
REMARK    4  A    between atoms: N_10  and  C_12
REMARK    5  A    between atoms: C_12  and  C_13
REMARK    6  A    between atoms: C_21  and  N_22
REMARK                            x       y       z     vdW  Elec       q    Type
REMARK                         _______ _______ _______ _____ _____    ______ ____
ROOT
ATOM      1  C   UNL     1       0.705  11.124  20.313  0.00  0.00    +0.000 A 
ATOM      2  N   UNL     1       1.340  10.193  19.560  0.00  0.00    +0.000 NA
ATOM      3  C   UNL     1       1.331   8.904  19.951  0.00  0.00    +0.000 A 
ATOM      4  N   UNL     1       1.935   7.968  19.148  0.00  0.00    +0.000 N 
ATOM      5  C   UNL     1       2.147   8.312  17.759  0.00  0.00    +0.000 C 
ATOM      6  N   UNL     1       0.663   8.497  21.043  0.00  0.00    +0.000 NA
ATOM      7  C   UNL     1      -0.055   9.417  21.722  0.00  0.00    +0.000 A 
ATOM      8  C   UNL     1      -0.046  10.753  21.397  0.00  0.00    +0.000 A 
ENDROOT
BRANCH   1  14
ATOM      9  C   UNL     1      -0.891  12.719  18.209  0.00  0.00    +0.000 C 
ATOM     10  C   UNL     1       0.301  13.201  18.954  0.00  0.00    +0.000 A 
ATOM     11  N   UNL     1       0.822  14.408  18.825  0.00  0.00    +0.000 NA
ATOM     12  C   UNL     1       1.802  14.495  19.767  0.00  0.00    +0.000 A 
ATOM     13  C   UNL     1       1.887  13.331  20.490  0.00  0.00    +0.000 A 
ATOM     14  N   UNL     1       0.931  12.485  19.965  0.00  0.00    +0.000 N 
ENDBRANCH   1  14
BRANCH   8  15
ATOM     15  N   UNL     1      -0.961  11.625  22.069  0.00  0.00    +0.000 N 
ATOM     16  O   UNL     1      -0.650  11.988  23.212  0.00  0.00    +0.000 OA
ATOM     17  O   UNL     1      -1.979  11.951  21.451  0.00  0.00    +0.000 OA
ENDBRANCH   8  15
BRANCH   4  18
ATOM     18  C   UNL     1       2.666   6.860  19.742  0.00  0.00    +0.000 C 
BRANCH  18  19
ATOM     19  C   UNL     1       2.697   5.601  18.888  0.00  0.00    +0.000 A 
ATOM     20  C   UNL     1       1.582   4.748  18.840  0.00  0.00    +0.000 A 
ATOM     21  C   UNL     1       1.566   3.626  18.004  0.00  0.00    +0.000 A 
ATOM     22  C   UNL     1       2.667   3.340  17.202  0.00  0.00    +0.000 A 
ATOM     23  C   UNL     1       3.787   4.167  17.238  0.00  0.00    +0.000 A 
ATOM     24  C   UNL     1       3.805   5.289  18.084  0.00  0.00    +0.000 A 
ENDBRANCH  18  19
ENDBRANCH   4  18
TORSDOF 4
ENDMDL
MODEL 7
REMARK VINA RESULT:      -6.3      3.650      6.880
REMARK  Name = 
REMARK  6 active torsions:
REMARK  status: ('A' for Active; 'I' for Inactive)
REMARK    1  A    between atoms: C_1  and  C_2
REMARK    2  A    between atoms: N_6  and  C_7
REMARK    3  A    between atoms: N_10  and  C_11
REMARK    4  A    between atoms: N_10  and  C_12
REMARK    5  A    between atoms: C_12  and  C_13
REMARK    6  A    between atoms: C_21  and  N_22
REMARK                            x       y       z     vdW  Elec       q    Type
REMARK                         _______ _______ _______ _____ _____    ______ ____
ROOT
ATOM      1  C   UNL     1      -0.390  11.234  20.193  0.00  0.00    +0.000 A 
ATOM      2  N   UNL     1      -1.399  10.719  19.448  0.00  0.00    +0.000 NA
ATOM      3  C   UNL     1      -2.024  11.501  18.547  0.00  0.00    +0.000 A 
ATOM      4  N   UNL     1      -3.008  10.947  17.764  0.00  0.00    +0.000 N 
ATOM      5  C   UNL     1      -3.022   9.507  17.622  0.00  0.00    +0.000 C 
ATOM      6  N   UNL     1      -1.643  12.769  18.320  0.00  0.00    +0.000 NA
ATOM      7  C   UNL     1      -0.567  13.234  18.991  0.00  0.00    +0.000 A 
ATOM      8  C   UNL     1       0.081  12.498  19.955  0.00  0.00    +0.000 A 
ENDROOT
BRANCH   1  14
ATOM      9  C   UNL     1      -1.475  11.292  23.081  0.00  0.00    +0.000 C 
ATOM     10  C   UNL     1      -0.314  10.501  22.597  0.00  0.00    +0.000 A 
ATOM     11  N   UNL     1       0.398   9.685  23.354  0.00  0.00    +0.000 NA
ATOM     12  C   UNL     1       1.269   9.060  22.514  0.00  0.00    +0.000 A 
ATOM     13  C   UNL     1       1.091   9.488  21.222  0.00  0.00    +0.000 A 
ATOM     14  N   UNL     1       0.081  10.428  21.267  0.00  0.00    +0.000 N 
ENDBRANCH   1  14
BRANCH   8  15
ATOM     15  N   UNL     1       1.304  13.008  20.495  0.00  0.00    +0.000 N 
ATOM     16  O   UNL     1       1.249  13.512  21.624  0.00  0.00    +0.000 OA
ATOM     17  O   UNL     1       2.315  12.894  19.794  0.00  0.00    +0.000 OA
ENDBRANCH   8  15
BRANCH   4  18
ATOM     18  C   UNL     1      -4.189  11.723  17.421  0.00  0.00    +0.000 C 
BRANCH  18  19
ATOM     19  C   UNL     1      -5.256  11.752  18.506  0.00  0.00    +0.000 A 
ATOM     20  C   UNL     1      -6.269  10.778  18.531  0.00  0.00    +0.000 A 
ATOM     21  C   UNL     1      -7.214  10.746  19.562  0.00  0.00    +0.000 A 
ATOM     22  C   UNL     1      -7.161  11.688  20.584  0.00  0.00    +0.000 A 
ATOM     23  C   UNL     1      -6.171  12.667  20.578  0.00  0.00    +0.000 A 
ATOM     24  C   UNL     1      -5.227  12.703  19.538  0.00  0.00    +0.000 A 
ENDBRANCH  18  19
ENDBRANCH   4  18
TORSDOF 4
ENDMDL
MODEL 8
REMARK VINA RESULT:      -6.2      3.560      6.833
REMARK  Name = 
REMARK  6 active torsions:
REMARK  status: ('A' for Active; 'I' for Inactive)
REMARK    1  A    between atoms: C_1  and  C_2
REMARK    2  A    between atoms: N_6  and  C_7
REMARK    3  A    between atoms: N_10  and  C_11
REMARK    4  A    between atoms: N_10  and  C_12
REMARK    5  A    between atoms: C_12  and  C_13
REMARK    6  A    between atoms: C_21  and  N_22
REMARK                            x       y       z     vdW  Elec       q    Type
REMARK                         _______ _______ _______ _____ _____    ______ ____
ROOT
ATOM      1  C   UNL     1      -0.086  10.749  19.194  0.00  0.00    +0.000 A 
ATOM      2  N   UNL     1      -1.177  10.398  18.471  0.00  0.00    +0.000 NA
ATOM      3  C   UNL     1      -1.921  11.357  17.887  0.00  0.00    +0.000 A 
ATOM      4  N   UNL     1      -2.993  10.979  17.114  0.00  0.00    +0.000 N 
ATOM      5  C   UNL     1      -3.009   9.625  16.605  0.00  0.00    +0.000 C 
ATOM      6  N   UNL     1      -1.586  12.656  17.953  0.00  0.00    +0.000 NA
ATOM      7  C   UNL     1      -0.438  12.980  18.585  0.00  0.00    +0.000 A 
ATOM      8  C   UNL     1       0.337  12.051  19.238  0.00  0.00    +0.000 A 
ENDROOT
BRANCH   1  14
ATOM      9  C   UNL     1       2.067   8.798  18.154  0.00  0.00    +0.000 C 
ATOM     10  C   UNL     1       1.423   8.759  19.493  0.00  0.00    +0.000 A 
ATOM     11  N   UNL     1       1.718   7.881  20.435  0.00  0.00    +0.000 NA
ATOM     12  C   UNL     1       1.016   8.266  21.538  0.00  0.00    +0.000 A 
ATOM     13  C   UNL     1       0.283   9.397  21.277  0.00  0.00    +0.000 A 
ATOM     14  N   UNL     1       0.529   9.716  19.957  0.00  0.00    +0.000 N 
ENDBRANCH   1  14
BRANCH   8  15
ATOM     15  N   UNL     1       1.615  12.458  19.738  0.00  0.00    +0.000 N 
ATOM     16  O   UNL     1       1.720  12.585  20.965  0.00  0.00    +0.000 OA
ATOM     17  O   UNL     1       2.509  12.641  18.905  0.00  0.00    +0.000 OA
ENDBRANCH   8  15
BRANCH   4  18
ATOM     18  C   UNL     1      -4.216  11.765  17.131  0.00  0.00    +0.000 C 
BRANCH  18  19
ATOM     19  C   UNL     1      -5.080  11.551  18.366  0.00  0.00    +0.000 A 
ATOM     20  C   UNL     1      -4.915  12.368  19.497  0.00  0.00    +0.000 A 
ATOM     21  C   UNL     1      -5.749  12.233  20.612  0.00  0.00    +0.000 A 
ATOM     22  C   UNL     1      -6.761  11.279  20.613  0.00  0.00    +0.000 A 
ATOM     23  C   UNL     1      -6.940  10.453  19.507  0.00  0.00    +0.000 A 
ATOM     24  C   UNL     1      -6.097  10.584  18.389  0.00  0.00    +0.000 A 
ENDBRANCH  18  19
ENDBRANCH   4  18
TORSDOF 4
ENDMDL
MODEL 9
REMARK VINA RESULT:      -6.1      4.807      6.719
REMARK  Name = 
REMARK  6 active torsions:
REMARK  status: ('A' for Active; 'I' for Inactive)
REMARK    1  A    between atoms: C_1  and  C_2
REMARK    2  A    between atoms: N_6  and  C_7
REMARK    3  A    between atoms: N_10  and  C_11
REMARK    4  A    between atoms: N_10  and  C_12
REMARK    5  A    between atoms: C_12  and  C_13
REMARK    6  A    between atoms: C_21  and  N_22
REMARK                            x       y       z     vdW  Elec       q    Type
REMARK                         _______ _______ _______ _____ _____    ______ ____
ROOT
ATOM      1  C   UNL     1       2.797   6.054  19.083  0.00  0.00    +0.000 A 
ATOM      2  N   UNL     1       3.545   6.397  18.007  0.00  0.00    +0.000 NA
ATOM      3  C   UNL     1       4.345   5.476  17.434  0.00  0.00    +0.000 A 
ATOM      4  N   UNL     1       5.055   5.827  16.312  0.00  0.00    +0.000 N 
ATOM      5  C   UNL     1       4.592   6.969  15.555  0.00  0.00    +0.000 C 
ATOM      6  N   UNL     1       4.387   4.205  17.866  0.00  0.00    +0.000 NA
ATOM      7  C   UNL     1       3.556   3.851  18.869  0.00  0.00    +0.000 A 
ATOM      8  C   UNL     1       2.752   4.757  19.520  0.00  0.00    +0.000 A 
ENDROOT
BRANCH   1  14
ATOM      9  C   UNL     1       1.805   8.671  17.783  0.00  0.00    +0.000 C 
ATOM     10  C   UNL     1       1.776   8.348  19.233  0.00  0.00    +0.000 A 
ATOM     11  N   UNL     1       1.287   9.147  20.164  0.00  0.00    +0.000 NA
ATOM     12  C   UNL     1       1.323   8.435  21.325  0.00  0.00    +0.000 A 
ATOM     13  C   UNL     1       1.835   7.180  21.110  0.00  0.00    +0.000 A 
ATOM     14  N   UNL     1       2.142   7.118  19.766  0.00  0.00    +0.000 N 
ENDBRANCH   1  14
BRANCH   8  15
ATOM     15  N   UNL     1       1.790   4.264  20.458  0.00  0.00    +0.000 N 
ATOM     16  O   UNL     1       0.632   4.114  20.045  0.00  0.00    +0.000 OA
ATOM     17  O   UNL     1       2.195   4.022  21.600  0.00  0.00    +0.000 OA
ENDBRANCH   8  15
BRANCH   4  18
ATOM     18  C   UNL     1       6.406   5.325  16.118  0.00  0.00    +0.000 C 
BRANCH  18  19
ATOM     19  C   UNL     1       6.705   4.863  14.699  0.00  0.00    +0.000 A 
ATOM     20  C   UNL     1       5.950   3.831  14.116  0.00  0.00    +0.000 A 
ATOM     21  C   UNL     1       6.162   3.444  12.789  0.00  0.00    +0.000 A 
ATOM     22  C   UNL     1       7.132   4.083  12.023  0.00  0.00    +0.000 A 
ATOM     23  C   UNL     1       7.897   5.103  12.581  0.00  0.00    +0.000 A 
ATOM     24  C   UNL     1       7.689   5.487  13.917  0.00  0.00    +0.000 A 
ENDBRANCH  18  19
ENDBRANCH   4  18
TORSDOF 4
ENDMDL
