MODEL 1
REMARK VINA RESULT:      -7.2      0.000      0.000
REMARK  Name = 
REMARK  7 active torsions:
REMARK  status: ('A' for Active; 'I' for Inactive)
REMARK    1  A    between atoms: C_1  and  C_2
REMARK    2  A    between atoms: N_7  and  C_8
REMARK    3  A    between atoms: C_8  and  C_9
REMARK    4  A    between atoms: C_8  and  C_10
REMARK    5  A    between atoms: C_10  and  N_11
REMARK    6  A    between atoms: N_14  and  S_15
REMARK    7  A    between atoms: S_15  and  C_18
REMARK                            x       y       z     vdW  Elec       q    Type
REMARK                         _______ _______ _______ _____ _____    ______ ____
ROOT
ATOM      1  N   UNL     1       1.364   9.820  19.232  0.00  0.00    +0.000 NA
ATOM      2  C   UNL     1       0.622  11.062  18.976  0.00  0.00    +0.000 C 
ATOM      3  C   UNL     1      -0.837  11.107  19.463  0.00  0.00    +0.000 C 
ATOM      4  N   UNL     1      -0.979  10.579  20.842  0.00  0.00    +0.000 NA
ATOM      5  C   UNL     1      -0.459   9.172  20.868  0.00  0.00    +0.000 C 
ATOM      6  C   UNL     1       1.026   9.122  20.475  0.00  0.00    +0.000 C 
ENDROOT
BRANCH   4   7
ATOM      7  S   UNL     1      -0.422  11.584  22.105  0.00  0.00    +0.000 S 
ATOM      8  O   UNL     1      -0.191  10.761  23.269  0.00  0.00    +0.000 OA
ATOM      9  O   UNL     1       0.607  12.475  21.610  0.00  0.00    +0.000 OA
BRANCH   7  10
ATOM     10  C   UNL     1      -1.853  12.573  22.465  0.00  0.00    +0.000 A 
ATOM     11  C   UNL     1      -2.067  13.780  21.797  0.00  0.00    +0.000 A 
ATOM     12  C   UNL     1      -3.207  14.534  22.092  0.00  0.00    +0.000 A 
ATOM     13  C   UNL     1      -4.129  14.072  23.041  0.00  0.00    +0.000 A 
ATOM     14 CL   UNL     1      -5.523  15.046  23.340  0.00  0.00    +0.000 Cl
ATOM     15  C   UNL     1      -3.904  12.858  23.703  0.00  0.00    +0.000 A 
ATOM     16 CL   UNL     1      -5.015  12.216  24.860  0.00  0.00    +0.000 Cl
ATOM     17  C   UNL     1      -2.757  12.108  23.425  0.00  0.00    +0.000 A 
ENDBRANCH   7  10
ENDBRANCH   4   7
BRANCH   1  18
ATOM     18  C   UNL     1       1.610   8.988  18.057  0.00  0.00    +0.000 C 
BRANCH  18  19
ATOM     19  C   UNL     1       2.802   8.001  18.267  0.00  0.00    +0.000 C 
ATOM     20  C   UNL     1       3.713   7.971  17.047  0.00  0.00    +0.000 C 
BRANCH  19  27
ATOM     21  C   UNL     1       4.195   0.731  18.977  0.00  0.00    +0.000 C 
ATOM     22  C   UNL     1       3.376   1.954  18.720  0.00  0.00    +0.000 A 
ATOM     23  C   UNL     1       2.043   1.953  18.361  0.00  0.00    +0.000 A 
ATOM     24  S   UNL     1       1.413   3.529  18.161  0.00  0.00    +0.000 S 
ATOM     25  C   UNL     1       2.906   4.264  18.602  0.00  0.00    +0.000 A 
ATOM     26  C   UNL     1       3.240   5.623  18.730  0.00  0.00    +0.000 A 
ATOM     27  N   UNL     1       2.325   6.649  18.556  0.00  0.00    +0.000 N 
ATOM     28  N   UNL     1       4.521   5.913  19.057  0.00  0.00    +0.000 NA
ATOM     29  C   UNL     1       5.388   4.914  19.259  0.00  0.00    +0.000 A 
ATOM     30  N   UNL     1       5.156   3.605  19.171  0.00  0.00    +0.000 NA
ATOM     31  C   UNL     1       3.878   3.294  18.839  0.00  0.00    +0.000 A 
ATOM     32  H   UNL     1       1.384   6.392  18.290  0.00  0.00    +0.000 HD
ENDBRANCH  19  27
ENDBRANCH  18  19
ENDBRANCH   1  18
TORSDOF 5
ENDMDL
MODEL 2
REMARK VINA RESULT:      -7.1      4.767     10.615
REMARK  Name = 
REMARK  7 active torsions:
REMARK  status: ('A' for Active; 'I' for Inactive)
REMARK    1  A    between atoms: C_1  and  C_2
REMARK    2  A    between atoms: N_7  and  C_8
REMARK    3  A    between atoms: C_8  and  C_9
REMARK    4  A    between atoms: C_8  and  C_10
REMARK    5  A    between atoms: C_10  and  N_11
REMARK    6  A    between atoms: N_14  and  S_15
REMARK    7  A    between atoms: S_15  and  C_18
REMARK                            x       y       z     vdW  Elec       q    Type
REMARK                         _______ _______ _______ _____ _____    ______ ____
ROOT
ATOM      1  N   UNL     1      -3.083  11.078  18.193  0.00  0.00    +0.000 NA
ATOM      2  C   UNL     1      -2.481   9.777  17.873  0.00  0.00    +0.000 C 
ATOM      3  C   UNL     1      -1.038   9.797  17.338  0.00  0.00    +0.000 C 
ATOM      4  N   UNL     1      -0.165  10.700  18.128  0.00  0.00    +0.000 NA
ATOM      5  C   UNL     1      -0.757  12.078  18.098  0.00  0.00    +0.000 C 
ATOM      6  C   UNL     1      -2.164  12.092  18.716  0.00  0.00    +0.000 C 
ENDROOT
BRANCH   4   7
ATOM      7  S   UNL     1       0.307  10.146  19.672  0.00  0.00    +0.000 S 
ATOM      8  O   UNL     1       1.137  11.159  20.282  0.00  0.00    +0.000 OA
ATOM      9  O   UNL     1      -0.837   9.601  20.374  0.00  0.00    +0.000 OA
BRANCH   7  10
ATOM     10  C   UNL     1       1.384   8.788  19.277  0.00  0.00    +0.000 A 
ATOM     11  C   UNL     1       2.210   8.843  18.152  0.00  0.00    +0.000 A 
ATOM     12  C   UNL     1       3.054   7.765  17.870  0.00  0.00    +0.000 A 
ATOM     13  C   UNL     1       3.077   6.650  18.718  0.00  0.00    +0.000 A 
ATOM     14 CL   UNL     1       4.160   5.364  18.318  0.00  0.00    +0.000 Cl
ATOM     15  C   UNL     1       2.245   6.608  19.844  0.00  0.00    +0.000 A 
ATOM     16 CL   UNL     1       2.247   5.277  20.946  0.00  0.00    +0.000 Cl
ATOM     17  C   UNL     1       1.386   7.674  20.122  0.00  0.00    +0.000 A 
ENDBRANCH   7  10
ENDBRANCH   4   7
BRANCH   1  18
ATOM     18  C   UNL     1      -4.107  11.538  17.258  0.00  0.00    +0.000 C 
BRANCH  18  19
ATOM     19  C   UNL     1      -5.458  11.864  17.970  0.00  0.00    +0.000 C 
ATOM     20  C   UNL     1      -6.371  12.684  17.068  0.00  0.00    +0.000 C 
BRANCH  19  27
ATOM     21  C   UNL     1      -7.904  13.973  24.668  0.00  0.00    +0.000 C 
ATOM     22  C   UNL     1      -7.097  14.051  23.414  0.00  0.00    +0.000 A 
ATOM     23  C   UNL     1      -6.219  15.069  23.100  0.00  0.00    +0.000 A 
ATOM     24  S   UNL     1      -5.449  14.834  21.592  0.00  0.00    +0.000 S 
ATOM     25  C   UNL     1      -6.238  13.326  21.338  0.00  0.00    +0.000 A 
ATOM     26  C   UNL     1      -6.118  12.411  20.278  0.00  0.00    +0.000 A 
ATOM     27  N   UNL     1      -5.235  12.583  19.224  0.00  0.00    +0.000 N 
ATOM     28  N   UNL     1      -6.903  11.310  20.324  0.00  0.00    +0.000 NA
ATOM     29  C   UNL     1      -7.727  11.135  21.364  0.00  0.00    +0.000 A 
ATOM     30  N   UNL     1      -7.896  11.941  22.412  0.00  0.00    +0.000 NA
ATOM     31  C   UNL     1      -7.121  13.054  22.382  0.00  0.00    +0.000 A 
ATOM     32  H   UNL     1      -4.682  13.429  19.215  0.00  0.00    +0.000 HD
ENDBRANCH  19  27
ENDBRANCH  18  19
ENDBRANCH   1  18
TORSDOF 5
ENDMDL
MODEL 3
REMARK VINA RESULT:      -7.0      3.554      4.199
REMARK  Name = 
REMARK  7 active torsions:
REMARK  status: ('A' for Active; 'I' for Inactive)
REMARK    1  A    between atoms: C_1  and  C_2
REMARK    2  A    between atoms: N_7  and  C_8
REMARK    3  A    between atoms: C_8  and  C_9
REMARK    4  A    between atoms: C_8  and  C_10
REMARK    5  A    between atoms: C_10  and  N_11
REMARK    6  A    between atoms: N_14  and  S_15
REMARK    7  A    between atoms: S_15  and  C_18
REMARK                            x       y       z     vdW  Elec       q    Type
REMARK                         _______ _______ _______ _____ _____    ______ ____
ROOT
ATOM      1  N   UNL     1       1.075  10.671  20.121  0.00  0.00    +0.000 NA
ATOM      2  C   UNL     1       0.751  11.774  19.206  0.00  0.00    +0.000 C 
ATOM      3  C   UNL     1      -0.422  12.683  19.609  0.00  0.00    +0.000 C 
ATOM      4  N   UNL     1      -0.358  13.071  21.040  0.00  0.00    +0.000 NA
ATOM      5  C   UNL     1      -0.351  11.822  21.871  0.00  0.00    +0.000 C 
ATOM      6  C   UNL     1       0.869  10.946  21.545  0.00  0.00    +0.000 C 
ENDROOT
BRANCH   4   7
ATOM      7  S   UNL     1       0.819  14.232  21.463  0.00  0.00    +0.000 S 
ATOM      8  O   UNL     1       0.389  14.892  22.674  0.00  0.00    +0.000 OA
ATOM      9  O   UNL     1       2.144  13.654  21.363  0.00  0.00    +0.000 OA
BRANCH   7  10
ATOM     10  C   UNL     1       0.662  15.428  20.157  0.00  0.00    +0.000 A 
ATOM     11  C   UNL     1      -0.510  16.174  20.017  0.00  0.00    +0.000 A 
ATOM     12  C   UNL     1      -0.603  17.115  18.987  0.00  0.00    +0.000 A 
ATOM     13  C   UNL     1       0.477  17.313  18.116  0.00  0.00    +0.000 A 
ATOM     14 CL   UNL     1       0.298  18.507  16.880  0.00  0.00    +0.000 Cl
ATOM     15  C   UNL     1       1.648  16.560  18.270  0.00  0.00    +0.000 A 
ATOM     16 CL   UNL     1       3.027  16.776  17.251  0.00  0.00    +0.000 Cl
ATOM     17  C   UNL     1       1.741  15.605  19.286  0.00  0.00    +0.000 A 
ENDBRANCH   7  10
ENDBRANCH   4   7
BRANCH   1  18
ATOM     18  C   UNL     1       0.705   9.339  19.649  0.00  0.00    +0.000 C 
BRANCH  18  19
ATOM     19  C   UNL     1       1.942   8.512  19.174  0.00  0.00    +0.000 C 
ATOM     20  C   UNL     1       2.025   8.471  17.654  0.00  0.00    +0.000 C 
BRANCH  19  27
ATOM     21  C   UNL     1       3.715   1.324  18.487  0.00  0.00    +0.000 C 
ATOM     22  C   UNL     1       2.926   2.505  18.947  0.00  0.00    +0.000 A 
ATOM     23  C   UNL     1       1.773   2.441  19.703  0.00  0.00    +0.000 A 
ATOM     24  S   UNL     1       1.136   3.985  20.067  0.00  0.00    +0.000 S 
ATOM     25  C   UNL     1       2.424   4.791  19.258  0.00  0.00    +0.000 A 
ATOM     26  C   UNL     1       2.682   6.165  19.116  0.00  0.00    +0.000 A 
ATOM     27  N   UNL     1       1.900   7.148  19.700  0.00  0.00    +0.000 N 
ATOM     28  N   UNL     1       3.764   6.515  18.382  0.00  0.00    +0.000 NA
ATOM     29  C   UNL     1       4.535   5.558  17.853  0.00  0.00    +0.000 A 
ATOM     30  N   UNL     1       4.372   4.238  17.946  0.00  0.00    +0.000 NA
ATOM     31  C   UNL     1       3.289   3.867  18.674  0.00  0.00    +0.000 A 
ATOM     32  H   UNL     1       1.088   6.847  20.222  0.00  0.00    +0.000 HD
ENDBRANCH  19  27
ENDBRANCH  18  19
ENDBRANCH   1  18
TORSDOF 5
ENDMDL
MODEL 4
REMARK VINA RESULT:      -6.9      5.345     10.569
REMARK  Name = 
REMARK  7 active torsions:
REMARK  status: ('A' for Active; 'I' for Inactive)
REMARK    1  A    between atoms: C_1  and  C_2
REMARK    2  A    between atoms: N_7  and  C_8
REMARK    3  A    between atoms: C_8  and  C_9
REMARK    4  A    between atoms: C_8  and  C_10
REMARK    5  A    between atoms: C_10  and  N_11
REMARK    6  A    between atoms: N_14  and  S_15
REMARK    7  A    between atoms: S_15  and  C_18
REMARK                            x       y       z     vdW  Elec       q    Type
REMARK                         _______ _______ _______ _____ _____    ______ ____
ROOT
ATOM      1  N   UNL     1       1.824   6.899  20.375  0.00  0.00    +0.000 NA
ATOM      2  C   UNL     1       1.508   5.550  20.864  0.00  0.00    +0.000 C 
ATOM      3  C   UNL     1       1.321   4.456  19.798  0.00  0.00    +0.000 C 
ATOM      4  N   UNL     1       2.382   4.501  18.763  0.00  0.00    +0.000 NA
ATOM      5  C   UNL     1       2.370   5.861  18.129  0.00  0.00    +0.000 C 
ATOM      6  C   UNL     1       2.650   6.959  19.167  0.00  0.00    +0.000 C 
ENDROOT
BRANCH   4   7
ATOM      7  S   UNL     1       3.923   3.928  19.225  0.00  0.00    +0.000 S 
ATOM      8  O   UNL     1       4.408   4.756  20.306  0.00  0.00    +0.000 OA
ATOM      9  O   UNL     1       3.898   2.485  19.349  0.00  0.00    +0.000 OA
BRANCH   7  10
ATOM     10  C   UNL     1       4.918   4.322  17.806  0.00  0.00    +0.000 A 
ATOM     11  C   UNL     1       4.789   3.589  16.625  0.00  0.00    +0.000 A 
ATOM     12  C   UNL     1       5.576   3.926  15.520  0.00  0.00    +0.000 A 
ATOM     13  C   UNL     1       6.474   4.999  15.599  0.00  0.00    +0.000 A 
ATOM     14 CL   UNL     1       7.400   5.371  14.188  0.00  0.00    +0.000 Cl
ATOM     15  C   UNL     1       6.592   5.728  16.789  0.00  0.00    +0.000 A 
ATOM     16 CL   UNL     1       7.656   7.081  16.943  0.00  0.00    +0.000 Cl
ATOM     17  C   UNL     1       5.821   5.385  17.902  0.00  0.00    +0.000 A 
ENDBRANCH   7  10
ENDBRANCH   4   7
BRANCH   1  18
ATOM     18  C   UNL     1       0.736   7.870  20.478  0.00  0.00    +0.000 C 
BRANCH  18  19
ATOM     19  C   UNL     1       1.212   9.234  21.071  0.00  0.00    +0.000 C 
ATOM     20  C   UNL     1       1.460   9.124  22.569  0.00  0.00    +0.000 C 
BRANCH  19  27
ATOM     21  C   UNL     1      -0.304  16.080  18.600  0.00  0.00    +0.000 C 
ATOM     22  C   UNL     1      -0.499  14.837  19.403  0.00  0.00    +0.000 A 
ATOM     23  C   UNL     1      -1.505  14.639  20.327  0.00  0.00    +0.000 A 
ATOM     24  S   UNL     1      -1.441  13.093  21.053  0.00  0.00    +0.000 S 
ATOM     25  C   UNL     1      -0.082  12.622  20.107  0.00  0.00    +0.000 A 
ATOM     26  C   UNL     1       0.611  11.401  20.069  0.00  0.00    +0.000 A 
ATOM     27  N   UNL     1       0.237  10.292  20.812  0.00  0.00    +0.000 N 
ATOM     28  N   UNL     1       1.683  11.327  19.246  0.00  0.00    +0.000 NA
ATOM     29  C   UNL     1       2.015  12.391  18.506  0.00  0.00    +0.000 A 
ATOM     30  N   UNL     1       1.410  13.578  18.471  0.00  0.00    +0.000 NA
ATOM     31  C   UNL     1       0.336  13.674  19.294  0.00  0.00    +0.000 A 
ATOM     32  H   UNL     1      -0.555  10.394  21.431  0.00  0.00    +0.000 HD
ENDBRANCH  19  27
ENDBRANCH  18  19
ENDBRANCH   1  18
TORSDOF 5
ENDMDL
MODEL 5
REMARK VINA RESULT:      -6.9      5.674     10.711
REMARK  Name = 
REMARK  7 active torsions:
REMARK  status: ('A' for Active; 'I' for Inactive)
REMARK    1  A    between atoms: C_1  and  C_2
REMARK    2  A    between atoms: N_7  and  C_8
REMARK    3  A    between atoms: C_8  and  C_9
REMARK    4  A    between atoms: C_8  and  C_10
REMARK    5  A    between atoms: C_10  and  N_11
REMARK    6  A    between atoms: N_14  and  S_15
REMARK    7  A    between atoms: S_15  and  C_18
REMARK                            x       y       z     vdW  Elec       q    Type
REMARK                         _______ _______ _______ _____ _____    ______ ____
ROOT
ATOM      1  N   UNL     1       1.955   6.415  20.284  0.00  0.00    +0.000 NA
ATOM      2  C   UNL     1       1.607   4.990  20.358  0.00  0.00    +0.000 C 
ATOM      3  C   UNL     1       1.510   4.233  19.022  0.00  0.00    +0.000 C 
ATOM      4  N   UNL     1       2.651   4.541  18.125  0.00  0.00    +0.000 NA
ATOM      5  C   UNL     1       2.683   6.022  17.890  0.00  0.00    +0.000 C 
ATOM      6  C   UNL     1       2.875   6.790  19.207  0.00  0.00    +0.000 C 
ENDROOT
BRANCH   4   7
ATOM      7  S   UNL     1       4.152   3.837  18.531  0.00  0.00    +0.000 S 
ATOM      8  O   UNL     1       4.669   4.514  19.698  0.00  0.00    +0.000 OA
ATOM      9  O   UNL     1       4.047   2.392  18.498  0.00  0.00    +0.000 OA
BRANCH   7  10
ATOM     10  C   UNL     1       5.184   4.325  17.169  0.00  0.00    +0.000 A 
ATOM     11  C   UNL     1       6.311   5.120  17.384  0.00  0.00    +0.000 A 
ATOM     12  C   UNL     1       7.112   5.481  16.296  0.00  0.00    +0.000 A 
ATOM     13  C   UNL     1       6.788   5.037  15.007  0.00  0.00    +0.000 A 
ATOM     14 CL   UNL     1       7.833   5.506  13.714  0.00  0.00    +0.000 Cl
ATOM     15  C   UNL     1       5.655   4.238  14.805  0.00  0.00    +0.000 A 
ATOM     16 CL   UNL     1       5.216   3.631  13.248  0.00  0.00    +0.000 Cl
ATOM     17  C   UNL     1       4.841   3.888  15.886  0.00  0.00    +0.000 A 
ENDBRANCH   7  10
ENDBRANCH   4   7
BRANCH   1  18
ATOM     18  C   UNL     1       0.859   7.340  20.564  0.00  0.00    +0.000 C 
BRANCH  18  19
ATOM     19  C   UNL     1       1.366   8.778  20.900  0.00  0.00    +0.000 C 
ATOM     20  C   UNL     1       1.782   8.886  22.361  0.00  0.00    +0.000 C 
BRANCH  19  27
ATOM     21  C   UNL     1      -0.417  15.617  18.589  0.00  0.00    +0.000 C 
ATOM     22  C   UNL     1      -0.587  14.328  19.324  0.00  0.00    +0.000 A 
ATOM     23  C   UNL     1      -1.647  14.025  20.156  0.00  0.00    +0.000 A 
ATOM     24  S   UNL     1      -1.534  12.456  20.822  0.00  0.00    +0.000 S 
ATOM     25  C   UNL     1      -0.077  12.116  19.971  0.00  0.00    +0.000 A 
ATOM     26  C   UNL     1       0.699  10.945  19.940  0.00  0.00    +0.000 A 
ATOM     27  N   UNL     1       0.345   9.782  20.606  0.00  0.00    +0.000 N 
ATOM     28  N   UNL     1       1.834  10.978  19.203  0.00  0.00    +0.000 NA
ATOM     29  C   UNL     1       2.148  12.093  18.535  0.00  0.00    +0.000 A 
ATOM     30  N   UNL     1       1.469  13.239  18.498  0.00  0.00    +0.000 NA
ATOM     31  C   UNL     1       0.331  13.228  19.236  0.00  0.00    +0.000 A 
ATOM     32  H   UNL     1      -0.498   9.805  21.163  0.00  0.00    +0.000 HD
ENDBRANCH  19  27
ENDBRANCH  18  19
ENDBRANCH   1  18
TORSDOF 5
ENDMDL
MODEL 6
REMARK VINA RESULT:      -6.9      6.442      8.278
REMARK  Name = 
REMARK  7 active torsions:
REMARK  status: ('A' for Active; 'I' for Inactive)
REMARK    1  A    between atoms: C_1  and  C_2
REMARK    2  A    between atoms: N_7  and  C_8
REMARK    3  A    between atoms: C_8  and  C_9
REMARK    4  A    between atoms: C_8  and  C_10
REMARK    5  A    between atoms: C_10  and  N_11
REMARK    6  A    between atoms: N_14  and  S_15
REMARK    7  A    between atoms: S_15  and  C_18
REMARK                            x       y       z     vdW  Elec       q    Type
REMARK                         _______ _______ _______ _____ _____    ______ ____
ROOT
ATOM      1  N   UNL     1       3.601  14.403  19.903  0.00  0.00    +0.000 NA
ATOM      2  C   UNL     1       3.039  14.296  21.256  0.00  0.00    +0.000 C 
ATOM      3  C   UNL     1       1.534  14.583  21.402  0.00  0.00    +0.000 C 
ATOM      4  N   UNL     1       0.735  13.910  20.349  0.00  0.00    +0.000 NA
ATOM      5  C   UNL     1       1.231  14.370  19.010  0.00  0.00    +0.000 C 
ATOM      6  C   UNL     1       2.710  14.005  18.811  0.00  0.00    +0.000 C 
ENDROOT
BRANCH   4   7
ATOM      7  S   UNL     1       0.531  12.223  20.509  0.00  0.00    +0.000 S 
ATOM      8  O   UNL     1       1.532  11.567  19.699  0.00  0.00    +0.000 OA
ATOM      9  O   UNL     1       0.361  11.874  21.904  0.00  0.00    +0.000 OA
BRANCH   7  10
ATOM     10  C   UNL     1      -1.028  11.949  19.699  0.00  0.00    +0.000 A 
ATOM     11  C   UNL     1      -2.184  12.583  20.157  0.00  0.00    +0.000 A 
ATOM     12  C   UNL     1      -3.396  12.358  19.496  0.00  0.00    +0.000 A 
ATOM     13  C   UNL     1      -3.440  11.514  18.378  0.00  0.00    +0.000 A 
ATOM     14 CL   UNL     1      -4.967  11.298  17.600  0.00  0.00    +0.000 Cl
ATOM     15  C   UNL     1      -2.272  10.885  17.928  0.00  0.00    +0.000 A 
ATOM     16 CL   UNL     1      -2.251   9.858  16.539  0.00  0.00    +0.000 Cl
ATOM     17  C   UNL     1      -1.061  11.092  18.595  0.00  0.00    +0.000 A 
ENDBRANCH   7  10
ENDBRANCH   4   7
BRANCH   1  18
ATOM     18  C   UNL     1       4.445  15.573  19.670  0.00  0.00    +0.000 C 
BRANCH  18  19
ATOM     19  C   UNL     1       5.811  15.480  20.421  0.00  0.00    +0.000 C 
ATOM     20  C   UNL     1       6.296  16.857  20.853  0.00  0.00    +0.000 C 
BRANCH  19  27
ATOM     21  C   UNL     1      12.331  11.949  19.859  0.00  0.00    +0.000 C 
ATOM     22  C   UNL     1      11.184  12.794  19.410  0.00  0.00    +0.000 A 
ATOM     23  C   UNL     1      11.088  13.409  18.178  0.00  0.00    +0.000 A 
ATOM     24  S   UNL     1       9.633  14.287  17.991  0.00  0.00    +0.000 S 
ATOM     25  C   UNL     1       9.064  13.825  19.549  0.00  0.00    +0.000 A 
ATOM     26  C   UNL     1       7.849  14.119  20.190  0.00  0.00    +0.000 A 
ATOM     27  N   UNL     1       6.830  14.840  19.590  0.00  0.00    +0.000 N 
ATOM     28  N   UNL     1       7.688  13.647  21.448  0.00  0.00    +0.000 NA
ATOM     29  C   UNL     1       8.664  12.921  22.006  0.00  0.00    +0.000 A 
ATOM     30  N   UNL     1       9.837  12.586  21.469  0.00  0.00    +0.000 NA
ATOM     31  C   UNL     1      10.019  13.054  20.209  0.00  0.00    +0.000 A 
ATOM     32  H   UNL     1       6.997  15.193  18.658  0.00  0.00    +0.000 HD
ENDBRANCH  19  27
ENDBRANCH  18  19
ENDBRANCH   1  18
TORSDOF 5
ENDMDL
MODEL 7
REMARK VINA RESULT:      -6.9      2.220      3.077
REMARK  Name = 
REMARK  7 active torsions:
REMARK  status: ('A' for Active; 'I' for Inactive)
REMARK    1  A    between atoms: C_1  and  C_2
REMARK    2  A    between atoms: N_7  and  C_8
REMARK    3  A    between atoms: C_8  and  C_9
REMARK    4  A    between atoms: C_8  and  C_10
REMARK    5  A    between atoms: C_10  and  N_11
REMARK    6  A    between atoms: N_14  and  S_15
REMARK    7  A    between atoms: S_15  and  C_18
REMARK                            x       y       z     vdW  Elec       q    Type
REMARK                         _______ _______ _______ _____ _____    ______ ____
ROOT
ATOM      1  N   UNL     1      -0.582  10.440  19.497  0.00  0.00    +0.000 NA
ATOM      2  C   UNL     1       0.244  10.612  20.700  0.00  0.00    +0.000 C 
ATOM      3  C   UNL     1       0.436  12.053  21.204  0.00  0.00    +0.000 C 
ATOM      4  N   UNL     1      -0.838  12.812  21.220  0.00  0.00    +0.000 NA
ATOM      5  C   UNL     1      -1.408  12.812  19.832  0.00  0.00    +0.000 C 
ATOM      6  C   UNL     1      -1.695  11.381  19.350  0.00  0.00    +0.000 C 
ENDROOT
BRANCH   4   7
ATOM      7  S   UNL     1      -1.944  12.419  22.460  0.00  0.00    +0.000 S 
ATOM      8  O   UNL     1      -3.239  12.198  21.858  0.00  0.00    +0.000 OA
ATOM      9  O   UNL     1      -1.361  11.435  23.349  0.00  0.00    +0.000 OA
BRANCH   7  10
ATOM     10  C   UNL     1      -2.064  13.946  23.362  0.00  0.00    +0.000 A 
ATOM     11  C   UNL     1      -0.912  14.605  23.795  0.00  0.00    +0.000 A 
ATOM     12  C   UNL     1      -1.034  15.810  24.493  0.00  0.00    +0.000 A 
ATOM     13  C   UNL     1      -2.301  16.352  24.743  0.00  0.00    +0.000 A 
ATOM     14 CL   UNL     1      -2.375  17.853  25.594  0.00  0.00    +0.000 Cl
ATOM     15  C   UNL     1      -3.449  15.682  24.301  0.00  0.00    +0.000 A 
ATOM     16 CL   UNL     1      -5.040  16.310  24.548  0.00  0.00    +0.000 Cl
ATOM     17  C   UNL     1      -3.335  14.468  23.618  0.00  0.00    +0.000 A 
ENDBRANCH   7  10
ENDBRANCH   4   7
BRANCH   1  18
ATOM     18  C   UNL     1       0.152  10.095  18.281  0.00  0.00    +0.000 C 
BRANCH  18  19
ATOM     19  C   UNL     1       1.696  10.045  18.513  0.00  0.00    +0.000 C 
ATOM     20  C   UNL     1       2.372  11.300  17.980  0.00  0.00    +0.000 C 
BRANCH  19  27
ATOM     21  C   UNL     1       4.679   3.264  19.152  0.00  0.00    +0.000 C 
ATOM     22  C   UNL     1       4.420   4.597  18.530  0.00  0.00    +0.000 A 
ATOM     23  C   UNL     1       5.011   5.059  17.371  0.00  0.00    +0.000 A 
ATOM     24  S   UNL     1       4.475   6.621  16.934  0.00  0.00    +0.000 S 
ATOM     25  C   UNL     1       3.390   6.706  18.268  0.00  0.00    +0.000 A 
ATOM     26  C   UNL     1       2.487   7.717  18.635  0.00  0.00    +0.000 A 
ATOM     27  N   UNL     1       2.287   8.864  17.885  0.00  0.00    +0.000 N 
ATOM     28  N   UNL     1       1.779   7.527  19.773  0.00  0.00    +0.000 NA
ATOM     29  C   UNL     1       1.953   6.399  20.472  0.00  0.00    +0.000 A 
ATOM     30  N   UNL     1       2.775   5.388  20.193  0.00  0.00    +0.000 NA
ATOM     31  C   UNL     1       3.497   5.562  19.058  0.00  0.00    +0.000 A 
ATOM     32  H   UNL     1       2.850   8.980  17.053  0.00  0.00    +0.000 HD
ENDBRANCH  19  27
ENDBRANCH  18  19
ENDBRANCH   1  18
TORSDOF 5
ENDMDL
MODEL 8
REMARK VINA RESULT:      -6.8      5.922     11.127
REMARK  Name = 
REMARK  7 active torsions:
REMARK  status: ('A' for Active; 'I' for Inactive)
REMARK    1  A    between atoms: C_1  and  C_2
REMARK    2  A    between atoms: N_7  and  C_8
REMARK    3  A    between atoms: C_8  and  C_9
REMARK    4  A    between atoms: C_8  and  C_10
REMARK    5  A    between atoms: C_10  and  N_11
REMARK    6  A    between atoms: N_14  and  S_15
REMARK    7  A    between atoms: S_15  and  C_18
REMARK                            x       y       z     vdW  Elec       q    Type
REMARK                         _______ _______ _______ _____ _____    ______ ____
ROOT
ATOM      1  N   UNL     1       2.382   6.808  18.836  0.00  0.00    +0.000 NA
ATOM      2  C   UNL     1       3.541   6.912  17.940  0.00  0.00    +0.000 C 
ATOM      3  C   UNL     1       4.780   6.080  18.314  0.00  0.00    +0.000 C 
ATOM      4  N   UNL     1       4.422   4.692  18.697  0.00  0.00    +0.000 NA
ATOM      5  C   UNL     1       3.460   4.750  19.847  0.00  0.00    +0.000 C 
ATOM      6  C   UNL     1       2.175   5.498  19.458  0.00  0.00    +0.000 C 
ENDROOT
BRANCH   4   7
ATOM      7  S   UNL     1       3.975   3.642  17.428  0.00  0.00    +0.000 S 
ATOM      8  O   UNL     1       4.297   2.290  17.824  0.00  0.00    +0.000 OA
ATOM      9  O   UNL     1       2.650   3.979  16.950  0.00  0.00    +0.000 OA
BRANCH   7  10
ATOM     10  C   UNL     1       5.128   4.078  16.147  0.00  0.00    +0.000 A 
ATOM     11  C   UNL     1       6.320   4.734  16.461  0.00  0.00    +0.000 A 
ATOM     12  C   UNL     1       7.214   5.056  15.436  0.00  0.00    +0.000 A 
ATOM     13  C   UNL     1       6.918   4.711  14.111  0.00  0.00    +0.000 A 
ATOM     14 CL   UNL     1       8.079   5.123  12.900  0.00  0.00    +0.000 Cl
ATOM     15  C   UNL     1       5.720   4.052  13.810  0.00  0.00    +0.000 A 
ATOM     16 CL   UNL     1       5.308   3.570  12.202  0.00  0.00    +0.000 Cl
ATOM     17  C   UNL     1       4.813   3.742  14.827  0.00  0.00    +0.000 A 
ENDBRANCH   7  10
ENDBRANCH   4   7
BRANCH   1  18
ATOM     18  C   UNL     1       2.134   7.980  19.674  0.00  0.00    +0.000 C 
BRANCH  18  19
ATOM     19  C   UNL     1       1.164   9.000  18.997  0.00  0.00    +0.000 C 
ATOM     20  C   UNL     1       1.914   9.925  18.049  0.00  0.00    +0.000 C 
BRANCH  19  27
ATOM     21  C   UNL     1      -4.046  14.041  20.645  0.00  0.00    +0.000 C 
ATOM     22  C   UNL     1      -2.792  13.254  20.830  0.00  0.00    +0.000 A 
ATOM     23  C   UNL     1      -1.897  13.421  21.868  0.00  0.00    +0.000 A 
ATOM     24  S   UNL     1      -0.576  12.340  21.782  0.00  0.00    +0.000 S 
ATOM     25  C   UNL     1      -1.194  11.578  20.367  0.00  0.00    +0.000 A 
ATOM     26  C   UNL     1      -0.686  10.495  19.630  0.00  0.00    +0.000 A 
ATOM     27  N   UNL     1       0.451   9.795  19.997  0.00  0.00    +0.000 N 
ATOM     28  N   UNL     1      -1.372  10.130  18.522  0.00  0.00    +0.000 NA
ATOM     29  C   UNL     1      -2.489  10.789  18.196  0.00  0.00    +0.000 A 
ATOM     30  N   UNL     1      -3.046  11.815  18.840  0.00  0.00    +0.000 NA
ATOM     31  C   UNL     1      -2.370  12.199  19.951  0.00  0.00    +0.000 A 
ATOM     32  H   UNL     1       0.948  10.112  20.818  0.00  0.00    +0.000 HD
ENDBRANCH  19  27
ENDBRANCH  18  19
ENDBRANCH   1  18
TORSDOF 5
ENDMDL
MODEL 9
REMARK VINA RESULT:      -6.8      3.486      4.676
REMARK  Name = 
REMARK  7 active torsions:
REMARK  status: ('A' for Active; 'I' for Inactive)
REMARK    1  A    between atoms: C_1  and  C_2
REMARK    2  A    between atoms: N_7  and  C_8
REMARK    3  A    between atoms: C_8  and  C_9
REMARK    4  A    between atoms: C_8  and  C_10
REMARK    5  A    between atoms: C_10  and  N_11
REMARK    6  A    between atoms: N_14  and  S_15
REMARK    7  A    between atoms: S_15  and  C_18
REMARK                            x       y       z     vdW  Elec       q    Type
REMARK                         _______ _______ _______ _____ _____    ______ ____
ROOT
ATOM      1  N   UNL     1      -0.080  10.862  21.566  0.00  0.00    +0.000 NA
ATOM      2  C   UNL     1       0.260  11.655  20.376  0.00  0.00    +0.000 C 
ATOM      3  C   UNL     1      -0.781  12.691  19.917  0.00  0.00    +0.000 C 
ATOM      4  N   UNL     1      -1.314  13.483  21.052  0.00  0.00    +0.000 NA
ATOM      5  C   UNL     1      -1.916  12.539  22.050  0.00  0.00    +0.000 C 
ATOM      6  C   UNL     1      -0.865  11.556  22.589  0.00  0.00    +0.000 C 
ENDROOT
BRANCH   4   7
ATOM      7  S   UNL     1      -0.275  14.669  21.709  0.00  0.00    +0.000 S 
ATOM      8  O   UNL     1      -1.026  15.448  22.666  0.00  0.00    +0.000 OA
ATOM      9  O   UNL     1       0.993  14.069  22.071  0.00  0.00    +0.000 OA
BRANCH   7  10
ATOM     10  C   UNL     1       0.019  15.732  20.316  0.00  0.00    +0.000 A 
ATOM     11  C   UNL     1       1.240  15.693  19.640  0.00  0.00    +0.000 A 
ATOM     12  C   UNL     1       1.441  16.533  18.541  0.00  0.00    +0.000 A 
ATOM     13  C   UNL     1       0.420  17.394  18.118  0.00  0.00    +0.000 A 
ATOM     14 CL   UNL     1       0.732  18.389  16.741  0.00  0.00    +0.000 Cl
ATOM     15  C   UNL     1      -0.801  17.423  18.804  0.00  0.00    +0.000 A 
ATOM     16 CL   UNL     1      -2.112  18.438  18.317  0.00  0.00    +0.000 Cl
ATOM     17  C   UNL     1      -1.003  16.598  19.914  0.00  0.00    +0.000 A 
ENDBRANCH   7  10
ENDBRANCH   4   7
BRANCH   1  18
ATOM     18  C   UNL     1      -0.425   9.466  21.307  0.00  0.00    +0.000 C 
BRANCH  18  19
ATOM     19  C   UNL     1       0.799   8.510  21.473  0.00  0.00    +0.000 C 
ATOM     20  C   UNL     1       1.873   9.141  22.348  0.00  0.00    +0.000 C 
BRANCH  19  27
ATOM     21  C   UNL     1       4.807   3.833  17.309  0.00  0.00    +0.000 C 
ATOM     22  C   UNL     1       4.201   5.137  17.712  0.00  0.00    +0.000 A 
ATOM     23  C   UNL     1       4.392   6.336  17.055  0.00  0.00    +0.000 A 
ATOM     24  S   UNL     1       3.536   7.627  17.777  0.00  0.00    +0.000 S 
ATOM     25  C   UNL     1       2.840   6.600  18.970  0.00  0.00    +0.000 A 
ATOM     26  C   UNL     1       1.927   6.897  19.995  0.00  0.00    +0.000 A 
ATOM     27  N   UNL     1       1.371   8.153  20.176  0.00  0.00    +0.000 N 
ATOM     28  N   UNL     1       1.580   5.883  20.822  0.00  0.00    +0.000 NA
ATOM     29  C   UNL     1       2.095   4.666  20.618  0.00  0.00    +0.000 A 
ATOM     30  N   UNL     1       2.954   4.294  19.669  0.00  0.00    +0.000 NA
ATOM     31  C   UNL     1       3.318   5.298  18.833  0.00  0.00    +0.000 A 
ATOM     32  H   UNL     1       1.672   8.889  19.551  0.00  0.00    +0.000 HD
ENDBRANCH  19  27
ENDBRANCH  18  19
ENDBRANCH   1  18
TORSDOF 5
ENDMDL
