MODEL 1
REMARK VINA RESULT:      -7.1      0.000      0.000
REMARK  Name = 
REMARK  11 active torsions:
REMARK  status: ('A' for Active; 'I' for Inactive)
REMARK    1  A    between atoms: C_1  and  C_2
REMARK    2  A    between atoms: C_2  and  O_3
REMARK    3  A    between atoms: O_3  and  C_4
REMARK    4  A    between atoms: C_4  and  C_6
REMARK    5  A    between atoms: C_6  and  C_7
REMARK    6  A    between atoms: C_7  and  C_8
REMARK    7  A    between atoms: C_9  and  C_10
REMARK    8  A    between atoms: C_17  and  N_18
REMARK    9  A    between atoms: N_21  and  C_22
REMARK   10  A    between atoms: C_22  and  C_23
REMARK   11  A    between atoms: C_22  and  C_24
REMARK                            x       y       z     vdW  Elec       q    Type
REMARK                         _______ _______ _______ _____ _____    ______ ____
ROOT
ATOM      1  C   UNL     1       3.978   5.374  17.397  0.00  0.00    +0.000 A 
ATOM      2  C   UNL     1       4.436   4.022  16.842  0.00  0.00    +0.000 A 
ATOM      3  C   UNL     1       5.648   3.895  15.927  0.00  0.00    +0.000 C 
ATOM      4  N   UNL     1       3.868   2.880  17.076  0.00  0.00    +0.000 NA
ATOM      5  C   UNL     1       2.771   2.881  17.862  0.00  0.00    +0.000 A 
ATOM      6  N   UNL     1       2.045   1.848  18.226  0.00  0.00    +0.000 NA
ATOM      7  C   UNL     1       1.065   2.406  18.967  0.00  0.00    +0.000 A 
ATOM      8  N   UNL     1       1.099   3.727  19.091  0.00  0.00    +0.000 NA
ATOM      9  N   UNL     1       2.244   4.056  18.399  0.00  0.00    +0.000 N 
ATOM     10  C   UNL     1       2.851   5.347  18.177  0.00  0.00    +0.000 A 
ENDROOT
BRANCH  10  11
ATOM     11  N   UNL     1       2.257   6.484  18.801  0.00  0.00    +0.000 N 
ATOM     12  C   UNL     1       1.741   6.460  20.201  0.00  0.00    +0.000 C 
ATOM     13  C   UNL     1       2.006   7.827  20.887  0.00  0.00    +0.000 C 
ATOM     14  N   UNL     1       1.510   9.037  20.180  0.00  0.00    +0.000 NA
ATOM     15  C   UNL     1       1.916   8.940  18.760  0.00  0.00    +0.000 C 
ATOM     16  C   UNL     1       1.603   7.590  18.065  0.00  0.00    +0.000 C 
BRANCH  14  17
ATOM     17  C   UNL     1       0.066   9.316  20.337  0.00  0.00    +0.000 C 
ATOM     18  C   UNL     1      -0.343   9.341  21.819  0.00  0.00    +0.000 C 
BRANCH  17  19
ATOM     19  C   UNL     1      -0.320  10.665  19.712  0.00  0.00    +0.000 A 
ATOM     20  C   UNL     1      -1.236  10.713  18.648  0.00  0.00    +0.000 A 
ATOM     21  C   UNL     1      -1.552  11.927  18.033  0.00  0.00    +0.000 A 
ATOM     22  C   UNL     1      -0.961  13.111  18.469  0.00  0.00    +0.000 A 
ATOM     23  C   UNL     1      -0.045  13.083  19.518  0.00  0.00    +0.000 A 
ATOM     24  C   UNL     1       0.277  11.869  20.133  0.00  0.00    +0.000 A 
ENDBRANCH  17  19
ENDBRANCH  14  17
ENDBRANCH  10  11
BRANCH   1  25
ATOM     25  C   UNL     1       4.786   6.597  17.012  0.00  0.00    +0.000 C 
BRANCH  25  26
ATOM     26  C   UNL     1       6.018   6.994  17.809  0.00  0.00    +0.000 C 
BRANCH  26  27
ATOM     27  C   UNL     1       7.284   7.327  17.071  0.00  0.00    +0.000 C 
ATOM     28  O   UNL     1       7.913   6.586  16.336  0.00  0.00    +0.000 OA
BRANCH  27  29
ATOM     29  O   UNL     1       7.568   8.637  17.345  0.00  0.00    +0.000 OA
BRANCH  29  31
ATOM     30  C   UNL     1       8.956  10.364  18.315  0.00  0.00    +0.000 C 
ATOM     31  C   UNL     1       8.493   8.923  18.398  0.00  0.00    +0.000 C 
ENDBRANCH  29  31
ENDBRANCH  27  29
ENDBRANCH  26  27
ENDBRANCH  25  26
ENDBRANCH   1  25
TORSDOF 8
ENDMDL
MODEL 2
REMARK VINA RESULT:      -7.0      0.788      1.173
REMARK  Name = 
REMARK  11 active torsions:
REMARK  status: ('A' for Active; 'I' for Inactive)
REMARK    1  A    between atoms: C_1  and  C_2
REMARK    2  A    between atoms: C_2  and  O_3
REMARK    3  A    between atoms: O_3  and  C_4
REMARK    4  A    between atoms: C_4  and  C_6
REMARK    5  A    between atoms: C_6  and  C_7
REMARK    6  A    between atoms: C_7  and  C_8
REMARK    7  A    between atoms: C_9  and  C_10
REMARK    8  A    between atoms: C_17  and  N_18
REMARK    9  A    between atoms: N_21  and  C_22
REMARK   10  A    between atoms: C_22  and  C_23
REMARK   11  A    between atoms: C_22  and  C_24
REMARK                            x       y       z     vdW  Elec       q    Type
REMARK                         _______ _______ _______ _____ _____    ______ ____
ROOT
ATOM      1  C   UNL     1       4.282   5.500  17.433  0.00  0.00    +0.000 A 
ATOM      2  C   UNL     1       4.792   4.184  16.838  0.00  0.00    +0.000 A 
ATOM      3  C   UNL     1       6.078   4.113  16.023  0.00  0.00    +0.000 C 
ATOM      4  N   UNL     1       4.213   3.030  16.954  0.00  0.00    +0.000 NA
ATOM      5  C   UNL     1       3.053   2.983  17.644  0.00  0.00    +0.000 A 
ATOM      6  N   UNL     1       2.304   1.930  17.881  0.00  0.00    +0.000 NA
ATOM      7  C   UNL     1       1.262   2.442  18.569  0.00  0.00    +0.000 A 
ATOM      8  N   UNL     1       1.279   3.753  18.775  0.00  0.00    +0.000 NA
ATOM      9  N   UNL     1       2.476   4.124  18.204  0.00  0.00    +0.000 N 
ATOM     10  C   UNL     1       3.094   5.425  18.113  0.00  0.00    +0.000 A 
ENDROOT
BRANCH  10  11
ATOM     11  N   UNL     1       2.443   6.523  18.752  0.00  0.00    +0.000 N 
ATOM     12  C   UNL     1       1.869   6.432  20.126  0.00  0.00    +0.000 C 
ATOM     13  C   UNL     1       2.067   7.777  20.874  0.00  0.00    +0.000 C 
ATOM     14  N   UNL     1       1.570   9.001  20.192  0.00  0.00    +0.000 NA
ATOM     15  C   UNL     1       2.039   8.969  18.788  0.00  0.00    +0.000 C 
ATOM     16  C   UNL     1       1.793   7.639  18.030  0.00  0.00    +0.000 C 
BRANCH  14  17
ATOM     17  C   UNL     1       0.114   9.238  20.295  0.00  0.00    +0.000 C 
ATOM     18  C   UNL     1      -0.347   9.271  21.762  0.00  0.00    +0.000 C 
BRANCH  17  19
ATOM     19  C   UNL     1      -0.290  10.566  19.637  0.00  0.00    +0.000 A 
ATOM     20  C   UNL     1       0.192  11.782  20.148  0.00  0.00    +0.000 A 
ATOM     21  C   UNL     1      -0.213  13.000  19.595  0.00  0.00    +0.000 A 
ATOM     22  C   UNL     1      -1.104  13.022  18.523  0.00  0.00    +0.000 A 
ATOM     23  C   UNL     1      -1.598  11.827  18.007  0.00  0.00    +0.000 A 
ATOM     24  C   UNL     1      -1.198  10.608  18.561  0.00  0.00    +0.000 A 
ENDBRANCH  17  19
ENDBRANCH  14  17
ENDBRANCH  10  11
BRANCH   1  25
ATOM     25  C   UNL     1       5.114   6.744  17.194  0.00  0.00    +0.000 C 
BRANCH  25  26
ATOM     26  C   UNL     1       6.630   6.664  17.133  0.00  0.00    +0.000 C 
BRANCH  26  27
ATOM     27  C   UNL     1       7.391   6.355  18.392  0.00  0.00    +0.000 C 
ATOM     28  O   UNL     1       7.336   5.325  19.040  0.00  0.00    +0.000 OA
BRANCH  27  29
ATOM     29  O   UNL     1       8.194   7.435  18.642  0.00  0.00    +0.000 OA
BRANCH  29  31
ATOM     30  C   UNL     1       8.759   9.777  18.437  0.00  0.00    +0.000 C 
ATOM     31  C   UNL     1       8.053   8.591  17.812  0.00  0.00    +0.000 C 
ENDBRANCH  29  31
ENDBRANCH  27  29
ENDBRANCH  26  27
ENDBRANCH  25  26
ENDBRANCH   1  25
TORSDOF 8
ENDMDL
MODEL 3
REMARK VINA RESULT:      -7.0      3.054      8.076
REMARK  Name = 
REMARK  11 active torsions:
REMARK  status: ('A' for Active; 'I' for Inactive)
REMARK    1  A    between atoms: C_1  and  C_2
REMARK    2  A    between atoms: C_2  and  O_3
REMARK    3  A    between atoms: O_3  and  C_4
REMARK    4  A    between atoms: C_4  and  C_6
REMARK    5  A    between atoms: C_6  and  C_7
REMARK    6  A    between atoms: C_7  and  C_8
REMARK    7  A    between atoms: C_9  and  C_10
REMARK    8  A    between atoms: C_17  and  N_18
REMARK    9  A    between atoms: N_21  and  C_22
REMARK   10  A    between atoms: C_22  and  C_23
REMARK   11  A    between atoms: C_22  and  C_24
REMARK                            x       y       z     vdW  Elec       q    Type
REMARK                         _______ _______ _______ _____ _____    ______ ____
ROOT
ATOM      1  C   UNL     1       3.191   6.239  18.864  0.00  0.00    +0.000 A 
ATOM      2  C   UNL     1       2.332   6.150  20.129  0.00  0.00    +0.000 A 
ATOM      3  C   UNL     1       1.514   7.333  20.633  0.00  0.00    +0.000 C 
ATOM      4  N   UNL     1       2.210   5.104  20.885  0.00  0.00    +0.000 NA
ATOM      5  C   UNL     1       2.910   4.002  20.539  0.00  0.00    +0.000 A 
ATOM      6  N   UNL     1       2.935   2.842  21.156  0.00  0.00    +0.000 NA
ATOM      7  C   UNL     1       3.809   2.122  20.422  0.00  0.00    +0.000 A 
ATOM      8  N   UNL     1       4.362   2.743  19.388  0.00  0.00    +0.000 NA
ATOM      9  N   UNL     1       3.750   3.976  19.424  0.00  0.00    +0.000 N 
ATOM     10  C   UNL     1       3.905   5.112  18.548  0.00  0.00    +0.000 A 
ENDROOT
BRANCH  10  11
ATOM     11  N   UNL     1       4.758   4.972  17.413  0.00  0.00    +0.000 N 
ATOM     12  C   UNL     1       5.794   5.983  17.051  0.00  0.00    +0.000 C 
ATOM     13  C   UNL     1       7.048   5.275  16.473  0.00  0.00    +0.000 C 
ATOM     14  N   UNL     1       6.826   4.342  15.337  0.00  0.00    +0.000 NA
ATOM     15  C   UNL     1       5.689   3.459  15.682  0.00  0.00    +0.000 C 
ATOM     16  C   UNL     1       4.420   4.177  16.211  0.00  0.00    +0.000 C 
BRANCH  14  17
ATOM     17  C   UNL     1       6.663   4.981  14.014  0.00  0.00    +0.000 C 
ATOM     18  C   UNL     1       7.968   5.647  13.548  0.00  0.00    +0.000 C 
BRANCH  17  19
ATOM     19  C   UNL     1       6.235   3.966  12.945  0.00  0.00    +0.000 A 
ATOM     20  C   UNL     1       4.885   3.862  12.570  0.00  0.00    +0.000 A 
ATOM     21  C   UNL     1       4.474   2.904  11.640  0.00  0.00    +0.000 A 
ATOM     22  C   UNL     1       5.402   2.035  11.069  0.00  0.00    +0.000 A 
ATOM     23  C   UNL     1       6.744   2.118  11.432  0.00  0.00    +0.000 A 
ATOM     24  C   UNL     1       7.158   3.073  12.366  0.00  0.00    +0.000 A 
ENDBRANCH  17  19
ENDBRANCH  14  17
ENDBRANCH  10  11
BRANCH   1  25
ATOM     25  C   UNL     1       3.192   7.555  18.111  0.00  0.00    +0.000 C 
BRANCH  25  26
ATOM     26  C   UNL     1       1.898   8.138  17.567  0.00  0.00    +0.000 C 
BRANCH  26  27
ATOM     27  C   UNL     1       1.582   9.581  17.839  0.00  0.00    +0.000 C 
ATOM     28  O   UNL     1       2.385  10.484  17.996  0.00  0.00    +0.000 OA
BRANCH  27  29
ATOM     29  O   UNL     1       0.219   9.696  17.830  0.00  0.00    +0.000 OA
BRANCH  29  31
ATOM     30  C   UNL     1      -0.527  10.273  20.056  0.00  0.00    +0.000 C 
ATOM     31  C   UNL     1      -0.380  10.728  18.618  0.00  0.00    +0.000 C 
ENDBRANCH  29  31
ENDBRANCH  27  29
ENDBRANCH  26  27
ENDBRANCH  25  26
ENDBRANCH   1  25
TORSDOF 8
ENDMDL
MODEL 4
REMARK VINA RESULT:      -6.8      1.643      2.407
REMARK  Name = 
REMARK  11 active torsions:
REMARK  status: ('A' for Active; 'I' for Inactive)
REMARK    1  A    between atoms: C_1  and  C_2
REMARK    2  A    between atoms: C_2  and  O_3
REMARK    3  A    between atoms: O_3  and  C_4
REMARK    4  A    between atoms: C_4  and  C_6
REMARK    5  A    between atoms: C_6  and  C_7
REMARK    6  A    between atoms: C_7  and  C_8
REMARK    7  A    between atoms: C_9  and  C_10
REMARK    8  A    between atoms: C_17  and  N_18
REMARK    9  A    between atoms: N_21  and  C_22
REMARK   10  A    between atoms: C_22  and  C_23
REMARK   11  A    between atoms: C_22  and  C_24
REMARK                            x       y       z     vdW  Elec       q    Type
REMARK                         _______ _______ _______ _____ _____    ______ ____
ROOT
ATOM      1  C   UNL     1       3.783   5.643  17.461  0.00  0.00    +0.000 A 
ATOM      2  C   UNL     1       4.171   4.181  17.223  0.00  0.00    +0.000 A 
ATOM      3  C   UNL     1       5.272   3.787  16.245  0.00  0.00    +0.000 C 
ATOM      4  N   UNL     1       3.629   3.154  17.801  0.00  0.00    +0.000 NA
ATOM      5  C   UNL     1       2.627   3.390  18.675  0.00  0.00    +0.000 A 
ATOM      6  N   UNL     1       1.943   2.507  19.366  0.00  0.00    +0.000 NA
ATOM      7  C   UNL     1       1.054   3.265  20.042  0.00  0.00    +0.000 A 
ATOM      8  N   UNL     1       1.108   4.572  19.820  0.00  0.00    +0.000 NA
ATOM      9  N   UNL     1       2.168   4.679  18.948  0.00  0.00    +0.000 N 
ATOM     10  C   UNL     1       2.751   5.851  18.339  0.00  0.00    +0.000 A 
ENDROOT
BRANCH  10  11
ATOM     11  N   UNL     1       2.235   7.128  18.713  0.00  0.00    +0.000 N 
ATOM     12  C   UNL     1       2.194   8.288  17.777  0.00  0.00    +0.000 C 
ATOM     13  C   UNL     1       0.912   9.127  18.027  0.00  0.00    +0.000 C 
ATOM     14  N   UNL     1       0.675   9.586  19.421  0.00  0.00    +0.000 NA
ATOM     15  C   UNL     1       0.878   8.433  20.327  0.00  0.00    +0.000 C 
ATOM     16  C   UNL     1       2.186   7.629  20.105  0.00  0.00    +0.000 C 
BRANCH  14  17
ATOM     17  C   UNL     1       1.450  10.774  19.837  0.00  0.00    +0.000 C 
ATOM     18  C   UNL     1       1.862  11.629  18.627  0.00  0.00    +0.000 C 
BRANCH  17  19
ATOM     19  C   UNL     1       0.649  11.664  20.799  0.00  0.00    +0.000 A 
ATOM     20  C   UNL     1       0.831  13.057  20.789  0.00  0.00    +0.000 A 
ATOM     21  C   UNL     1       0.150  13.872  21.697  0.00  0.00    +0.000 A 
ATOM     22  C   UNL     1      -0.723  13.311  22.628  0.00  0.00    +0.000 A 
ATOM     23  C   UNL     1      -0.912  11.931  22.657  0.00  0.00    +0.000 A 
ATOM     24  C   UNL     1      -0.229  11.113  21.753  0.00  0.00    +0.000 A 
ENDBRANCH  17  19
ENDBRANCH  14  17
ENDBRANCH  10  11
BRANCH   1  25
ATOM     25  C   UNL     1       4.548   6.703  16.692  0.00  0.00    +0.000 C 
BRANCH  25  26
ATOM     26  C   UNL     1       5.745   7.402  17.317  0.00  0.00    +0.000 C 
BRANCH  26  27
ATOM     27  C   UNL     1       7.112   6.807  17.129  0.00  0.00    +0.000 C 
ATOM     28  O   UNL     1       7.521   6.225  16.140  0.00  0.00    +0.000 OA
BRANCH  27  29
ATOM     29  O   UNL     1       7.824   7.087  18.263  0.00  0.00    +0.000 OA
BRANCH  29  31
ATOM     30  C   UNL     1       6.793   5.259  19.465  0.00  0.00    +0.000 C 
ATOM     31  C   UNL     1       8.072   6.023  19.186  0.00  0.00    +0.000 C 
ENDBRANCH  29  31
ENDBRANCH  27  29
ENDBRANCH  26  27
ENDBRANCH  25  26
ENDBRANCH   1  25
TORSDOF 8
ENDMDL
MODEL 5
REMARK VINA RESULT:      -6.8      3.114      5.045
REMARK  Name = 
REMARK  11 active torsions:
REMARK  status: ('A' for Active; 'I' for Inactive)
REMARK    1  A    between atoms: C_1  and  C_2
REMARK    2  A    between atoms: C_2  and  O_3
REMARK    3  A    between atoms: O_3  and  C_4
REMARK    4  A    between atoms: C_4  and  C_6
REMARK    5  A    between atoms: C_6  and  C_7
REMARK    6  A    between atoms: C_7  and  C_8
REMARK    7  A    between atoms: C_9  and  C_10
REMARK    8  A    between atoms: C_17  and  N_18
REMARK    9  A    between atoms: N_21  and  C_22
REMARK   10  A    between atoms: C_22  and  C_23
REMARK   11  A    between atoms: C_22  and  C_24
REMARK                            x       y       z     vdW  Elec       q    Type
REMARK                         _______ _______ _______ _____ _____    ______ ____
ROOT
ATOM      1  C   UNL     1       2.946   4.969  17.775  0.00  0.00    +0.000 A 
ATOM      2  C   UNL     1       3.952   3.924  17.280  0.00  0.00    +0.000 A 
ATOM      3  C   UNL     1       3.561   2.468  17.064  0.00  0.00    +0.000 C 
ATOM      4  N   UNL     1       5.198   4.151  17.002  0.00  0.00    +0.000 NA
ATOM      5  C   UNL     1       5.655   5.409  17.178  0.00  0.00    +0.000 A 
ATOM      6  N   UNL     1       6.871   5.858  16.960  0.00  0.00    +0.000 NA
ATOM      7  C   UNL     1       6.791   7.154  17.327  0.00  0.00    +0.000 A 
ATOM      8  N   UNL     1       5.615   7.566  17.781  0.00  0.00    +0.000 NA
ATOM      9  N   UNL     1       4.838   6.436  17.653  0.00  0.00    +0.000 N 
ATOM     10  C   UNL     1       3.443   6.233  17.961  0.00  0.00    +0.000 A 
ENDROOT
BRANCH  10  11
ATOM     11  N   UNL     1       2.684   7.356  18.405  0.00  0.00    +0.000 N 
ATOM     12  C   UNL     1       2.670   8.660  17.681  0.00  0.00    +0.000 C 
ATOM     13  C   UNL     1       1.258   9.298  17.763  0.00  0.00    +0.000 C 
ATOM     14  N   UNL     1       0.675   9.462  19.121  0.00  0.00    +0.000 NA
ATOM     15  C   UNL     1       0.850   8.188  19.853  0.00  0.00    +0.000 C 
ATOM     16  C   UNL     1       2.276   7.581  19.811  0.00  0.00    +0.000 C 
BRANCH  14  17
ATOM     17  C   UNL     1       1.169  10.626  19.886  0.00  0.00    +0.000 C 
ATOM     18  C   UNL     1       1.429  11.833  18.969  0.00  0.00    +0.000 C 
BRANCH  17  19
ATOM     19  C   UNL     1       0.169  11.056  20.970  0.00  0.00    +0.000 A 
ATOM     20  C   UNL     1       0.066  10.324  22.164  0.00  0.00    +0.000 A 
ATOM     21  C   UNL     1      -0.879  10.670  23.134  0.00  0.00    +0.000 A 
ATOM     22  C   UNL     1      -1.734  11.750  22.928  0.00  0.00    +0.000 A 
ATOM     23  C   UNL     1      -1.651  12.484  21.747  0.00  0.00    +0.000 A 
ATOM     24  C   UNL     1      -0.710  12.138  20.773  0.00  0.00    +0.000 A 
ENDBRANCH  17  19
ENDBRANCH  14  17
ENDBRANCH  10  11
BRANCH   1  25
ATOM     25  C   UNL     1       1.527   4.504  18.034  0.00  0.00    +0.000 C 
BRANCH  25  26
ATOM     26  C   UNL     1       1.067   4.166  19.443  0.00  0.00    +0.000 C 
BRANCH  26  27
ATOM     27  C   UNL     1       0.806   2.729  19.796  0.00  0.00    +0.000 C 
ATOM     28  O   UNL     1       0.436   1.850  19.038  0.00  0.00    +0.000 OA
BRANCH  27  29
ATOM     29  O   UNL     1       1.110   2.587  21.122  0.00  0.00    +0.000 OA
BRANCH  29  31
ATOM     30  C   UNL     1       3.502   2.448  20.792  0.00  0.00    +0.000 C 
ATOM     31  C   UNL     1       2.373   3.076  21.584  0.00  0.00    +0.000 C 
ENDBRANCH  29  31
ENDBRANCH  27  29
ENDBRANCH  26  27
ENDBRANCH  25  26
ENDBRANCH   1  25
TORSDOF 8
ENDMDL
MODEL 6
REMARK VINA RESULT:      -6.8      2.926      7.631
REMARK  Name = 
REMARK  11 active torsions:
REMARK  status: ('A' for Active; 'I' for Inactive)
REMARK    1  A    between atoms: C_1  and  C_2
REMARK    2  A    between atoms: C_2  and  O_3
REMARK    3  A    between atoms: O_3  and  C_4
REMARK    4  A    between atoms: C_4  and  C_6
REMARK    5  A    between atoms: C_6  and  C_7
REMARK    6  A    between atoms: C_7  and  C_8
REMARK    7  A    between atoms: C_9  and  C_10
REMARK    8  A    between atoms: C_17  and  N_18
REMARK    9  A    between atoms: N_21  and  C_22
REMARK   10  A    between atoms: C_22  and  C_23
REMARK   11  A    between atoms: C_22  and  C_24
REMARK                            x       y       z     vdW  Elec       q    Type
REMARK                         _______ _______ _______ _____ _____    ______ ____
ROOT
ATOM      1  C   UNL     1       2.625   6.951  19.487  0.00  0.00    +0.000 A 
ATOM      2  C   UNL     1       1.563   6.682  20.558  0.00  0.00    +0.000 A 
ATOM      3  C   UNL     1       0.607   7.767  21.035  0.00  0.00    +0.000 C 
ATOM      4  N   UNL     1       1.366   5.548  21.155  0.00  0.00    +0.000 NA
ATOM      5  C   UNL     1       2.174   4.520  20.819  0.00  0.00    +0.000 A 
ATOM      6  N   UNL     1       2.152   3.295  21.294  0.00  0.00    +0.000 NA
ATOM      7  C   UNL     1       3.179   2.697  20.654  0.00  0.00    +0.000 A 
ATOM      8  N   UNL     1       3.870   3.456  19.814  0.00  0.00    +0.000 NA
ATOM      9  N   UNL     1       3.197   4.656  19.879  0.00  0.00    +0.000 N 
ATOM     10  C   UNL     1       3.443   5.894  19.180  0.00  0.00    +0.000 A 
ENDROOT
BRANCH  10  11
ATOM     11  N   UNL     1       4.489   5.920  18.210  0.00  0.00    +0.000 N 
ATOM     12  C   UNL     1       4.318   5.399  16.822  0.00  0.00    +0.000 C 
ATOM     13  C   UNL     1       5.113   6.279  15.822  0.00  0.00    +0.000 C 
ATOM     14  N   UNL     1       6.556   6.488  16.116  0.00  0.00    +0.000 NA
ATOM     15  C   UNL     1       6.687   6.855  17.543  0.00  0.00    +0.000 C 
ATOM     16  C   UNL     1       5.931   5.941  18.542  0.00  0.00    +0.000 C 
BRANCH  14  17
ATOM     17  C   UNL     1       7.448   5.371  15.735  0.00  0.00    +0.000 C 
ATOM     18  C   UNL     1       7.342   4.204  16.731  0.00  0.00    +0.000 C 
BRANCH  17  19
ATOM     19  C   UNL     1       7.117   4.836  14.335  0.00  0.00    +0.000 A 
ATOM     20  C   UNL     1       6.192   3.790  14.180  0.00  0.00    +0.000 A 
ATOM     21  C   UNL     1       5.925   3.255  12.917  0.00  0.00    +0.000 A 
ATOM     22  C   UNL     1       6.575   3.755  11.790  0.00  0.00    +0.000 A 
ATOM     23  C   UNL     1       7.501   4.787  11.924  0.00  0.00    +0.000 A 
ATOM     24  C   UNL     1       7.773   5.322  13.187  0.00  0.00    +0.000 A 
ENDBRANCH  17  19
ENDBRANCH  14  17
ENDBRANCH  10  11
BRANCH   1  25
ATOM     25  C   UNL     1       2.688   8.348  18.901  0.00  0.00    +0.000 C 
BRANCH  25  26
ATOM     26  C   UNL     1       1.762   8.754  17.767  0.00  0.00    +0.000 C 
BRANCH  26  27
ATOM     27  C   UNL     1       0.787   9.875  17.992  0.00  0.00    +0.000 C 
ATOM     28  O   UNL     1      -0.424   9.820  17.872  0.00  0.00    +0.000 OA
BRANCH  27  29
ATOM     29  O   UNL     1       1.517  10.956  18.405  0.00  0.00    +0.000 OA
BRANCH  29  31
ATOM     30  C   UNL     1       1.010  11.431  20.721  0.00  0.00    +0.000 C 
ATOM     31  C   UNL     1       0.895  11.898  19.284  0.00  0.00    +0.000 C 
ENDBRANCH  29  31
ENDBRANCH  27  29
ENDBRANCH  26  27
ENDBRANCH  25  26
ENDBRANCH   1  25
TORSDOF 8
ENDMDL
MODEL 7
REMARK VINA RESULT:      -6.8      1.400      1.999
REMARK  Name = 
REMARK  11 active torsions:
REMARK  status: ('A' for Active; 'I' for Inactive)
REMARK    1  A    between atoms: C_1  and  C_2
REMARK    2  A    between atoms: C_2  and  O_3
REMARK    3  A    between atoms: O_3  and  C_4
REMARK    4  A    between atoms: C_4  and  C_6
REMARK    5  A    between atoms: C_6  and  C_7
REMARK    6  A    between atoms: C_7  and  C_8
REMARK    7  A    between atoms: C_9  and  C_10
REMARK    8  A    between atoms: C_17  and  N_18
REMARK    9  A    between atoms: N_21  and  C_22
REMARK   10  A    between atoms: C_22  and  C_23
REMARK   11  A    between atoms: C_22  and  C_24
REMARK                            x       y       z     vdW  Elec       q    Type
REMARK                         _______ _______ _______ _____ _____    ______ ____
ROOT
ATOM      1  C   UNL     1       3.687   5.628  17.682  0.00  0.00    +0.000 A 
ATOM      2  C   UNL     1       4.044   4.147  17.523  0.00  0.00    +0.000 A 
ATOM      3  C   UNL     1       5.150   3.681  16.585  0.00  0.00    +0.000 C 
ATOM      4  N   UNL     1       3.469   3.164  18.141  0.00  0.00    +0.000 NA
ATOM      5  C   UNL     1       2.458   3.466  18.985  0.00  0.00    +0.000 A 
ATOM      6  N   UNL     1       1.742   2.633  19.707  0.00  0.00    +0.000 NA
ATOM      7  C   UNL     1       0.861   3.445  20.329  0.00  0.00    +0.000 A 
ATOM      8  N   UNL     1       0.949   4.738  20.044  0.00  0.00    +0.000 NA
ATOM      9  N   UNL     1       2.026   4.777  19.186  0.00  0.00    +0.000 N 
ATOM     10  C   UNL     1       2.646   5.903  18.531  0.00  0.00    +0.000 A 
ENDROOT
BRANCH  10  11
ATOM     11  N   UNL     1       2.154   7.208  18.832  0.00  0.00    +0.000 N 
ATOM     12  C   UNL     1       2.109   8.308  17.824  0.00  0.00    +0.000 C 
ATOM     13  C   UNL     1       0.844   9.179  18.044  0.00  0.00    +0.000 C 
ATOM     14  N   UNL     1       0.641   9.729  19.410  0.00  0.00    +0.000 NA
ATOM     15  C   UNL     1       0.846   8.633  20.384  0.00  0.00    +0.000 C 
ATOM     16  C   UNL     1       2.139   7.798  20.190  0.00  0.00    +0.000 C 
BRANCH  14  17
ATOM     17  C   UNL     1       1.440  10.930  19.735  0.00  0.00    +0.000 C 
ATOM     18  C   UNL     1       1.835  11.702  18.465  0.00  0.00    +0.000 C 
BRANCH  17  19
ATOM     19  C   UNL     1       0.671  11.888  20.657  0.00  0.00    +0.000 A 
ATOM     20  C   UNL     1      -0.624  11.560  21.092  0.00  0.00    +0.000 A 
ATOM     21  C   UNL     1      -1.357  12.448  21.884  0.00  0.00    +0.000 A 
ATOM     22  C   UNL     1      -0.810  13.676  22.254  0.00  0.00    +0.000 A 
ATOM     23  C   UNL     1       0.470  14.021  21.827  0.00  0.00    +0.000 A 
ATOM     24  C   UNL     1       1.204  13.137  21.030  0.00  0.00    +0.000 A 
ENDBRANCH  17  19
ENDBRANCH  14  17
ENDBRANCH  10  11
BRANCH   1  25
ATOM     25  C   UNL     1       4.488   6.631  16.875  0.00  0.00    +0.000 C 
BRANCH  25  26
ATOM     26  C   UNL     1       5.678   7.348  17.491  0.00  0.00    +0.000 C 
BRANCH  26  27
ATOM     27  C   UNL     1       7.047   7.107  16.920  0.00  0.00    +0.000 C 
ATOM     28  O   UNL     1       7.433   6.096  16.361  0.00  0.00    +0.000 OA
BRANCH  27  29
ATOM     29  O   UNL     1       7.760   8.260  17.105  0.00  0.00    +0.000 OA
BRANCH  29  31
ATOM     30  C   UNL     1       8.863   9.901  18.498  0.00  0.00    +0.000 C 
ATOM     31  C   UNL     1       8.404   8.462  18.366  0.00  0.00    +0.000 C 
ENDBRANCH  29  31
ENDBRANCH  27  29
ENDBRANCH  26  27
ENDBRANCH  25  26
ENDBRANCH   1  25
TORSDOF 8
ENDMDL
MODEL 8
REMARK VINA RESULT:      -6.7      0.966      1.578
REMARK  Name = 
REMARK  11 active torsions:
REMARK  status: ('A' for Active; 'I' for Inactive)
REMARK    1  A    between atoms: C_1  and  C_2
REMARK    2  A    between atoms: C_2  and  O_3
REMARK    3  A    between atoms: O_3  and  C_4
REMARK    4  A    between atoms: C_4  and  C_6
REMARK    5  A    between atoms: C_6  and  C_7
REMARK    6  A    between atoms: C_7  and  C_8
REMARK    7  A    between atoms: C_9  and  C_10
REMARK    8  A    between atoms: C_17  and  N_18
REMARK    9  A    between atoms: N_21  and  C_22
REMARK   10  A    between atoms: C_22  and  C_23
REMARK   11  A    between atoms: C_22  and  C_24
REMARK                            x       y       z     vdW  Elec       q    Type
REMARK                         _______ _______ _______ _____ _____    ______ ____
ROOT
ATOM      1  C   UNL     1       3.986   5.249  17.337  0.00  0.00    +0.000 A 
ATOM      2  C   UNL     1       4.480   3.881  16.857  0.00  0.00    +0.000 A 
ATOM      3  C   UNL     1       5.596   3.741  15.830  0.00  0.00    +0.000 C 
ATOM      4  N   UNL     1       4.022   2.734  17.253  0.00  0.00    +0.000 NA
ATOM      5  C   UNL     1       3.015   2.743  18.152  0.00  0.00    +0.000 A 
ATOM      6  N   UNL     1       2.406   1.707  18.684  0.00  0.00    +0.000 NA
ATOM      7  C   UNL     1       1.471   2.273  19.476  0.00  0.00    +0.000 A 
ATOM      8  N   UNL     1       1.424   3.598  19.477  0.00  0.00    +0.000 NA
ATOM      9  N   UNL     1       2.464   3.930  18.638  0.00  0.00    +0.000 N 
ATOM     10  C   UNL     1       2.951   5.228  18.236  0.00  0.00    +0.000 A 
ENDROOT
BRANCH  10  11
ATOM     11  N   UNL     1       2.346   6.381  18.819  0.00  0.00    +0.000 N 
ATOM     12  C   UNL     1       1.791   6.390  20.203  0.00  0.00    +0.000 C 
ATOM     13  C   UNL     1       2.042   7.770  20.867  0.00  0.00    +0.000 C 
ATOM     14  N   UNL     1       1.573   8.967  20.121  0.00  0.00    +0.000 NA
ATOM     15  C   UNL     1       2.019   8.837  18.715  0.00  0.00    +0.000 C 
ATOM     16  C   UNL     1       1.719   7.474  18.041  0.00  0.00    +0.000 C 
BRANCH  14  17
ATOM     17  C   UNL     1       0.127   9.256  20.230  0.00  0.00    +0.000 C 
ATOM     18  C   UNL     1      -0.336   9.255  21.696  0.00  0.00    +0.000 C 
BRANCH  17  19
ATOM     19  C   UNL     1      -0.224  10.620  19.619  0.00  0.00    +0.000 A 
ATOM     20  C   UNL     1       0.331  11.796  20.151  0.00  0.00    +0.000 A 
ATOM     21  C   UNL     1      -0.024  13.047  19.641  0.00  0.00    +0.000 A 
ATOM     22  C   UNL     1      -0.938  13.146  18.593  0.00  0.00    +0.000 A 
ATOM     23  C   UNL     1      -1.503  11.992  18.056  0.00  0.00    +0.000 A 
ATOM     24  C   UNL     1      -1.153  10.738  18.567  0.00  0.00    +0.000 A 
ENDBRANCH  17  19
ENDBRANCH  14  17
ENDBRANCH  10  11
BRANCH   1  25
ATOM     25  C   UNL     1       4.661   6.478  16.759  0.00  0.00    +0.000 C 
BRANCH  25  26
ATOM     26  C   UNL     1       5.741   7.209  17.540  0.00  0.00    +0.000 C 
BRANCH  26  27
ATOM     27  C   UNL     1       7.180   6.853  17.295  0.00  0.00    +0.000 C 
ATOM     28  O   UNL     1       8.011   7.539  16.726  0.00  0.00    +0.000 OA
BRANCH  27  29
ATOM     29  O   UNL     1       7.390   5.632  17.876  0.00  0.00    +0.000 OA
BRANCH  29  31
ATOM     30  C   UNL     1       8.307   5.584  20.113  0.00  0.00    +0.000 C 
ATOM     31  C   UNL     1       7.060   5.475  19.259  0.00  0.00    +0.000 C 
ENDBRANCH  29  31
ENDBRANCH  27  29
ENDBRANCH  26  27
ENDBRANCH  25  26
ENDBRANCH   1  25
TORSDOF 8
ENDMDL
MODEL 9
REMARK VINA RESULT:      -6.7      2.981      8.000
REMARK  Name = 
REMARK  11 active torsions:
REMARK  status: ('A' for Active; 'I' for Inactive)
REMARK    1  A    between atoms: C_1  and  C_2
REMARK    2  A    between atoms: C_2  and  O_3
REMARK    3  A    between atoms: O_3  and  C_4
REMARK    4  A    between atoms: C_4  and  C_6
REMARK    5  A    between atoms: C_6  and  C_7
REMARK    6  A    between atoms: C_7  and  C_8
REMARK    7  A    between atoms: C_9  and  C_10
REMARK    8  A    between atoms: C_17  and  N_18
REMARK    9  A    between atoms: N_21  and  C_22
REMARK   10  A    between atoms: C_22  and  C_23
REMARK   11  A    between atoms: C_22  and  C_24
REMARK                            x       y       z     vdW  Elec       q    Type
REMARK                         _______ _______ _______ _____ _____    ______ ____
ROOT
ATOM      1  C   UNL     1       2.921   6.422  19.134  0.00  0.00    +0.000 A 
ATOM      2  C   UNL     1       2.046   6.408  20.390  0.00  0.00    +0.000 A 
ATOM      3  C   UNL     1       1.272   7.639  20.847  0.00  0.00    +0.000 C 
ATOM      4  N   UNL     1       1.872   5.392  21.176  0.00  0.00    +0.000 NA
ATOM      5  C   UNL     1       2.530   4.252  20.873  0.00  0.00    +0.000 A 
ATOM      6  N   UNL     1       2.500   3.112  21.526  0.00  0.00    +0.000 NA
ATOM      7  C   UNL     1       3.351   2.334  20.825  0.00  0.00    +0.000 A 
ATOM      8  N   UNL     1       3.939   2.898  19.779  0.00  0.00    +0.000 NA
ATOM      9  N   UNL     1       3.379   4.156  19.770  0.00  0.00    +0.000 N 
ATOM     10  C   UNL     1       3.591   5.257  18.861  0.00  0.00    +0.000 A 
ENDROOT
BRANCH  10  11
ATOM     11  N   UNL     1       4.449   5.046  17.741  0.00  0.00    +0.000 N 
ATOM     12  C   UNL     1       5.607   5.935  17.432  0.00  0.00    +0.000 C 
ATOM     13  C   UNL     1       6.782   5.097  16.860  0.00  0.00    +0.000 C 
ATOM     14  N   UNL     1       6.478   4.229  15.692  0.00  0.00    +0.000 NA
ATOM     15  C   UNL     1       5.236   3.480  15.986  0.00  0.00    +0.000 C 
ATOM     16  C   UNL     1       4.049   4.330  16.508  0.00  0.00    +0.000 C 
BRANCH  14  17
ATOM     17  C   UNL     1       6.426   4.919  14.386  0.00  0.00    +0.000 C 
ATOM     18  C   UNL     1       7.785   5.542  14.025  0.00  0.00    +0.000 C 
BRANCH  17  19
ATOM     19  C   UNL     1       6.025   3.960  13.256  0.00  0.00    +0.000 A 
ATOM     20  C   UNL     1       6.991   3.138  12.652  0.00  0.00    +0.000 A 
ATOM     21  C   UNL     1       6.650   2.302  11.585  0.00  0.00    +0.000 A 
ATOM     22  C   UNL     1       5.342   2.273  11.104  0.00  0.00    +0.000 A 
ATOM     23  C   UNL     1       4.372   3.086  11.686  0.00  0.00    +0.000 A 
ATOM     24  C   UNL     1       4.711   3.926  12.751  0.00  0.00    +0.000 A 
ENDBRANCH  17  19
ENDBRANCH  14  17
ENDBRANCH  10  11
BRANCH   1  25
ATOM     25  C   UNL     1       2.985   7.712  18.340  0.00  0.00    +0.000 C 
BRANCH  25  26
ATOM     26  C   UNL     1       1.724   8.320  17.747  0.00  0.00    +0.000 C 
BRANCH  26  27
ATOM     27  C   UNL     1       1.475   9.791  17.925  0.00  0.00    +0.000 C 
ATOM     28  O   UNL     1       2.319  10.664  18.026  0.00  0.00    +0.000 OA
BRANCH  27  29
ATOM     29  O   UNL     1       0.119   9.967  17.903  0.00  0.00    +0.000 OA
BRANCH  29  31
ATOM     30  C   UNL     1      -0.746  11.713  19.336  0.00  0.00    +0.000 C 
ATOM     31  C   UNL     1      -0.551  10.223  19.141  0.00  0.00    +0.000 C 
ENDBRANCH  29  31
ENDBRANCH  27  29
ENDBRANCH  26  27
ENDBRANCH  25  26
ENDBRANCH   1  25
TORSDOF 8
ENDMDL
