MODEL 1
REMARK VINA RESULT:      -8.1      0.000      0.000
REMARK  Name = 
REMARK  3 active torsions:
REMARK  status: ('A' for Active; 'I' for Inactive)
REMARK    1  A    between atoms: C_1  and  C_2
REMARK    2  A    between atoms: N_6  and  C_16
REMARK    3  A    between atoms: N_9  and  C_10
REMARK                            x       y       z     vdW  Elec       q    Type
REMARK                         _______ _______ _______ _____ _____    ______ ____
ROOT
ATOM      1  C   UNL     1       1.271   1.702  19.179  0.00  0.00    +0.000 C 
ATOM      2  C   UNL     1       1.631   2.561  20.386  0.00  0.00    +0.000 C 
ATOM      3  C   UNL     1       3.126   2.554  20.683  0.00  0.00    +0.000 C 
ATOM      4  N   UNL     1       3.810   3.599  19.895  0.00  0.00    +0.000 NA
ATOM      5  C   UNL     1       2.988   4.547  19.581  0.00  0.00    +0.000 C 
ATOM      6  N   UNL     1       3.356   5.701  18.885  0.00  0.00    +0.000 N 
ATOM      7  C   UNL     1       2.577   6.882  18.877  0.00  0.00    +0.000 C 
ATOM      8  O   UNL     1       2.310   7.469  17.825  0.00  0.00    +0.000 OA
ATOM      9  N   UNL     1       2.199   7.328  20.138  0.00  0.00    +0.000 N 
ATOM     10  S   UNL     1       1.322   4.314  20.064  0.00  0.00    +0.000 S 
ATOM     11  H   UNL     1       2.545   6.801  20.931  0.00  0.00    +0.000 HD
ENDROOT
BRANCH   6  12
ATOM     12  C   UNL     1       4.415   5.633  17.886  0.00  0.00    +0.000 A 
ATOM     13  C   UNL     1       4.284   4.781  16.768  0.00  0.00    +0.000 A 
ATOM     14  C   UNL     1       5.306   4.651  15.822  0.00  0.00    +0.000 A 
ATOM     15  C   UNL     1       6.475   5.380  15.977  0.00  0.00    +0.000 A 
ATOM     16  F   UNL     1       7.459   5.254  15.077  0.00  0.00    +0.000 F 
ATOM     17  C   UNL     1       6.636   6.233  17.057  0.00  0.00    +0.000 A 
ATOM     18  C   UNL     1       5.614   6.359  18.007  0.00  0.00    +0.000 A 
ENDBRANCH   6  12
BRANCH   9  19
ATOM     19  C   UNL     1       1.473   8.508  20.427  0.00  0.00    +0.000 A 
ATOM     20  C   UNL     1       1.137   9.459  19.459  0.00  0.00    +0.000 A 
ATOM     21  C   UNL     1       0.461  10.633  19.803  0.00  0.00    +0.000 A 
ATOM     22  C   UNL     1       0.100  10.868  21.126  0.00  0.00    +0.000 A 
ATOM     23  C   UNL     1       0.406   9.920  22.098  0.00  0.00    +0.000 A 
ATOM     24  C   UNL     1       1.085   8.741  21.752  0.00  0.00    +0.000 A 
ENDBRANCH   9  19
TORSDOF 2
ENDMDL
MODEL 2
REMARK VINA RESULT:      -7.9      0.101      1.006
REMARK  Name = 
REMARK  3 active torsions:
REMARK  status: ('A' for Active; 'I' for Inactive)
REMARK    1  A    between atoms: C_1  and  C_2
REMARK    2  A    between atoms: N_6  and  C_16
REMARK    3  A    between atoms: N_9  and  C_10
REMARK                            x       y       z     vdW  Elec       q    Type
REMARK                         _______ _______ _______ _____ _____    ______ ____
ROOT
ATOM      1  C   UNL     1       1.306   1.697  19.208  0.00  0.00    +0.000 C 
ATOM      2  C   UNL     1       1.675   2.540  20.424  0.00  0.00    +0.000 C 
ATOM      3  C   UNL     1       3.174   2.540  20.700  0.00  0.00    +0.000 C 
ATOM      4  N   UNL     1       3.840   3.601  19.919  0.00  0.00    +0.000 NA
ATOM      5  C   UNL     1       3.007   4.549  19.630  0.00  0.00    +0.000 C 
ATOM      6  N   UNL     1       3.357   5.715  18.947  0.00  0.00    +0.000 N 
ATOM      7  C   UNL     1       2.570   6.890  18.968  0.00  0.00    +0.000 C 
ATOM      8  O   UNL     1       2.284   7.491  17.928  0.00  0.00    +0.000 OA
ATOM      9  N   UNL     1       2.206   7.315  20.241  0.00  0.00    +0.000 N 
ATOM     10  S   UNL     1       1.349   4.295  20.132  0.00  0.00    +0.000 S 
ATOM     11  H   UNL     1       2.566   6.778  21.021  0.00  0.00    +0.000 HD
ENDROOT
BRANCH   6  12
ATOM     12  C   UNL     1       4.403   5.670  17.934  0.00  0.00    +0.000 A 
ATOM     13  C   UNL     1       4.251   4.856  16.791  0.00  0.00    +0.000 A 
ATOM     14  C   UNL     1       5.260   4.747  15.829  0.00  0.00    +0.000 A 
ATOM     15  C   UNL     1       6.437   5.461  15.991  0.00  0.00    +0.000 A 
ATOM     16  F   UNL     1       7.408   5.356  15.075  0.00  0.00    +0.000 F 
ATOM     17  C   UNL     1       6.619   6.278  17.096  0.00  0.00    +0.000 A 
ATOM     18  C   UNL     1       5.610   6.382  18.062  0.00  0.00    +0.000 A 
ENDBRANCH   6  12
BRANCH   9  19
ATOM     19  C   UNL     1       1.475   8.485  20.557  0.00  0.00    +0.000 A 
ATOM     20  C   UNL     1       1.091   8.821  21.859  0.00  0.00    +0.000 A 
ATOM     21  C   UNL     1       0.328   9.963  22.115  0.00  0.00    +0.000 A 
ATOM     22  C   UNL     1      -0.055  10.795  21.068  0.00  0.00    +0.000 A 
ATOM     23  C   UNL     1       0.339  10.487  19.769  0.00  0.00    +0.000 A 
ATOM     24  C   UNL     1       1.107   9.340  19.513  0.00  0.00    +0.000 A 
ENDBRANCH   9  19
TORSDOF 2
ENDMDL
MODEL 3
REMARK VINA RESULT:      -7.9      0.104      1.009
REMARK  Name = 
REMARK  3 active torsions:
REMARK  status: ('A' for Active; 'I' for Inactive)
REMARK    1  A    between atoms: C_1  and  C_2
REMARK    2  A    between atoms: N_6  and  C_16
REMARK    3  A    between atoms: N_9  and  C_10
REMARK                            x       y       z     vdW  Elec       q    Type
REMARK                         _______ _______ _______ _____ _____    ______ ____
ROOT
ATOM      1  C   UNL     1       1.135   1.695  19.215  0.00  0.00    +0.000 C 
ATOM      2  C   UNL     1       1.493   2.557  20.420  0.00  0.00    +0.000 C 
ATOM      3  C   UNL     1       2.981   2.515  20.746  0.00  0.00    +0.000 C 
ATOM      4  N   UNL     1       3.707   3.533  19.963  0.00  0.00    +0.000 NA
ATOM      5  C   UNL     1       2.918   4.499  19.623  0.00  0.00    +0.000 C 
ATOM      6  N   UNL     1       3.329   5.636  18.922  0.00  0.00    +0.000 N 
ATOM      7  C   UNL     1       2.582   6.836  18.887  0.00  0.00    +0.000 C 
ATOM      8  O   UNL     1       2.351   7.419  17.824  0.00  0.00    +0.000 OA
ATOM      9  N   UNL     1       2.191   7.305  20.136  0.00  0.00    +0.000 N 
ATOM     10  S   UNL     1       1.236   4.314  20.074  0.00  0.00    +0.000 S 
ATOM     11  H   UNL     1       2.507   6.778  20.941  0.00  0.00    +0.000 HD
ENDROOT
BRANCH   6  12
ATOM     12  C   UNL     1       4.405   5.530  17.946  0.00  0.00    +0.000 A 
ATOM     13  C   UNL     1       5.595   6.272  18.117  0.00  0.00    +0.000 A 
ATOM     14  C   UNL     1       6.623   6.236  17.169  0.00  0.00    +0.000 A 
ATOM     15  C   UNL     1       6.480   5.447  16.038  0.00  0.00    +0.000 A 
ATOM     16  F   UNL     1       7.460   5.414  15.125  0.00  0.00    +0.000 F 
ATOM     17  C   UNL     1       5.331   4.698  15.840  0.00  0.00    +0.000 A 
ATOM     18  C   UNL     1       4.299   4.739  16.788  0.00  0.00    +0.000 A 
ENDBRANCH   6  12
BRANCH   9  19
ATOM     19  C   UNL     1       1.490   8.507  20.399  0.00  0.00    +0.000 A 
ATOM     20  C   UNL     1       1.211   9.463  19.418  0.00  0.00    +0.000 A 
ATOM     21  C   UNL     1       0.559  10.656  19.737  0.00  0.00    +0.000 A 
ATOM     22  C   UNL     1       0.166  10.908  21.048  0.00  0.00    +0.000 A 
ATOM     23  C   UNL     1       0.415   9.956  22.032  0.00  0.00    +0.000 A 
ATOM     24  C   UNL     1       1.070   8.756  21.711  0.00  0.00    +0.000 A 
ENDBRANCH   9  19
TORSDOF 2
ENDMDL
MODEL 4
REMARK VINA RESULT:      -7.8      0.166      1.426
REMARK  Name = 
REMARK  3 active torsions:
REMARK  status: ('A' for Active; 'I' for Inactive)
REMARK    1  A    between atoms: C_1  and  C_2
REMARK    2  A    between atoms: N_6  and  C_16
REMARK    3  A    between atoms: N_9  and  C_10
REMARK                            x       y       z     vdW  Elec       q    Type
REMARK                         _______ _______ _______ _____ _____    ______ ____
ROOT
ATOM      1  C   UNL     1       1.125   1.693  19.292  0.00  0.00    +0.000 C 
ATOM      2  C   UNL     1       1.485   2.558  20.495  0.00  0.00    +0.000 C 
ATOM      3  C   UNL     1       2.973   2.513  20.822  0.00  0.00    +0.000 C 
ATOM      4  N   UNL     1       3.702   3.528  20.035  0.00  0.00    +0.000 NA
ATOM      5  C   UNL     1       2.914   4.495  19.692  0.00  0.00    +0.000 C 
ATOM      6  N   UNL     1       3.328   5.628  18.989  0.00  0.00    +0.000 N 
ATOM      7  C   UNL     1       2.583   6.830  18.950  0.00  0.00    +0.000 C 
ATOM      8  O   UNL     1       2.353   7.410  17.885  0.00  0.00    +0.000 OA
ATOM      9  N   UNL     1       2.193   7.304  20.198  0.00  0.00    +0.000 N 
ATOM     10  S   UNL     1       1.232   4.314  20.144  0.00  0.00    +0.000 S 
ATOM     11  H   UNL     1       2.508   6.778  21.004  0.00  0.00    +0.000 HD
ENDROOT
BRANCH   6  12
ATOM     12  C   UNL     1       4.404   5.517  18.013  0.00  0.00    +0.000 A 
ATOM     13  C   UNL     1       5.593   6.261  18.179  0.00  0.00    +0.000 A 
ATOM     14  C   UNL     1       6.621   6.219  17.231  0.00  0.00    +0.000 A 
ATOM     15  C   UNL     1       6.479   5.425  16.105  0.00  0.00    +0.000 A 
ATOM     16  F   UNL     1       7.458   5.387  15.192  0.00  0.00    +0.000 F 
ATOM     17  C   UNL     1       5.330   4.674  15.912  0.00  0.00    +0.000 A 
ATOM     18  C   UNL     1       4.298   4.720  16.859  0.00  0.00    +0.000 A 
ENDBRANCH   6  12
BRANCH   9  19
ATOM     19  C   UNL     1       1.495   8.507  20.457  0.00  0.00    +0.000 A 
ATOM     20  C   UNL     1       1.056   8.881  21.731  0.00  0.00    +0.000 A 
ATOM     21  C   UNL     1       0.327  10.057  21.927  0.00  0.00    +0.000 A 
ATOM     22  C   UNL     1       0.035  10.885  20.849  0.00  0.00    +0.000 A 
ATOM     23  C   UNL     1       0.486  10.540  19.578  0.00  0.00    +0.000 A 
ATOM     24  C   UNL     1       1.219   9.359  19.381  0.00  0.00    +0.000 A 
ENDBRANCH   9  19
TORSDOF 2
ENDMDL
MODEL 5
REMARK VINA RESULT:      -7.5      2.980      4.765
REMARK  Name = 
REMARK  3 active torsions:
REMARK  status: ('A' for Active; 'I' for Inactive)
REMARK    1  A    between atoms: C_1  and  C_2
REMARK    2  A    between atoms: N_6  and  C_16
REMARK    3  A    between atoms: N_9  and  C_10
REMARK                            x       y       z     vdW  Elec       q    Type
REMARK                         _______ _______ _______ _____ _____    ______ ____
ROOT
ATOM      1  C   UNL     1       7.072   5.612  17.469  0.00  0.00    +0.000 C 
ATOM      2  C   UNL     1       5.971   6.078  16.524  0.00  0.00    +0.000 C 
ATOM      3  C   UNL     1       5.030   4.948  16.121  0.00  0.00    +0.000 C 
ATOM      4  N   UNL     1       3.945   4.806  17.111  0.00  0.00    +0.000 NA
ATOM      5  C   UNL     1       3.750   5.920  17.740  0.00  0.00    +0.000 C 
ATOM      6  N   UNL     1       2.752   6.112  18.698  0.00  0.00    +0.000 N 
ATOM      7  C   UNL     1       2.294   7.390  19.094  0.00  0.00    +0.000 C 
ATOM      8  O   UNL     1       2.182   7.693  20.285  0.00  0.00    +0.000 OA
ATOM      9  N   UNL     1       1.947   8.228  18.039  0.00  0.00    +0.000 N 
ATOM     10  S   UNL     1       4.842   7.229  17.343  0.00  0.00    +0.000 S 
ATOM     11  H   UNL     1       2.012   7.837  17.107  0.00  0.00    +0.000 HD
ENDROOT
BRANCH   6  12
ATOM     12  C   UNL     1       2.350   5.002  19.552  0.00  0.00    +0.000 A 
ATOM     13  C   UNL     1       1.214   4.230  19.226  0.00  0.00    +0.000 A 
ATOM     14  C   UNL     1       0.769   3.195  20.055  0.00  0.00    +0.000 A 
ATOM     15  C   UNL     1       1.462   2.909  21.221  0.00  0.00    +0.000 A 
ATOM     16  F   UNL     1       1.037   1.923  22.021  0.00  0.00    +0.000 F 
ATOM     17  C   UNL     1       2.587   3.641  21.570  0.00  0.00    +0.000 A 
ATOM     18  C   UNL     1       3.028   4.681  20.741  0.00  0.00    +0.000 A 
ENDBRANCH   6  12
BRANCH   9  19
ATOM     19  C   UNL     1       1.406   9.531  18.146  0.00  0.00    +0.000 A 
ATOM     20  C   UNL     1       2.193  10.685  18.219  0.00  0.00    +0.000 A 
ATOM     21  C   UNL     1       1.612  11.946  18.373  0.00  0.00    +0.000 A 
ATOM     22  C   UNL     1       0.229  12.073  18.447  0.00  0.00    +0.000 A 
ATOM     23  C   UNL     1      -0.569  10.937  18.352  0.00  0.00    +0.000 A 
ATOM     24  C   UNL     1       0.014   9.670  18.197  0.00  0.00    +0.000 A 
ENDBRANCH   9  19
TORSDOF 2
ENDMDL
MODEL 6
REMARK VINA RESULT:      -7.5      2.595      6.427
REMARK  Name = 
REMARK  3 active torsions:
REMARK  status: ('A' for Active; 'I' for Inactive)
REMARK    1  A    between atoms: C_1  and  C_2
REMARK    2  A    between atoms: N_6  and  C_16
REMARK    3  A    between atoms: N_9  and  C_10
REMARK                            x       y       z     vdW  Elec       q    Type
REMARK                         _______ _______ _______ _____ _____    ______ ____
ROOT
ATOM      1  C   UNL     1       2.455   2.774  21.752  0.00  0.00    +0.000 C 
ATOM      2  C   UNL     1       2.220   2.438  20.283  0.00  0.00    +0.000 C 
ATOM      3  C   UNL     1       0.921   3.031  19.749  0.00  0.00    +0.000 C 
ATOM      4  N   UNL     1       1.145   4.408  19.267  0.00  0.00    +0.000 NA
ATOM      5  C   UNL     1       2.383   4.581  18.935  0.00  0.00    +0.000 C 
ATOM      6  N   UNL     1       2.888   5.765  18.391  0.00  0.00    +0.000 N 
ATOM      7  C   UNL     1       4.112   5.833  17.687  0.00  0.00    +0.000 C 
ATOM      8  O   UNL     1       4.954   6.699  17.941  0.00  0.00    +0.000 OA
ATOM      9  N   UNL     1       4.247   4.887  16.676  0.00  0.00    +0.000 N 
ATOM     10  S   UNL     1       3.455   3.227  19.222  0.00  0.00    +0.000 S 
ATOM     11  H   UNL     1       3.454   4.278  16.514  0.00  0.00    +0.000 HD
ENDROOT
BRANCH   6  12
ATOM     12  C   UNL     1       2.315   7.043  18.791  0.00  0.00    +0.000 A 
ATOM     13  C   UNL     1       2.022   7.297  20.149  0.00  0.00    +0.000 A 
ATOM     14  C   UNL     1       1.420   8.491  20.558  0.00  0.00    +0.000 A 
ATOM     15  C   UNL     1       1.109   9.456  19.613  0.00  0.00    +0.000 A 
ATOM     16  F   UNL     1       0.526  10.599  19.999  0.00  0.00    +0.000 F 
ATOM     17  C   UNL     1       1.388   9.246  18.272  0.00  0.00    +0.000 A 
ATOM     18  C   UNL     1       1.987   8.047  17.862  0.00  0.00    +0.000 A 
ENDBRANCH   6  12
BRANCH   9  19
ATOM     19  C   UNL     1       5.335   4.766  15.780  0.00  0.00    +0.000 A 
ATOM     20  C   UNL     1       6.625   5.221  16.073  0.00  0.00    +0.000 A 
ATOM     21  C   UNL     1       7.655   5.122  15.135  0.00  0.00    +0.000 A 
ATOM     22  C   UNL     1       7.413   4.554  13.889  0.00  0.00    +0.000 A 
ATOM     23  C   UNL     1       6.141   4.074  13.591  0.00  0.00    +0.000 A 
ATOM     24  C   UNL     1       5.105   4.173  14.533  0.00  0.00    +0.000 A 
ENDBRANCH   9  19
TORSDOF 2
ENDMDL
MODEL 7
REMARK VINA RESULT:      -7.5      2.582      6.388
REMARK  Name = 
REMARK  3 active torsions:
REMARK  status: ('A' for Active; 'I' for Inactive)
REMARK    1  A    between atoms: C_1  and  C_2
REMARK    2  A    between atoms: N_6  and  C_16
REMARK    3  A    between atoms: N_9  and  C_10
REMARK                            x       y       z     vdW  Elec       q    Type
REMARK                         _______ _______ _______ _____ _____    ______ ____
ROOT
ATOM      1  C   UNL     1       2.461   2.695  21.643  0.00  0.00    +0.000 C 
ATOM      2  C   UNL     1       2.240   2.369  20.170  0.00  0.00    +0.000 C 
ATOM      3  C   UNL     1       0.937   2.949  19.633  0.00  0.00    +0.000 C 
ATOM      4  N   UNL     1       1.146   4.333  19.165  0.00  0.00    +0.000 NA
ATOM      5  C   UNL     1       2.383   4.526  18.841  0.00  0.00    +0.000 C 
ATOM      6  N   UNL     1       2.876   5.720  18.311  0.00  0.00    +0.000 N 
ATOM      7  C   UNL     1       4.104   5.810  17.615  0.00  0.00    +0.000 C 
ATOM      8  O   UNL     1       4.932   6.685  17.882  0.00  0.00    +0.000 OA
ATOM      9  N   UNL     1       4.256   4.875  16.597  0.00  0.00    +0.000 N 
ATOM     10  S   UNL     1       3.471   3.182  19.123  0.00  0.00    +0.000 S 
ATOM     11  H   UNL     1       3.472   4.257  16.425  0.00  0.00    +0.000 HD
ENDROOT
BRANCH   6  12
ATOM     12  C   UNL     1       2.284   6.988  18.719  0.00  0.00    +0.000 A 
ATOM     13  C   UNL     1       1.990   7.977  17.755  0.00  0.00    +0.000 A 
ATOM     14  C   UNL     1       1.474   9.225  18.121  0.00  0.00    +0.000 A 
ATOM     15  C   UNL     1       1.235   9.499  19.458  0.00  0.00    +0.000 A 
ATOM     16  F   UNL     1       0.747  10.695  19.813  0.00  0.00    +0.000 F 
ATOM     17  C   UNL     1       1.503   8.549  20.432  0.00  0.00    +0.000 A 
ATOM     18  C   UNL     1       2.025   7.301  20.065  0.00  0.00    +0.000 A 
ENDBRANCH   6  12
BRANCH   9  19
ATOM     19  C   UNL     1       5.352   4.776  15.707  0.00  0.00    +0.000 A 
ATOM     20  C   UNL     1       6.623   5.283  15.994  0.00  0.00    +0.000 A 
ATOM     21  C   UNL     1       7.660   5.203  15.061  0.00  0.00    +0.000 A 
ATOM     22  C   UNL     1       7.442   4.603  13.826  0.00  0.00    +0.000 A 
ATOM     23  C   UNL     1       6.190   4.071  13.534  0.00  0.00    +0.000 A 
ATOM     24  C   UNL     1       5.148   4.151  14.471  0.00  0.00    +0.000 A 
ENDBRANCH   9  19
TORSDOF 2
ENDMDL
MODEL 8
REMARK VINA RESULT:      -7.4      2.949      4.796
REMARK  Name = 
REMARK  3 active torsions:
REMARK  status: ('A' for Active; 'I' for Inactive)
REMARK    1  A    between atoms: C_1  and  C_2
REMARK    2  A    between atoms: N_6  and  C_16
REMARK    3  A    between atoms: N_9  and  C_10
REMARK                            x       y       z     vdW  Elec       q    Type
REMARK                         _______ _______ _______ _____ _____    ______ ____
ROOT
ATOM      1  C   UNL     1       7.018   5.335  17.287  0.00  0.00    +0.000 C 
ATOM      2  C   UNL     1       5.891   5.816  16.380  0.00  0.00    +0.000 C 
ATOM      3  C   UNL     1       4.902   4.708  16.038  0.00  0.00    +0.000 C 
ATOM      4  N   UNL     1       3.857   4.614  17.076  0.00  0.00    +0.000 NA
ATOM      5  C   UNL     1       3.720   5.743  17.692  0.00  0.00    +0.000 C 
ATOM      6  N   UNL     1       2.770   5.980  18.687  0.00  0.00    +0.000 N 
ATOM      7  C   UNL     1       2.366   7.278  19.079  0.00  0.00    +0.000 C 
ATOM      8  O   UNL     1       2.313   7.604  20.268  0.00  0.00    +0.000 OA
ATOM      9  N   UNL     1       1.997   8.107  18.026  0.00  0.00    +0.000 N 
ATOM     10  S   UNL     1       4.831   7.014  17.226  0.00  0.00    +0.000 S 
ATOM     11  H   UNL     1       2.011   7.699  17.098  0.00  0.00    +0.000 HD
ENDROOT
BRANCH   6  12
ATOM     12  C   UNL     1       2.374   4.897  19.578  0.00  0.00    +0.000 A 
ATOM     13  C   UNL     1       3.304   4.349  20.488  0.00  0.00    +0.000 A 
ATOM     14  C   UNL     1       2.971   3.272  21.315  0.00  0.00    +0.000 A 
ATOM     15  C   UNL     1       1.697   2.731  21.252  0.00  0.00    +0.000 A 
ATOM     16  F   UNL     1       1.376   1.695  22.039  0.00  0.00    +0.000 F 
ATOM     17  C   UNL     1       0.754   3.247  20.377  0.00  0.00    +0.000 A 
ATOM     18  C   UNL     1       1.090   4.323  19.544  0.00  0.00    +0.000 A 
ENDBRANCH   6  12
BRANCH   9  19
ATOM     19  C   UNL     1       1.498   9.427  18.132  0.00  0.00    +0.000 A 
ATOM     20  C   UNL     1       2.319  10.559  18.139  0.00  0.00    +0.000 A 
ATOM     21  C   UNL     1       1.781  11.839  18.296  0.00  0.00    +0.000 A 
ATOM     22  C   UNL     1       0.408  12.007  18.438  0.00  0.00    +0.000 A 
ATOM     23  C   UNL     1      -0.425  10.892  18.409  0.00  0.00    +0.000 A 
ATOM     24  C   UNL     1       0.115   9.606  18.251  0.00  0.00    +0.000 A 
ENDBRANCH   9  19
TORSDOF 2
ENDMDL
MODEL 9
REMARK VINA RESULT:      -7.4      2.953      4.766
REMARK  Name = 
REMARK  3 active torsions:
REMARK  status: ('A' for Active; 'I' for Inactive)
REMARK    1  A    between atoms: C_1  and  C_2
REMARK    2  A    between atoms: N_6  and  C_16
REMARK    3  A    between atoms: N_9  and  C_10
REMARK                            x       y       z     vdW  Elec       q    Type
REMARK                         _______ _______ _______ _____ _____    ______ ____
ROOT
ATOM      1  C   UNL     1       7.064   5.416  17.240  0.00  0.00    +0.000 C 
ATOM      2  C   UNL     1       5.921   5.893  16.350  0.00  0.00    +0.000 C 
ATOM      3  C   UNL     1       4.955   4.772  15.988  0.00  0.00    +0.000 C 
ATOM      4  N   UNL     1       3.918   4.631  17.029  0.00  0.00    +0.000 NA
ATOM      5  C   UNL     1       3.760   5.743  17.671  0.00  0.00    +0.000 C 
ATOM      6  N   UNL     1       2.810   5.936  18.677  0.00  0.00    +0.000 N 
ATOM      7  C   UNL     1       2.381   7.215  19.101  0.00  0.00    +0.000 C 
ATOM      8  O   UNL     1       2.328   7.513  20.298  0.00  0.00    +0.000 OA
ATOM      9  N   UNL     1       1.988   8.061  18.069  0.00  0.00    +0.000 N 
ATOM     10  S   UNL     1       4.840   7.048  17.229  0.00  0.00    +0.000 S 
ATOM     11  H   UNL     1       2.006   7.675  17.132  0.00  0.00    +0.000 HD
ENDROOT
BRANCH   6  12
ATOM     12  C   UNL     1       2.443   4.825  19.544  0.00  0.00    +0.000 A 
ATOM     13  C   UNL     1       1.126   4.316  19.528  0.00  0.00    +0.000 A 
ATOM     14  C   UNL     1       0.727   3.288  20.388  0.00  0.00    +0.000 A 
ATOM     15  C   UNL     1       1.644   2.745  21.273  0.00  0.00    +0.000 A 
ATOM     16  F   UNL     1       1.265   1.764  22.103  0.00  0.00    +0.000 F 
ATOM     17  C   UNL     1       2.949   3.212  21.313  0.00  0.00    +0.000 A 
ATOM     18  C   UNL     1       3.346   4.246  20.454  0.00  0.00    +0.000 A 
ENDBRANCH   6  12
BRANCH   9  19
ATOM     19  C   UNL     1       1.462   9.367  18.209  0.00  0.00    +0.000 A 
ATOM     20  C   UNL     1       0.099   9.631  18.375  0.00  0.00    +0.000 A 
ATOM     21  C   UNL     1      -0.377  10.942  18.460  0.00  0.00    +0.000 A 
ATOM     22  C   UNL     1       0.508  12.012  18.389  0.00  0.00    +0.000 A 
ATOM     23  C   UNL     1       1.871  11.765  18.247  0.00  0.00    +0.000 A 
ATOM     24  C   UNL     1       2.349  10.448  18.163  0.00  0.00    +0.000 A 
ENDBRANCH   9  19
TORSDOF 2
ENDMDL
