MODEL 1
REMARK VINA RESULT:      -6.3      0.000      0.000
REMARK  Name = 
REMARK  15 active torsions:
REMARK  status: ('A' for Active; 'I' for Inactive)
REMARK    1  A    between atoms: C_1  and  C_2
REMARK    2  A    between atoms: C_2  and  C_3
REMARK    3  A    between atoms: C_3  and  C_4
REMARK    4  A    between atoms: C_4  and  C_5
REMARK    5  A    between atoms: C_5  and  C_6
REMARK    6  A    between atoms: C_6  and  C_7
REMARK    7  A    between atoms: C_7  and  C_8
REMARK    8  A    between atoms: C_8  and  C_9
REMARK    9  A    between atoms: C_9  and  C_10
REMARK   10  A    between atoms: C_10  and  C_11
REMARK   11  A    between atoms: C_11  and  C_12
REMARK   12  A    between atoms: C_12  and  C_13
REMARK   13  A    between atoms: C_13  and  C_14
REMARK   14  A    between atoms: C_14  and  C_15
REMARK   15  A    between atoms: C_15  and  C_16
REMARK                            x       y       z     vdW  Elec       q    Type
REMARK                         _______ _______ _______ _____ _____    ______ ____
ROOT
ATOM      1  C   UNL     1       5.626   6.607  17.030  0.00  0.00    +0.000 C 
ENDROOT
BRANCH   1   2
ATOM      2  C   UNL     1       5.375   5.940  15.685  0.00  0.00    +0.000 C 
BRANCH   2   3
ATOM      3  C   UNL     1       5.376   4.425  15.834  0.00  0.00    +0.000 C 
BRANCH   3   4
ATOM      4  C   UNL     1       6.333   3.795  14.835  0.00  0.00    +0.000 C 
BRANCH   4   5
ATOM      5  C   UNL     1       6.664   4.779  13.723  0.00  0.00    +0.000 C 
BRANCH   5   6
ATOM      6  C   UNL     1       7.177   4.041  12.497  0.00  0.00    +0.000 C 
BRANCH   6   7
ATOM      7  C   UNL     1       6.089   3.144  11.924  0.00  0.00    +0.000 C 
BRANCH   7   8
ATOM      8  C   UNL     1       4.715   3.675  12.291  0.00  0.00    +0.000 C 
BRANCH   8   9
ATOM      9  C   UNL     1       3.664   3.161  11.316  0.00  0.00    +0.000 C 
BRANCH   9  10
ATOM     10  C   UNL     1       3.781   3.881   9.978  0.00  0.00    +0.000 C 
BRANCH  10  12
ATOM     11  C   UNL     1       2.090   5.237   8.726  0.00  0.00    +0.000 C 
ATOM     12  C   UNL     1       2.455   3.850   9.227  0.00  0.00    +0.000 C 
ENDBRANCH  10  12
ENDBRANCH   9  10
ENDBRANCH   8   9
ENDBRANCH   7   8
ENDBRANCH   6   7
ENDBRANCH   5   6
ENDBRANCH   4   5
ENDBRANCH   3   4
ENDBRANCH   2   3
ENDBRANCH   1   2
BRANCH   1  13
ATOM     13  C   UNL     1       6.976   6.187  17.600  0.00  0.00    +0.000 C 
BRANCH  13  14
ATOM     14  C   UNL     1       6.785   5.431  18.909  0.00  0.00    +0.000 C 
BRANCH  14  15
ATOM     15  C   UNL     1       5.328   5.459  19.357  0.00  0.00    +0.000 C 
BRANCH  15  16
ATOM     16  C   UNL     1       4.749   4.060  19.455  0.00  0.00    +0.000 C 
ATOM     17  O   UNL     1       5.472   3.072  19.578  0.00  0.00    +0.000 OA
ATOM     18  N   UNL     1       3.371   3.960  19.422  0.00  0.00    +0.000 N 
ATOM     19  C   UNL     1       2.418   5.056  19.246  0.00  0.00    +0.000 C 
ATOM     20  C   UNL     1       1.434   5.086  20.419  0.00  0.00    +0.000 C 
ATOM     21  O   UNL     1       0.789   3.816  20.598  0.00  0.00    +0.000 OA
ATOM     22  C   UNL     1       1.758   2.781  20.840  0.00  0.00    +0.000 C 
ATOM     23  C   UNL     1       2.733   2.667  19.664  0.00  0.00    +0.000 C 
ENDBRANCH  15  16
ENDBRANCH  14  15
ENDBRANCH  13  14
ENDBRANCH   1  13
TORSDOF 14
ENDMDL
MODEL 2
REMARK VINA RESULT:      -6.1      3.182      5.819
REMARK  Name = 
REMARK  15 active torsions:
REMARK  status: ('A' for Active; 'I' for Inactive)
REMARK    1  A    between atoms: C_1  and  C_2
REMARK    2  A    between atoms: C_2  and  C_3
REMARK    3  A    between atoms: C_3  and  C_4
REMARK    4  A    between atoms: C_4  and  C_5
REMARK    5  A    between atoms: C_5  and  C_6
REMARK    6  A    between atoms: C_6  and  C_7
REMARK    7  A    between atoms: C_7  and  C_8
REMARK    8  A    between atoms: C_8  and  C_9
REMARK    9  A    between atoms: C_9  and  C_10
REMARK   10  A    between atoms: C_10  and  C_11
REMARK   11  A    between atoms: C_11  and  C_12
REMARK   12  A    between atoms: C_12  and  C_13
REMARK   13  A    between atoms: C_13  and  C_14
REMARK   14  A    between atoms: C_14  and  C_15
REMARK   15  A    between atoms: C_15  and  C_16
REMARK                            x       y       z     vdW  Elec       q    Type
REMARK                         _______ _______ _______ _____ _____    ______ ____
ROOT
ATOM      1  C   UNL     1       1.755   3.445  20.788  0.00  0.00    +0.000 C 
ENDROOT
BRANCH   1   2
ATOM      2  C   UNL     1       0.617   3.173  19.815  0.00  0.00    +0.000 C 
BRANCH   2   3
ATOM      3  C   UNL     1       1.089   2.275  18.681  0.00  0.00    +0.000 C 
BRANCH   3   4
ATOM      4  C   UNL     1       2.489   1.754  18.966  0.00  0.00    +0.000 C 
BRANCH   4   5
ATOM      5  C   UNL     1       3.396   1.987  17.767  0.00  0.00    +0.000 C 
BRANCH   5   6
ATOM      6  C   UNL     1       4.205   3.260  17.953  0.00  0.00    +0.000 C 
BRANCH   6   7
ATOM      7  C   UNL     1       4.183   4.094  16.680  0.00  0.00    +0.000 C 
BRANCH   7   8
ATOM      8  C   UNL     1       5.056   5.326  16.837  0.00  0.00    +0.000 C 
BRANCH   8   9
ATOM      9  C   UNL     1       6.325   5.193  16.004  0.00  0.00    +0.000 C 
BRANCH   9  10
ATOM     10  C   UNL     1       6.220   4.002  15.061  0.00  0.00    +0.000 C 
BRANCH  10  12
ATOM     11  C   UNL     1       5.981   3.429  12.635  0.00  0.00    +0.000 C 
ATOM     12  C   UNL     1       6.578   4.405  13.635  0.00  0.00    +0.000 C 
ENDBRANCH  10  12
ENDBRANCH   9  10
ENDBRANCH   8   9
ENDBRANCH   7   8
ENDBRANCH   6   7
ENDBRANCH   5   6
ENDBRANCH   4   5
ENDBRANCH   3   4
ENDBRANCH   2   3
ENDBRANCH   1   2
BRANCH   1  13
ATOM     13  C   UNL     1       1.969   4.944  20.967  0.00  0.00    +0.000 C 
BRANCH  13  14
ATOM     14  C   UNL     1       1.915   5.650  19.617  0.00  0.00    +0.000 C 
BRANCH  14  15
ATOM     15  C   UNL     1       2.788   6.899  19.610  0.00  0.00    +0.000 C 
BRANCH  15  16
ATOM     16  C   UNL     1       2.186   7.995  18.751  0.00  0.00    +0.000 C 
ATOM     17  O   UNL     1       2.275   7.972  17.525  0.00  0.00    +0.000 OA
ATOM     18  N   UNL     1       1.513   9.000  19.419  0.00  0.00    +0.000 N 
ATOM     19  C   UNL     1       1.372   9.148  20.868  0.00  0.00    +0.000 C 
ATOM     20  C   UNL     1      -0.111   9.213  21.245  0.00  0.00    +0.000 C 
ATOM     21  O   UNL     1      -0.795  10.244  20.515  0.00  0.00    +0.000 OA
ATOM     22  C   UNL     1      -0.691  10.021  19.098  0.00  0.00    +0.000 C 
ATOM     23  C   UNL     1       0.775  10.008  18.657  0.00  0.00    +0.000 C 
ENDBRANCH  15  16
ENDBRANCH  14  15
ENDBRANCH  13  14
ENDBRANCH   1  13
TORSDOF 14
ENDMDL
MODEL 3
REMARK VINA RESULT:      -6.0      5.839      8.910
REMARK  Name = 
REMARK  15 active torsions:
REMARK  status: ('A' for Active; 'I' for Inactive)
REMARK    1  A    between atoms: C_1  and  C_2
REMARK    2  A    between atoms: C_2  and  C_3
REMARK    3  A    between atoms: C_3  and  C_4
REMARK    4  A    between atoms: C_4  and  C_5
REMARK    5  A    between atoms: C_5  and  C_6
REMARK    6  A    between atoms: C_6  and  C_7
REMARK    7  A    between atoms: C_7  and  C_8
REMARK    8  A    between atoms: C_8  and  C_9
REMARK    9  A    between atoms: C_9  and  C_10
REMARK   10  A    between atoms: C_10  and  C_11
REMARK   11  A    between atoms: C_11  and  C_12
REMARK   12  A    between atoms: C_12  and  C_13
REMARK   13  A    between atoms: C_13  and  C_14
REMARK   14  A    between atoms: C_14  and  C_15
REMARK   15  A    between atoms: C_15  and  C_16
REMARK                            x       y       z     vdW  Elec       q    Type
REMARK                         _______ _______ _______ _____ _____    ______ ____
ROOT
ATOM      1  C   UNL     1       7.260   7.796  17.141  0.00  0.00    +0.000 C 
ENDROOT
BRANCH   1   2
ATOM      2  C   UNL     1       6.278   6.740  17.628  0.00  0.00    +0.000 C 
BRANCH   2   3
ATOM      3  C   UNL     1       5.075   6.663  16.699  0.00  0.00    +0.000 C 
BRANCH   3   4
ATOM      4  C   UNL     1       5.318   5.639  15.601  0.00  0.00    +0.000 C 
BRANCH   4   5
ATOM      5  C   UNL     1       5.309   4.231  16.177  0.00  0.00    +0.000 C 
BRANCH   5   6
ATOM      6  C   UNL     1       4.072   4.016  17.034  0.00  0.00    +0.000 C 
BRANCH   6   7
ATOM      7  C   UNL     1       4.468   3.589  18.440  0.00  0.00    +0.000 C 
BRANCH   7   8
ATOM      8  C   UNL     1       3.916   4.563  19.466  0.00  0.00    +0.000 C 
BRANCH   8   9
ATOM      9  C   UNL     1       2.420   4.764  19.261  0.00  0.00    +0.000 C 
BRANCH   9  10
ATOM     10  C   UNL     1       1.662   4.468  20.548  0.00  0.00    +0.000 C 
BRANCH  10  12
ATOM     11  C   UNL     1       0.883   2.645  19.020  0.00  0.00    +0.000 C 
ATOM     12  C   UNL     1       0.941   3.128  20.459  0.00  0.00    +0.000 C 
ENDBRANCH  10  12
ENDBRANCH   9  10
ENDBRANCH   8   9
ENDBRANCH   7   8
ENDBRANCH   6   7
ENDBRANCH   5   6
ENDBRANCH   4   5
ENDBRANCH   3   4
ENDBRANCH   2   3
ENDBRANCH   1   2
BRANCH   1  13
ATOM     13  C   UNL     1       8.193   8.229  18.265  0.00  0.00    +0.000 C 
BRANCH  13  14
ATOM     14  C   UNL     1       8.498   9.718  18.154  0.00  0.00    +0.000 C 
BRANCH  14  15
ATOM     15  C   UNL     1       9.379  10.191  19.305  0.00  0.00    +0.000 C 
BRANCH  15  16
ATOM     16  C   UNL     1      10.288  11.328  18.880  0.00  0.00    +0.000 C 
ATOM     17  O   UNL     1      10.726  11.407  17.733  0.00  0.00    +0.000 OA
ATOM     18  N   UNL     1      10.574  12.279  19.841  0.00  0.00    +0.000 N 
ATOM     19  C   UNL     1      10.139  12.272  21.237  0.00  0.00    +0.000 C 
ATOM     20  C   UNL     1       9.378  13.563  21.555  0.00  0.00    +0.000 C 
ATOM     21  O   UNL     1      10.152  14.726  21.223  0.00  0.00    +0.000 OA
ATOM     22  C   UNL     1      10.497  14.728  19.826  0.00  0.00    +0.000 C 
ATOM     23  C   UNL     1      11.315  13.485  19.468  0.00  0.00    +0.000 C 
ENDBRANCH  15  16
ENDBRANCH  14  15
ENDBRANCH  13  14
ENDBRANCH   1  13
TORSDOF 14
ENDMDL
MODEL 4
REMARK VINA RESULT:      -6.0      3.518      7.463
REMARK  Name = 
REMARK  15 active torsions:
REMARK  status: ('A' for Active; 'I' for Inactive)
REMARK    1  A    between atoms: C_1  and  C_2
REMARK    2  A    between atoms: C_2  and  C_3
REMARK    3  A    between atoms: C_3  and  C_4
REMARK    4  A    between atoms: C_4  and  C_5
REMARK    5  A    between atoms: C_5  and  C_6
REMARK    6  A    between atoms: C_6  and  C_7
REMARK    7  A    between atoms: C_7  and  C_8
REMARK    8  A    between atoms: C_8  and  C_9
REMARK    9  A    between atoms: C_9  and  C_10
REMARK   10  A    between atoms: C_10  and  C_11
REMARK   11  A    between atoms: C_11  and  C_12
REMARK   12  A    between atoms: C_12  and  C_13
REMARK   13  A    between atoms: C_13  and  C_14
REMARK   14  A    between atoms: C_14  and  C_15
REMARK   15  A    between atoms: C_15  and  C_16
REMARK                            x       y       z     vdW  Elec       q    Type
REMARK                         _______ _______ _______ _____ _____    ______ ____
ROOT
ATOM      1  C   UNL     1       0.904   2.511  19.349  0.00  0.00    +0.000 C 
ENDROOT
BRANCH   1   2
ATOM      2  C   UNL     1       1.537   3.229  20.533  0.00  0.00    +0.000 C 
BRANCH   2   3
ATOM      3  C   UNL     1       1.182   4.708  20.509  0.00  0.00    +0.000 C 
BRANCH   3   4
ATOM      4  C   UNL     1       1.737   5.366  19.255  0.00  0.00    +0.000 C 
BRANCH   4   5
ATOM      5  C   UNL     1       2.777   6.414  19.620  0.00  0.00    +0.000 C 
BRANCH   5   6
ATOM      6  C   UNL     1       2.149   7.799  19.641  0.00  0.00    +0.000 C 
BRANCH   6   7
ATOM      7  C   UNL     1       1.577   8.142  18.273  0.00  0.00    +0.000 C 
BRANCH   7   8
ATOM      8  C   UNL     1       1.813   9.606  17.951  0.00  0.00    +0.000 C 
BRANCH   8   9
ATOM      9  C   UNL     1       0.962  10.495  18.849  0.00  0.00    +0.000 C 
BRANCH   9  10
ATOM     10  C   UNL     1      -0.479  10.002  18.876  0.00  0.00    +0.000 C 
BRANCH  10  12
ATOM     11  C   UNL     1      -2.041   9.936  16.921  0.00  0.00    +0.000 C 
ATOM     12  C   UNL     1      -1.354  10.828  17.941  0.00  0.00    +0.000 C 
ENDBRANCH  10  12
ENDBRANCH   9  10
ENDBRANCH   8   9
ENDBRANCH   7   8
ENDBRANCH   6   7
ENDBRANCH   5   6
ENDBRANCH   4   5
ENDBRANCH   3   4
ENDBRANCH   2   3
ENDBRANCH   1   2
BRANCH   1  13
ATOM     13  C   UNL     1       1.963   1.784  18.527  0.00  0.00    +0.000 C 
BRANCH  13  14
ATOM     14  C   UNL     1       2.580   2.731  17.505  0.00  0.00    +0.000 C 
BRANCH  14  15
ATOM     15  C   UNL     1       4.096   2.578  17.452  0.00  0.00    +0.000 C 
BRANCH  15  16
ATOM     16  C   UNL     1       4.791   3.628  18.298  0.00  0.00    +0.000 C 
ATOM     17  O   UNL     1       4.884   3.511  19.519  0.00  0.00    +0.000 OA
ATOM     18  N   UNL     1       5.332   4.704  17.621  0.00  0.00    +0.000 N 
ATOM     19  C   UNL     1       5.254   4.964  16.184  0.00  0.00    +0.000 C 
ATOM     20  C   UNL     1       6.664   5.110  15.601  0.00  0.00    +0.000 C 
ATOM     21  O   UNL     1       7.422   6.108  16.303  0.00  0.00    +0.000 OA
ATOM     22  C   UNL     1       7.534   5.776  17.698  0.00  0.00    +0.000 C 
ATOM     23  C   UNL     1       6.150   5.678  18.344  0.00  0.00    +0.000 C 
ENDBRANCH  15  16
ENDBRANCH  14  15
ENDBRANCH  13  14
ENDBRANCH   1  13
TORSDOF 14
ENDMDL
MODEL 5
REMARK VINA RESULT:      -6.0      4.319      7.097
REMARK  Name = 
REMARK  15 active torsions:
REMARK  status: ('A' for Active; 'I' for Inactive)
REMARK    1  A    between atoms: C_1  and  C_2
REMARK    2  A    between atoms: C_2  and  C_3
REMARK    3  A    between atoms: C_3  and  C_4
REMARK    4  A    between atoms: C_4  and  C_5
REMARK    5  A    between atoms: C_5  and  C_6
REMARK    6  A    between atoms: C_6  and  C_7
REMARK    7  A    between atoms: C_7  and  C_8
REMARK    8  A    between atoms: C_8  and  C_9
REMARK    9  A    between atoms: C_9  and  C_10
REMARK   10  A    between atoms: C_10  and  C_11
REMARK   11  A    between atoms: C_11  and  C_12
REMARK   12  A    between atoms: C_12  and  C_13
REMARK   13  A    between atoms: C_13  and  C_14
REMARK   14  A    between atoms: C_14  and  C_15
REMARK   15  A    between atoms: C_15  and  C_16
REMARK                            x       y       z     vdW  Elec       q    Type
REMARK                         _______ _______ _______ _____ _____    ______ ____
ROOT
ATOM      1  C   UNL     1       3.464   7.063  18.969  0.00  0.00    +0.000 C 
ENDROOT
BRANCH   1   2
ATOM      2  C   UNL     1       3.750   7.236  17.484  0.00  0.00    +0.000 C 
BRANCH   2   3
ATOM      3  C   UNL     1       5.170   6.793  17.160  0.00  0.00    +0.000 C 
BRANCH   3   4
ATOM      4  C   UNL     1       5.201   6.032  15.844  0.00  0.00    +0.000 C 
BRANCH   4   5
ATOM      5  C   UNL     1       4.962   4.548  16.083  0.00  0.00    +0.000 C 
BRANCH   5   6
ATOM      6  C   UNL     1       5.271   4.188  17.527  0.00  0.00    +0.000 C 
BRANCH   6   7
ATOM      7  C   UNL     1       4.081   3.485  18.165  0.00  0.00    +0.000 C 
BRANCH   7   8
ATOM      8  C   UNL     1       2.906   3.454  17.205  0.00  0.00    +0.000 C 
BRANCH   8   9
ATOM      9  C   UNL     1       1.641   3.954  17.891  0.00  0.00    +0.000 C 
BRANCH   9  10
ATOM     10  C   UNL     1       1.159   2.942  18.922  0.00  0.00    +0.000 C 
BRANCH  10  12
ATOM     11  C   UNL     1       1.612   3.003  21.383  0.00  0.00    +0.000 C 
ATOM     12  C   UNL     1       0.827   3.627  20.242  0.00  0.00    +0.000 C 
ENDBRANCH  10  12
ENDBRANCH   9  10
ENDBRANCH   8   9
ENDBRANCH   7   8
ENDBRANCH   6   7
ENDBRANCH   5   6
ENDBRANCH   4   5
ENDBRANCH   3   4
ENDBRANCH   2   3
ENDBRANCH   1   2
BRANCH   1  13
ATOM     13  C   UNL     1       1.992   7.317  19.270  0.00  0.00    +0.000 C 
BRANCH  13  14
ATOM     14  C   UNL     1       1.722   7.151  20.761  0.00  0.00    +0.000 C 
BRANCH  14  15
ATOM     15  C   UNL     1       0.526   7.987  21.204  0.00  0.00    +0.000 C 
BRANCH  15  16
ATOM     16  C   UNL     1       0.944   9.390  21.600  0.00  0.00    +0.000 C 
ATOM     17  O   UNL     1       1.742   9.589  22.514  0.00  0.00    +0.000 OA
ATOM     18  N   UNL     1       0.400  10.425  20.863  0.00  0.00    +0.000 N 
ATOM     19  C   UNL     1      -0.579  10.310  19.782  0.00  0.00    +0.000 C 
ATOM     20  C   UNL     1      -0.030  10.963  18.509  0.00  0.00    +0.000 C 
ATOM     21  O   UNL     1       0.375  12.321  18.746  0.00  0.00    +0.000 OA
ATOM     22  C   UNL     1       1.388  12.380  19.765  0.00  0.00    +0.000 C 
ATOM     23  C   UNL     1       0.868  11.794  21.081  0.00  0.00    +0.000 C 
ENDBRANCH  15  16
ENDBRANCH  14  15
ENDBRANCH  13  14
ENDBRANCH   1  13
TORSDOF 14
ENDMDL
MODEL 6
REMARK VINA RESULT:      -5.9      5.525      8.364
REMARK  Name = 
REMARK  15 active torsions:
REMARK  status: ('A' for Active; 'I' for Inactive)
REMARK    1  A    between atoms: C_1  and  C_2
REMARK    2  A    between atoms: C_2  and  C_3
REMARK    3  A    between atoms: C_3  and  C_4
REMARK    4  A    between atoms: C_4  and  C_5
REMARK    5  A    between atoms: C_5  and  C_6
REMARK    6  A    between atoms: C_6  and  C_7
REMARK    7  A    between atoms: C_7  and  C_8
REMARK    8  A    between atoms: C_8  and  C_9
REMARK    9  A    between atoms: C_9  and  C_10
REMARK   10  A    between atoms: C_10  and  C_11
REMARK   11  A    between atoms: C_11  and  C_12
REMARK   12  A    between atoms: C_12  and  C_13
REMARK   13  A    between atoms: C_13  and  C_14
REMARK   14  A    between atoms: C_14  and  C_15
REMARK   15  A    between atoms: C_15  and  C_16
REMARK                            x       y       z     vdW  Elec       q    Type
REMARK                         _______ _______ _______ _____ _____    ______ ____
ROOT
ATOM      1  C   UNL     1       7.667   6.762  17.753  0.00  0.00    +0.000 C 
ENDROOT
BRANCH   1   2
ATOM      2  C   UNL     1       6.592   6.023  16.968  0.00  0.00    +0.000 C 
BRANCH   2   3
ATOM      3  C   UNL     1       7.135   4.705  16.434  0.00  0.00    +0.000 C 
BRANCH   3   4
ATOM      4  C   UNL     1       6.009   3.866  15.849  0.00  0.00    +0.000 C 
BRANCH   4   5
ATOM      5  C   UNL     1       4.669   4.301  16.423  0.00  0.00    +0.000 C 
BRANCH   5   6
ATOM      6  C   UNL     1       4.066   3.187  17.263  0.00  0.00    +0.000 C 
BRANCH   6   7
ATOM      7  C   UNL     1       4.336   3.432  18.741  0.00  0.00    +0.000 C 
BRANCH   7   8
ATOM      8  C   UNL     1       3.226   4.270  19.351  0.00  0.00    +0.000 C 
BRANCH   8   9
ATOM      9  C   UNL     1       3.720   5.680  19.645  0.00  0.00    +0.000 C 
BRANCH   9  10
ATOM     10  C   UNL     1       2.636   6.702  19.329  0.00  0.00    +0.000 C 
BRANCH  10  12
ATOM     11  C   UNL     1       2.374   8.716  17.865  0.00  0.00    +0.000 C 
ATOM     12  C   UNL     1       2.809   7.261  17.922  0.00  0.00    +0.000 C 
ENDBRANCH  10  12
ENDBRANCH   9  10
ENDBRANCH   8   9
ENDBRANCH   7   8
ENDBRANCH   6   7
ENDBRANCH   5   6
ENDBRANCH   4   5
ENDBRANCH   3   4
ENDBRANCH   2   3
ENDBRANCH   1   2
BRANCH   1  13
ATOM     13  C   UNL     1       7.505   8.270  17.603  0.00  0.00    +0.000 C 
BRANCH  13  14
ATOM     14  C   UNL     1       8.641   8.996  18.315  0.00  0.00    +0.000 C 
BRANCH  14  15
ATOM     15  C   UNL     1       8.513  10.508  18.166  0.00  0.00    +0.000 C 
BRANCH  15  16
ATOM     16  C   UNL     1       9.829  11.208  18.445  0.00  0.00    +0.000 C 
ATOM     17  O   UNL     1      10.662  11.388  17.558  0.00  0.00    +0.000 OA
ATOM     18  N   UNL     1      10.027  11.653  19.739  0.00  0.00    +0.000 N 
ATOM     19  C   UNL     1       9.127  11.467  20.876  0.00  0.00    +0.000 C 
ATOM     20  C   UNL     1       8.762  12.826  21.482  0.00  0.00    +0.000 C 
ATOM     21  O   UNL     1       9.935  13.582  21.822  0.00  0.00    +0.000 OA
ATOM     22  C   UNL     1      10.755  13.802  20.661  0.00  0.00    +0.000 C 
ATOM     23  C   UNL     1      11.200  12.470  20.052  0.00  0.00    +0.000 C 
ENDBRANCH  15  16
ENDBRANCH  14  15
ENDBRANCH  13  14
ENDBRANCH   1  13
TORSDOF 14
ENDMDL
MODEL 7
REMARK VINA RESULT:      -5.9      3.969      8.605
REMARK  Name = 
REMARK  15 active torsions:
REMARK  status: ('A' for Active; 'I' for Inactive)
REMARK    1  A    between atoms: C_1  and  C_2
REMARK    2  A    between atoms: C_2  and  C_3
REMARK    3  A    between atoms: C_3  and  C_4
REMARK    4  A    between atoms: C_4  and  C_5
REMARK    5  A    between atoms: C_5  and  C_6
REMARK    6  A    between atoms: C_6  and  C_7
REMARK    7  A    between atoms: C_7  and  C_8
REMARK    8  A    between atoms: C_8  and  C_9
REMARK    9  A    between atoms: C_9  and  C_10
REMARK   10  A    between atoms: C_10  and  C_11
REMARK   11  A    between atoms: C_11  and  C_12
REMARK   12  A    between atoms: C_12  and  C_13
REMARK   13  A    between atoms: C_13  and  C_14
REMARK   14  A    between atoms: C_14  and  C_15
REMARK   15  A    between atoms: C_15  and  C_16
REMARK                            x       y       z     vdW  Elec       q    Type
REMARK                         _______ _______ _______ _____ _____    ______ ____
ROOT
ATOM      1  C   UNL     1       0.922   3.726  20.090  0.00  0.00    +0.000 C 
ENDROOT
BRANCH   1   2
ATOM      2  C   UNL     1       1.530   4.965  20.731  0.00  0.00    +0.000 C 
BRANCH   2   3
ATOM      3  C   UNL     1       2.297   5.777  19.697  0.00  0.00    +0.000 C 
BRANCH   3   4
ATOM      4  C   UNL     1       2.147   7.265  19.974  0.00  0.00    +0.000 C 
BRANCH   4   5
ATOM      5  C   UNL     1       1.208   7.495  21.149  0.00  0.00    +0.000 C 
BRANCH   5   6
ATOM      6  C   UNL     1       1.312   8.930  21.637  0.00  0.00    +0.000 C 
BRANCH   6   7
ATOM      7  C   UNL     1       0.833   9.893  20.560  0.00  0.00    +0.000 C 
BRANCH   7   8
ATOM      8  C   UNL     1      -0.638  10.215  20.751  0.00  0.00    +0.000 C 
BRANCH   8   9
ATOM      9  C   UNL     1      -0.809  11.616  21.324  0.00  0.00    +0.000 C 
BRANCH   9  10
ATOM     10  C   UNL     1      -1.450  12.538  20.296  0.00  0.00    +0.000 C 
BRANCH  10  12
ATOM     11  C   UNL     1      -1.666  12.083  17.844  0.00  0.00    +0.000 C 
ATOM     12  C   UNL     1      -2.185  11.736  19.229  0.00  0.00    +0.000 C 
ENDBRANCH  10  12
ENDBRANCH   9  10
ENDBRANCH   8   9
ENDBRANCH   7   8
ENDBRANCH   6   7
ENDBRANCH   5   6
ENDBRANCH   4   5
ENDBRANCH   3   4
ENDBRANCH   2   3
ENDBRANCH   1   2
BRANCH   1  13
ATOM     13  C   UNL     1       1.445   3.538  18.671  0.00  0.00    +0.000 C 
BRANCH  13  14
ATOM     14  C   UNL     1       2.190   2.213  18.555  0.00  0.00    +0.000 C 
BRANCH  14  15
ATOM     15  C   UNL     1       3.495   2.377  17.784  0.00  0.00    +0.000 C 
BRANCH  15  16
ATOM     16  C   UNL     1       4.504   3.196  18.567  0.00  0.00    +0.000 C 
ATOM     17  O   UNL     1       4.692   3.007  19.767  0.00  0.00    +0.000 OA
ATOM     18  N   UNL     1       5.214   4.143  17.853  0.00  0.00    +0.000 N 
ATOM     19  C   UNL     1       5.052   4.476  16.438  0.00  0.00    +0.000 C 
ATOM     20  C   UNL     1       6.388   4.312  15.706  0.00  0.00    +0.000 C 
ATOM     21  O   UNL     1       7.431   5.072  16.337  0.00  0.00    +0.000 OA
ATOM     22  C   UNL     1       7.604   4.663  17.705  0.00  0.00    +0.000 C 
ATOM     23  C   UNL     1       6.310   4.865  18.499  0.00  0.00    +0.000 C 
ENDBRANCH  15  16
ENDBRANCH  14  15
ENDBRANCH  13  14
ENDBRANCH   1  13
TORSDOF 14
ENDMDL
MODEL 8
REMARK VINA RESULT:      -5.9      5.839      9.282
REMARK  Name = 
REMARK  15 active torsions:
REMARK  status: ('A' for Active; 'I' for Inactive)
REMARK    1  A    between atoms: C_1  and  C_2
REMARK    2  A    between atoms: C_2  and  C_3
REMARK    3  A    between atoms: C_3  and  C_4
REMARK    4  A    between atoms: C_4  and  C_5
REMARK    5  A    between atoms: C_5  and  C_6
REMARK    6  A    between atoms: C_6  and  C_7
REMARK    7  A    between atoms: C_7  and  C_8
REMARK    8  A    between atoms: C_8  and  C_9
REMARK    9  A    between atoms: C_9  and  C_10
REMARK   10  A    between atoms: C_10  and  C_11
REMARK   11  A    between atoms: C_11  and  C_12
REMARK   12  A    between atoms: C_12  and  C_13
REMARK   13  A    between atoms: C_13  and  C_14
REMARK   14  A    between atoms: C_14  and  C_15
REMARK   15  A    between atoms: C_15  and  C_16
REMARK                            x       y       z     vdW  Elec       q    Type
REMARK                         _______ _______ _______ _____ _____    ______ ____
ROOT
ATOM      1  C   UNL     1       8.038   7.406  18.329  0.00  0.00    +0.000 C 
ENDROOT
BRANCH   1   2
ATOM      2  C   UNL     1       6.812   6.639  17.856  0.00  0.00    +0.000 C 
BRANCH   2   3
ATOM      3  C   UNL     1       7.085   5.142  17.860  0.00  0.00    +0.000 C 
BRANCH   3   4
ATOM      4  C   UNL     1       5.867   4.382  18.361  0.00  0.00    +0.000 C 
BRANCH   4   5
ATOM      5  C   UNL     1       4.664   5.307  18.452  0.00  0.00    +0.000 C 
BRANCH   5   6
ATOM      6  C   UNL     1       3.538   4.801  17.565  0.00  0.00    +0.000 C 
BRANCH   6   7
ATOM      7  C   UNL     1       2.190   5.046  18.228  0.00  0.00    +0.000 C 
BRANCH   7   8
ATOM      8  C   UNL     1       2.354   5.926  19.455  0.00  0.00    +0.000 C 
BRANCH   8   9
ATOM      9  C   UNL     1       1.635   5.315  20.651  0.00  0.00    +0.000 C 
BRANCH   9  10
ATOM     10  C   UNL     1       0.984   3.994  20.264  0.00  0.00    +0.000 C 
BRANCH  10  12
ATOM     11  C   UNL     1       2.860   2.637  21.214  0.00  0.00    +0.000 C 
ATOM     12  C   UNL     1       1.363   2.891  21.246  0.00  0.00    +0.000 C 
ENDBRANCH  10  12
ENDBRANCH   9  10
ENDBRANCH   8   9
ENDBRANCH   7   8
ENDBRANCH   6   7
ENDBRANCH   5   6
ENDBRANCH   4   5
ENDBRANCH   3   4
ENDBRANCH   2   3
ENDBRANCH   1   2
BRANCH   1  13
ATOM     13  C   UNL     1       8.301   8.613  17.436  0.00  0.00    +0.000 C 
BRANCH  13  14
ATOM     14  C   UNL     1       8.124   9.903  18.227  0.00  0.00    +0.000 C 
BRANCH  14  15
ATOM     15  C   UNL     1       9.273  10.114  19.208  0.00  0.00    +0.000 C 
BRANCH  15  16
ATOM     16  C   UNL     1      10.223  11.195  18.728  0.00  0.00    +0.000 C 
ATOM     17  O   UNL     1      10.561  11.276  17.548  0.00  0.00    +0.000 OA
ATOM     18  N   UNL     1      10.666  12.091  19.681  0.00  0.00    +0.000 N 
ATOM     19  C   UNL     1      10.360  12.072  21.112  0.00  0.00    +0.000 C 
ATOM     20  C   UNL     1       9.731  13.404  21.530  0.00  0.00    +0.000 C 
ATOM     21  O   UNL     1      10.558  14.518  21.157  0.00  0.00    +0.000 OA
ATOM     22  C   UNL     1      10.774  14.538  19.735  0.00  0.00    +0.000 C 
ATOM     23  C   UNL     1      11.460  13.250  19.272  0.00  0.00    +0.000 C 
ENDBRANCH  15  16
ENDBRANCH  14  15
ENDBRANCH  13  14
ENDBRANCH   1  13
TORSDOF 14
ENDMDL
MODEL 9
REMARK VINA RESULT:      -5.9      5.489      8.465
REMARK  Name = 
REMARK  15 active torsions:
REMARK  status: ('A' for Active; 'I' for Inactive)
REMARK    1  A    between atoms: C_1  and  C_2
REMARK    2  A    between atoms: C_2  and  C_3
REMARK    3  A    between atoms: C_3  and  C_4
REMARK    4  A    between atoms: C_4  and  C_5
REMARK    5  A    between atoms: C_5  and  C_6
REMARK    6  A    between atoms: C_6  and  C_7
REMARK    7  A    between atoms: C_7  and  C_8
REMARK    8  A    between atoms: C_8  and  C_9
REMARK    9  A    between atoms: C_9  and  C_10
REMARK   10  A    between atoms: C_10  and  C_11
REMARK   11  A    between atoms: C_11  and  C_12
REMARK   12  A    between atoms: C_12  and  C_13
REMARK   13  A    between atoms: C_13  and  C_14
REMARK   14  A    between atoms: C_14  and  C_15
REMARK   15  A    between atoms: C_15  and  C_16
REMARK                            x       y       z     vdW  Elec       q    Type
REMARK                         _______ _______ _______ _____ _____    ______ ____
ROOT
ATOM      1  C   UNL     1       6.846   7.260  17.467  0.00  0.00    +0.000 C 
ENDROOT
BRANCH   1   2
ATOM      2  C   UNL     1       7.149   6.005  16.660  0.00  0.00    +0.000 C 
BRANCH   2   3
ATOM      3  C   UNL     1       6.095   5.799  15.582  0.00  0.00    +0.000 C 
BRANCH   3   4
ATOM      4  C   UNL     1       6.149   4.373  15.054  0.00  0.00    +0.000 C 
BRANCH   4   5
ATOM      5  C   UNL     1       5.516   3.414  16.051  0.00  0.00    +0.000 C 
BRANCH   5   6
ATOM      6  C   UNL     1       4.289   4.045  16.688  0.00  0.00    +0.000 C 
BRANCH   6   7
ATOM      7  C   UNL     1       3.911   3.302  17.961  0.00  0.00    +0.000 C 
BRANCH   7   8
ATOM      8  C   UNL     1       2.513   2.723  17.843  0.00  0.00    +0.000 C 
BRANCH   8   9
ATOM      9  C   UNL     1       1.465   3.802  18.082  0.00  0.00    +0.000 C 
BRANCH   9  10
ATOM     10  C   UNL     1       1.437   4.202  19.551  0.00  0.00    +0.000 C 
BRANCH  10  12
ATOM     11  C   UNL     1       1.997   2.901  21.615  0.00  0.00    +0.000 C 
ATOM     12  C   UNL     1       1.054   3.018  20.430  0.00  0.00    +0.000 C 
ENDBRANCH  10  12
ENDBRANCH   9  10
ENDBRANCH   8   9
ENDBRANCH   7   8
ENDBRANCH   6   7
ENDBRANCH   5   6
ENDBRANCH   4   5
ENDBRANCH   3   4
ENDBRANCH   2   3
ENDBRANCH   1   2
BRANCH   1  13
ATOM     13  C   UNL     1       8.123   7.843  18.061  0.00  0.00    +0.000 C 
BRANCH  13  14
ATOM     14  C   UNL     1       8.141   9.357  17.891  0.00  0.00    +0.000 C 
BRANCH  14  15
ATOM     15  C   UNL     1       9.077  10.017  18.897  0.00  0.00    +0.000 C 
BRANCH  15  16
ATOM     16  C   UNL     1       9.176  11.513  18.668  0.00  0.00    +0.000 C 
ATOM     17  O   UNL     1       8.902  12.016  17.580  0.00  0.00    +0.000 OA
ATOM     18  N   UNL     1       9.564  12.277  19.752  0.00  0.00    +0.000 N 
ATOM     19  C   UNL     1       9.945  11.789  21.077  0.00  0.00    +0.000 C 
ATOM     20  C   UNL     1       9.063  12.439  22.147  0.00  0.00    +0.000 C 
ATOM     21  O   UNL     1       9.095  13.872  22.057  0.00  0.00    +0.000 OA
ATOM     22  C   UNL     1       8.646  14.312  20.763  0.00  0.00    +0.000 C 
ATOM     23  C   UNL     1       9.535  13.737  19.657  0.00  0.00    +0.000 C 
ENDBRANCH  15  16
ENDBRANCH  14  15
ENDBRANCH  13  14
ENDBRANCH   1  13
TORSDOF 14
ENDMDL
