MODEL 1
REMARK VINA RESULT:      -7.5      0.000      0.000
REMARK  Name = 
REMARK  8 active torsions:
REMARK  status: ('A' for Active; 'I' for Inactive)
REMARK    1  A    between atoms: C_1  and  C_2
REMARK    2  A    between atoms: C_5  and  N_6
REMARK    3  A    between atoms: N_9  and  C_10
REMARK    4  A    between atoms: C_13  and  N_14
REMARK    5  A    between atoms: C_15  and  C_17
REMARK    6  A    between atoms: C_17  and  C_18
REMARK    7  A    between atoms: C_18  and  C_19
REMARK    8  A    between atoms: C_19  and  O_21
REMARK                            x       y       z     vdW  Elec       q    Type
REMARK                         _______ _______ _______ _____ _____    ______ ____
ROOT
ATOM      1  C   UNL     1       1.326   8.629  19.533  0.00  0.00    +0.000 A 
ATOM      2  C   UNL     1       1.758   7.493  20.226  0.00  0.00    +0.000 A 
ATOM      3  C   UNL     1       2.720   6.621  19.701  0.00  0.00    +0.000 A 
ATOM      4  C   UNL     1       3.279   6.851  18.447  0.00  0.00    +0.000 A 
ATOM      5  C   UNL     1       2.865   7.982  17.740  0.00  0.00    +0.000 A 
ATOM      6  C   UNL     1       1.907   8.853  18.279  0.00  0.00    +0.000 A 
ENDROOT
BRANCH   1  10
ATOM      7  N   UNL     1      -0.250  11.503  22.007  0.00  0.00    +0.000 N 
ATOM      8  C   UNL     1      -0.087  10.106  22.453  0.00  0.00    +0.000 C 
ATOM      9  C   UNL     1      -0.390   9.138  21.289  0.00  0.00    +0.000 C 
ATOM     10  N   UNL     1       0.390   9.475  20.087  0.00  0.00    +0.000 N 
ATOM     11  C   UNL     1       0.268  10.883  19.647  0.00  0.00    +0.000 C 
ATOM     12  C   UNL     1       0.555  11.851  20.820  0.00  0.00    +0.000 C 
BRANCH   7  17
ATOM     13  C   UNL     1      -3.697  15.231  24.671  0.00  0.00    +0.000 C 
ATOM     14  C   UNL     1      -2.807  14.251  23.969  0.00  0.00    +0.000 A 
ATOM     15  C   UNL     1      -3.215  12.939  23.734  0.00  0.00    +0.000 A 
ATOM     16  C   UNL     1      -2.364  12.036  23.082  0.00  0.00    +0.000 A 
ATOM     17  C   UNL     1      -1.081  12.398  22.645  0.00  0.00    +0.000 A 
ATOM     18  C   UNL     1      -0.696  13.725  22.889  0.00  0.00    +0.000 A 
ATOM     19  C   UNL     1      -1.539  14.639  23.538  0.00  0.00    +0.000 A 
ENDBRANCH   7  17
ENDBRANCH   1  10
BRANCH   4  20
ATOM     20  N   UNL     1       4.238   6.001  17.852  0.00  0.00    +0.000 N 
ATOM     21  C   UNL     1       3.999   4.748  17.327  0.00  0.00    +0.000 C 
ATOM     22  O   UNL     1       2.915   4.165  17.278  0.00  0.00    +0.000 OA
ATOM     23  H   UNL     1       5.157   6.403  17.713  0.00  0.00    +0.000 HD
BRANCH  21  24
ATOM     24  C   UNL     1       5.198   4.110  16.659  0.00  0.00    +0.000 C 
BRANCH  24  25
ATOM     25  C   UNL     1       6.377   5.070  16.775  0.00  0.00    +0.000 C 
BRANCH  25  26
ATOM     26  C   UNL     1       7.236   4.684  17.951  0.00  0.00    +0.000 C 
ATOM     27  O   UNL     1       6.993   5.027  19.098  0.00  0.00    +0.000 OA
BRANCH  26  28
ATOM     28  O   UNL     1       8.345   3.991  17.614  0.00  0.00    +0.000 OA
ATOM     29  H   UNL     1       8.782   4.298  16.788  0.00  0.00    +0.000 HD
ENDBRANCH  26  28
ENDBRANCH  25  26
ENDBRANCH  24  25
ENDBRANCH  21  24
ENDBRANCH   4  20
TORSDOF 7
ENDMDL
MODEL 2
REMARK VINA RESULT:      -7.5      1.540      2.366
REMARK  Name = 
REMARK  8 active torsions:
REMARK  status: ('A' for Active; 'I' for Inactive)
REMARK    1  A    between atoms: C_1  and  C_2
REMARK    2  A    between atoms: C_5  and  N_6
REMARK    3  A    between atoms: N_9  and  C_10
REMARK    4  A    between atoms: C_13  and  N_14
REMARK    5  A    between atoms: C_15  and  C_17
REMARK    6  A    between atoms: C_17  and  C_18
REMARK    7  A    between atoms: C_18  and  C_19
REMARK    8  A    between atoms: C_19  and  O_21
REMARK                            x       y       z     vdW  Elec       q    Type
REMARK                         _______ _______ _______ _____ _____    ______ ____
ROOT
ATOM      1  C   UNL     1       1.517   8.532  20.298  0.00  0.00    +0.000 A 
ATOM      2  C   UNL     1       1.906   8.634  18.958  0.00  0.00    +0.000 A 
ATOM      3  C   UNL     1       2.329   7.522  18.218  0.00  0.00    +0.000 A 
ATOM      4  C   UNL     1       2.392   6.261  18.803  0.00  0.00    +0.000 A 
ATOM      5  C   UNL     1       2.005   6.136  20.138  0.00  0.00    +0.000 A 
ATOM      6  C   UNL     1       1.574   7.254  20.868  0.00  0.00    +0.000 A 
ENDROOT
BRANCH   1  10
ATOM      7  N   UNL     1      -1.066  11.115  22.174  0.00  0.00    +0.000 N 
ATOM      8  C   UNL     1      -0.905  11.114  20.707  0.00  0.00    +0.000 C 
ATOM      9  C   UNL     1       0.571  10.853  20.334  0.00  0.00    +0.000 C 
ATOM     10  N   UNL     1       1.089   9.643  20.992  0.00  0.00    +0.000 N 
ATOM     11  C   UNL     1       0.902   9.609  22.460  0.00  0.00    +0.000 C 
ATOM     12  C   UNL     1      -0.574   9.889  22.831  0.00  0.00    +0.000 C 
BRANCH   7  17
ATOM     13  C   UNL     1      -3.378  15.502  25.051  0.00  0.00    +0.000 C 
ATOM     14  C   UNL     1      -2.786  14.353  24.294  0.00  0.00    +0.000 A 
ATOM     15  C   UNL     1      -3.519  13.194  24.044  0.00  0.00    +0.000 A 
ATOM     16  C   UNL     1      -2.943  12.127  23.339  0.00  0.00    +0.000 A 
ATOM     17  C   UNL     1      -1.625  12.170  22.863  0.00  0.00    +0.000 A 
ATOM     18  C   UNL     1      -0.910  13.348  23.124  0.00  0.00    +0.000 A 
ATOM     19  C   UNL     1      -1.475  14.424  23.824  0.00  0.00    +0.000 A 
ENDBRANCH   7  17
ENDBRANCH   1  10
BRANCH   4  20
ATOM     20  N   UNL     1       2.828   5.105  18.119  0.00  0.00    +0.000 N 
ATOM     21  C   UNL     1       4.140   4.740  17.894  0.00  0.00    +0.000 C 
ATOM     22  O   UNL     1       5.146   5.350  18.258  0.00  0.00    +0.000 OA
ATOM     23  H   UNL     1       2.105   4.442  17.867  0.00  0.00    +0.000 HD
BRANCH  21  24
ATOM     24  C   UNL     1       4.309   3.393  17.224  0.00  0.00    +0.000 C 
BRANCH  24  25
ATOM     25  C   UNL     1       3.407   2.390  17.933  0.00  0.00    +0.000 C 
BRANCH  25  26
ATOM     26  C   UNL     1       3.774   2.315  19.393  0.00  0.00    +0.000 C 
ATOM     27  O   UNL     1       3.027   2.677  20.290  0.00  0.00    +0.000 OA
BRANCH  26  28
ATOM     28  O   UNL     1       5.034   1.885  19.619  0.00  0.00    +0.000 OA
ATOM     29  H   UNL     1       5.712   2.286  19.030  0.00  0.00    +0.000 HD
ENDBRANCH  26  28
ENDBRANCH  25  26
ENDBRANCH  24  25
ENDBRANCH  21  24
ENDBRANCH   4  20
TORSDOF 7
ENDMDL
MODEL 3
REMARK VINA RESULT:      -7.5      0.838      1.664
REMARK  Name = 
REMARK  8 active torsions:
REMARK  status: ('A' for Active; 'I' for Inactive)
REMARK    1  A    between atoms: C_1  and  C_2
REMARK    2  A    between atoms: C_5  and  N_6
REMARK    3  A    between atoms: N_9  and  C_10
REMARK    4  A    between atoms: C_13  and  N_14
REMARK    5  A    between atoms: C_15  and  C_17
REMARK    6  A    between atoms: C_17  and  C_18
REMARK    7  A    between atoms: C_18  and  C_19
REMARK    8  A    between atoms: C_19  and  O_21
REMARK                            x       y       z     vdW  Elec       q    Type
REMARK                         _______ _______ _______ _____ _____    ______ ____
ROOT
ATOM      1  C   UNL     1       1.317   8.326  19.836  0.00  0.00    +0.000 A 
ATOM      2  C   UNL     1       1.903   8.580  18.592  0.00  0.00    +0.000 A 
ATOM      3  C   UNL     1       2.852   7.718  18.026  0.00  0.00    +0.000 A 
ATOM      4  C   UNL     1       3.260   6.570  18.698  0.00  0.00    +0.000 A 
ATOM      5  C   UNL     1       2.685   6.296  19.940  0.00  0.00    +0.000 A 
ATOM      6  C   UNL     1       1.729   7.161  20.494  0.00  0.00    +0.000 A 
ENDROOT
BRANCH   1  10
ATOM      7  N   UNL     1      -0.261  11.350  22.124  0.00  0.00    +0.000 N 
ATOM      8  C   UNL     1      -0.030  10.003  22.679  0.00  0.00    +0.000 C 
ATOM      9  C   UNL     1      -0.344   8.929  21.615  0.00  0.00    +0.000 C 
ATOM     10  N   UNL     1       0.374   9.186  20.356  0.00  0.00    +0.000 N 
ATOM     11  C   UNL     1       0.184  10.546  19.805  0.00  0.00    +0.000 C 
ATOM     12  C   UNL     1       0.482  11.620  20.878  0.00  0.00    +0.000 C 
BRANCH   7  17
ATOM     13  C   UNL     1      -3.754  15.171  24.588  0.00  0.00    +0.000 C 
ATOM     14  C   UNL     1      -2.831  14.178  23.950  0.00  0.00    +0.000 A 
ATOM     15  C   UNL     1      -1.554  14.544  23.527  0.00  0.00    +0.000 A 
ATOM     16  C   UNL     1      -0.708  13.601  22.925  0.00  0.00    +0.000 A 
ATOM     17  C   UNL     1      -1.097  12.270  22.719  0.00  0.00    +0.000 A 
ATOM     18  C   UNL     1      -2.385  11.926  23.158  0.00  0.00    +0.000 A 
ATOM     19  C   UNL     1      -3.240  12.858  23.764  0.00  0.00    +0.000 A 
ENDBRANCH   7  17
ENDBRANCH   1  10
BRANCH   4  20
ATOM     20  N   UNL     1       4.226   5.671  18.193  0.00  0.00    +0.000 N 
ATOM     21  C   UNL     1       3.968   4.513  17.488  0.00  0.00    +0.000 C 
ATOM     22  O   UNL     1       2.862   4.075  17.172  0.00  0.00    +0.000 OA
ATOM     23  H   UNL     1       5.190   5.969  18.274  0.00  0.00    +0.000 HD
BRANCH  21  24
ATOM     24  C   UNL     1       5.205   3.801  16.982  0.00  0.00    +0.000 C 
BRANCH  24  25
ATOM     25  C   UNL     1       5.606   4.428  15.652  0.00  0.00    +0.000 C 
BRANCH  25  26
ATOM     26  C   UNL     1       7.078   4.750  15.662  0.00  0.00    +0.000 C 
ATOM     27  O   UNL     1       7.823   4.448  16.581  0.00  0.00    +0.000 OA
BRANCH  26  28
ATOM     28  O   UNL     1       7.486   5.474  14.597  0.00  0.00    +0.000 OA
ATOM     29  H   UNL     1       8.459   5.615  14.549  0.00  0.00    +0.000 HD
ENDBRANCH  26  28
ENDBRANCH  25  26
ENDBRANCH  24  25
ENDBRANCH  21  24
ENDBRANCH   4  20
TORSDOF 7
ENDMDL
MODEL 4
REMARK VINA RESULT:      -7.5      1.490      2.318
REMARK  Name = 
REMARK  8 active torsions:
REMARK  status: ('A' for Active; 'I' for Inactive)
REMARK    1  A    between atoms: C_1  and  C_2
REMARK    2  A    between atoms: C_5  and  N_6
REMARK    3  A    between atoms: N_9  and  C_10
REMARK    4  A    between atoms: C_13  and  N_14
REMARK    5  A    between atoms: C_15  and  C_17
REMARK    6  A    between atoms: C_17  and  C_18
REMARK    7  A    between atoms: C_18  and  C_19
REMARK    8  A    between atoms: C_19  and  O_21
REMARK                            x       y       z     vdW  Elec       q    Type
REMARK                         _______ _______ _______ _____ _____    ______ ____
ROOT
ATOM      1  C   UNL     1       1.551   8.537  20.196  0.00  0.00    +0.000 A 
ATOM      2  C   UNL     1       1.671   7.282  20.799  0.00  0.00    +0.000 A 
ATOM      3  C   UNL     1       2.116   6.156  20.095  0.00  0.00    +0.000 A 
ATOM      4  C   UNL     1       2.446   6.246  18.746  0.00  0.00    +0.000 A 
ATOM      5  C   UNL     1       2.336   7.491  18.124  0.00  0.00    +0.000 A 
ATOM      6  C   UNL     1       1.898   8.614  18.841  0.00  0.00    +0.000 A 
ENDROOT
BRANCH   1  10
ATOM      7  N   UNL     1      -1.034  11.111  22.083  0.00  0.00    +0.000 N 
ATOM      8  C   UNL     1      -0.812  11.172  20.626  0.00  0.00    +0.000 C 
ATOM      9  C   UNL     1       0.670  10.883  20.302  0.00  0.00    +0.000 C 
ATOM     10  N   UNL     1       1.126   9.629  20.923  0.00  0.00    +0.000 N 
ATOM     11  C   UNL     1       0.876   9.534  22.378  0.00  0.00    +0.000 C 
ATOM     12  C   UNL     1      -0.605   9.842  22.702  0.00  0.00    +0.000 C 
BRANCH   7  17
ATOM     13  C   UNL     1      -3.338  15.433  25.064  0.00  0.00    +0.000 C 
ATOM     14  C   UNL     1      -2.748  14.301  24.280  0.00  0.00    +0.000 A 
ATOM     15  C   UNL     1      -3.468  13.132  24.040  0.00  0.00    +0.000 A 
ATOM     16  C   UNL     1      -2.894  12.081  23.310  0.00  0.00    +0.000 A 
ATOM     17  C   UNL     1      -1.591  12.150  22.797  0.00  0.00    +0.000 A 
ATOM     18  C   UNL     1      -0.889  13.338  23.048  0.00  0.00    +0.000 A 
ATOM     19  C   UNL     1      -1.452  14.398  23.774  0.00  0.00    +0.000 A 
ENDBRANCH   7  17
ENDBRANCH   1  10
BRANCH   4  20
ATOM     20  N   UNL     1       2.881   5.146  17.973  0.00  0.00    +0.000 N 
ATOM     21  C   UNL     1       4.184   4.710  17.841  0.00  0.00    +0.000 C 
ATOM     22  O   UNL     1       5.179   5.195  18.379  0.00  0.00    +0.000 OA
ATOM     23  H   UNL     1       2.150   4.575  17.568  0.00  0.00    +0.000 HD
BRANCH  21  24
ATOM     24  C   UNL     1       4.340   3.441  17.030  0.00  0.00    +0.000 C 
BRANCH  24  25
ATOM     25  C   UNL     1       3.112   2.570  17.265  0.00  0.00    +0.000 C 
BRANCH  25  26
ATOM     26  C   UNL     1       3.257   1.821  18.565  0.00  0.00    +0.000 C 
ATOM     27  O   UNL     1       2.637   2.110  19.577  0.00  0.00    +0.000 OA
BRANCH  26  28
ATOM     28  O   UNL     1       4.193   0.848  18.534  0.00  0.00    +0.000 OA
ATOM     29  H   UNL     1       4.054   0.171  17.834  0.00  0.00    +0.000 HD
ENDBRANCH  26  28
ENDBRANCH  25  26
ENDBRANCH  24  25
ENDBRANCH  21  24
ENDBRANCH   4  20
TORSDOF 7
ENDMDL
MODEL 5
REMARK VINA RESULT:      -7.4      0.680      1.200
REMARK  Name = 
REMARK  8 active torsions:
REMARK  status: ('A' for Active; 'I' for Inactive)
REMARK    1  A    between atoms: C_1  and  C_2
REMARK    2  A    between atoms: C_5  and  N_6
REMARK    3  A    between atoms: N_9  and  C_10
REMARK    4  A    between atoms: C_13  and  N_14
REMARK    5  A    between atoms: C_15  and  C_17
REMARK    6  A    between atoms: C_17  and  C_18
REMARK    7  A    between atoms: C_18  and  C_19
REMARK    8  A    between atoms: C_19  and  O_21
REMARK                            x       y       z     vdW  Elec       q    Type
REMARK                         _______ _______ _______ _____ _____    ______ ____
ROOT
ATOM      1  C   UNL     1       1.230   8.429  19.687  0.00  0.00    +0.000 A 
ATOM      2  C   UNL     1       1.769   8.694  18.424  0.00  0.00    +0.000 A 
ATOM      3  C   UNL     1       2.712   7.850  17.824  0.00  0.00    +0.000 A 
ATOM      4  C   UNL     1       3.162   6.707  18.480  0.00  0.00    +0.000 A 
ATOM      5  C   UNL     1       2.633   6.421  19.740  0.00  0.00    +0.000 A 
ATOM      6  C   UNL     1       1.683   7.270  20.328  0.00  0.00    +0.000 A 
ENDROOT
BRANCH   1  10
ATOM      7  N   UNL     1      -0.330  11.381  22.078  0.00  0.00    +0.000 N 
ATOM      8  C   UNL     1      -0.094  10.018  22.590  0.00  0.00    +0.000 C 
ATOM      9  C   UNL     1      -0.417   8.976  21.496  0.00  0.00    +0.000 C 
ATOM     10  N   UNL     1       0.291   9.272  20.241  0.00  0.00    +0.000 N 
ATOM     11  C   UNL     1       0.096  10.649  19.732  0.00  0.00    +0.000 C 
ATOM     12  C   UNL     1       0.403  11.689  20.835  0.00  0.00    +0.000 C 
BRANCH   7  17
ATOM     13  C   UNL     1      -3.779  15.131  24.708  0.00  0.00    +0.000 C 
ATOM     14  C   UNL     1      -2.889  14.145  24.015  0.00  0.00    +0.000 A 
ATOM     15  C   UNL     1      -3.281  12.821  23.825  0.00  0.00    +0.000 A 
ATOM     16  C   UNL     1      -2.429  11.913  23.181  0.00  0.00    +0.000 A 
ATOM     17  C   UNL     1      -1.162  12.281  22.708  0.00  0.00    +0.000 A 
ATOM     18  C   UNL     1      -0.792  13.620  22.907  0.00  0.00    +0.000 A 
ATOM     19  C   UNL     1      -1.636  14.539  23.547  0.00  0.00    +0.000 A 
ENDBRANCH   7  17
ENDBRANCH   1  10
BRANCH   4  20
ATOM     20  N   UNL     1       4.125   5.826  17.940  0.00  0.00    +0.000 N 
ATOM     21  C   UNL     1       3.881   4.562  17.442  0.00  0.00    +0.000 C 
ATOM     22  O   UNL     1       2.789   3.997  17.373  0.00  0.00    +0.000 OA
ATOM     23  H   UNL     1       5.055   6.208  17.821  0.00  0.00    +0.000 HD
BRANCH  21  24
ATOM     24  C   UNL     1       5.090   3.886  16.832  0.00  0.00    +0.000 C 
BRANCH  24  25
ATOM     25  C   UNL     1       5.738   4.857  15.853  0.00  0.00    +0.000 C 
BRANCH  25  26
ATOM     26  C   UNL     1       7.081   5.296  16.380  0.00  0.00    +0.000 C 
ATOM     27  O   UNL     1       7.478   6.450  16.324  0.00  0.00    +0.000 OA
BRANCH  26  28
ATOM     28  O   UNL     1       7.840   4.282  16.850  0.00  0.00    +0.000 OA
ATOM     29  H   UNL     1       8.651   4.570  17.328  0.00  0.00    +0.000 HD
ENDBRANCH  26  28
ENDBRANCH  25  26
ENDBRANCH  24  25
ENDBRANCH  21  24
ENDBRANCH   4  20
TORSDOF 7
ENDMDL
MODEL 6
REMARK VINA RESULT:      -7.4      1.798      2.378
REMARK  Name = 
REMARK  8 active torsions:
REMARK  status: ('A' for Active; 'I' for Inactive)
REMARK    1  A    between atoms: C_1  and  C_2
REMARK    2  A    between atoms: C_5  and  N_6
REMARK    3  A    between atoms: N_9  and  C_10
REMARK    4  A    between atoms: C_13  and  N_14
REMARK    5  A    between atoms: C_15  and  C_17
REMARK    6  A    between atoms: C_17  and  C_18
REMARK    7  A    between atoms: C_18  and  C_19
REMARK    8  A    between atoms: C_19  and  O_21
REMARK                            x       y       z     vdW  Elec       q    Type
REMARK                         _______ _______ _______ _____ _____    ______ ____
ROOT
ATOM      1  C   UNL     1       1.551   8.498  20.407  0.00  0.00    +0.000 A 
ATOM      2  C   UNL     1       1.980   8.580  19.078  0.00  0.00    +0.000 A 
ATOM      3  C   UNL     1       2.433   7.460  18.370  0.00  0.00    +0.000 A 
ATOM      4  C   UNL     1       2.486   6.209  18.978  0.00  0.00    +0.000 A 
ATOM      5  C   UNL     1       2.059   6.103  20.303  0.00  0.00    +0.000 A 
ATOM      6  C   UNL     1       1.598   7.230  21.000  0.00  0.00    +0.000 A 
ENDROOT
BRANCH   1  10
ATOM      7  N   UNL     1      -1.101  11.076  22.193  0.00  0.00    +0.000 N 
ATOM      8  C   UNL     1      -0.926  11.041  20.728  0.00  0.00    +0.000 C 
ATOM      9  C   UNL     1       0.558  10.800  20.375  0.00  0.00    +0.000 C 
ATOM     10  N   UNL     1       1.094   9.617  21.068  0.00  0.00    +0.000 N 
ATOM     11  C   UNL     1       0.894   9.617  22.535  0.00  0.00    +0.000 C 
ATOM     12  C   UNL     1      -0.590   9.877  22.885  0.00  0.00    +0.000 C 
BRANCH   7  17
ATOM     13  C   UNL     1      -3.526  15.487  24.936  0.00  0.00    +0.000 C 
ATOM     14  C   UNL     1      -2.904  14.331  24.214  0.00  0.00    +0.000 A 
ATOM     15  C   UNL     1      -3.601  13.141  24.015  0.00  0.00    +0.000 A 
ATOM     16  C   UNL     1      -2.998  12.068  23.343  0.00  0.00    +0.000 A 
ATOM     17  C   UNL     1      -1.687  12.136  22.850  0.00  0.00    +0.000 A 
ATOM     18  C   UNL     1      -1.009  13.346  23.059  0.00  0.00    +0.000 A 
ATOM     19  C   UNL     1      -1.601  14.427  23.727  0.00  0.00    +0.000 A 
ENDBRANCH   7  17
ENDBRANCH   1  10
BRANCH   4  20
ATOM     20  N   UNL     1       2.951   5.044  18.328  0.00  0.00    +0.000 N 
ATOM     21  C   UNL     1       2.167   4.084  17.721  0.00  0.00    +0.000 C 
ATOM     22  O   UNL     1       0.939   4.084  17.634  0.00  0.00    +0.000 OA
ATOM     23  H   UNL     1       3.954   4.973  18.215  0.00  0.00    +0.000 HD
BRANCH  21  24
ATOM     24  C   UNL     1       2.946   2.996  17.012  0.00  0.00    +0.000 C 
BRANCH  24  25
ATOM     25  C   UNL     1       3.201   1.868  18.005  0.00  0.00    +0.000 C 
BRANCH  25  26
ATOM     26  C   UNL     1       3.899   2.409  19.226  0.00  0.00    +0.000 C 
ATOM     27  O   UNL     1       3.360   2.504  20.318  0.00  0.00    +0.000 OA
BRANCH  26  28
ATOM     28  O   UNL     1       5.152   2.854  18.987  0.00  0.00    +0.000 OA
ATOM     29  H   UNL     1       5.723   2.219  18.498  0.00  0.00    +0.000 HD
ENDBRANCH  26  28
ENDBRANCH  25  26
ENDBRANCH  24  25
ENDBRANCH  21  24
ENDBRANCH   4  20
TORSDOF 7
ENDMDL
MODEL 7
REMARK VINA RESULT:      -7.4      1.513      2.236
REMARK  Name = 
REMARK  8 active torsions:
REMARK  status: ('A' for Active; 'I' for Inactive)
REMARK    1  A    between atoms: C_1  and  C_2
REMARK    2  A    between atoms: C_5  and  N_6
REMARK    3  A    between atoms: N_9  and  C_10
REMARK    4  A    between atoms: C_13  and  N_14
REMARK    5  A    between atoms: C_15  and  C_17
REMARK    6  A    between atoms: C_17  and  C_18
REMARK    7  A    between atoms: C_18  and  C_19
REMARK    8  A    between atoms: C_19  and  O_21
REMARK                            x       y       z     vdW  Elec       q    Type
REMARK                         _______ _______ _______ _____ _____    ______ ____
ROOT
ATOM      1  C   UNL     1       1.978   8.010  19.168  0.00  0.00    +0.000 A 
ATOM      2  C   UNL     1       2.381   6.793  19.725  0.00  0.00    +0.000 A 
ATOM      3  C   UNL     1       3.369   5.994  19.135  0.00  0.00    +0.000 A 
ATOM      4  C   UNL     1       3.983   6.383  17.948  0.00  0.00    +0.000 A 
ATOM      5  C   UNL     1       3.598   7.597  17.376  0.00  0.00    +0.000 A 
ATOM      6  C   UNL     1       2.614   8.394  17.981  0.00  0.00    +0.000 A 
ENDROOT
BRANCH   1  10
ATOM      7  N   UNL     1       0.364  10.997  21.479  0.00  0.00    +0.000 N 
ATOM      8  C   UNL     1       0.882   9.753  22.078  0.00  0.00    +0.000 C 
ATOM      9  C   UNL     1       0.562   8.549  21.165  0.00  0.00    +0.000 C 
ATOM     10  N   UNL     1       1.016   8.781  19.784  0.00  0.00    +0.000 N 
ATOM     11  C   UNL     1       0.536  10.043  19.180  0.00  0.00    +0.000 C 
ATOM     12  C   UNL     1       0.843  11.245  20.105  0.00  0.00    +0.000 C 
BRANCH   7  17
ATOM     13  C   UNL     1      -3.208  14.526  24.245  0.00  0.00    +0.000 C 
ATOM     14  C   UNL     1      -2.264  13.612  23.526  0.00  0.00    +0.000 A 
ATOM     15  C   UNL     1      -1.171  14.109  22.819  0.00  0.00    +0.000 A 
ATOM     16  C   UNL     1      -0.304  13.237  22.146  0.00  0.00    +0.000 A 
ATOM     17  C   UNL     1      -0.491  11.847  22.146  0.00  0.00    +0.000 A 
ATOM     18  C   UNL     1      -1.596  11.372  22.868  0.00  0.00    +0.000 A 
ATOM     19  C   UNL     1      -2.469  12.233  23.548  0.00  0.00    +0.000 A 
ENDBRANCH   7  17
ENDBRANCH   1  10
BRANCH   4  20
ATOM     20  N   UNL     1       4.970   5.615  17.291  0.00  0.00    +0.000 N 
ATOM     21  C   UNL     1       6.292   5.497  17.668  0.00  0.00    +0.000 C 
ATOM     22  O   UNL     1       6.830   6.027  18.640  0.00  0.00    +0.000 OA
ATOM     23  H   UNL     1       4.640   5.024  16.538  0.00  0.00    +0.000 HD
BRANCH  21  24
ATOM     24  C   UNL     1       7.096   4.521  16.834  0.00  0.00    +0.000 C 
BRANCH  24  25
ATOM     25  C   UNL     1       6.189   3.965  15.742  0.00  0.00    +0.000 C 
BRANCH  25  26
ATOM     26  C   UNL     1       6.717   4.362  14.388  0.00  0.00    +0.000 C 
ATOM     27  O   UNL     1       6.401   3.794  13.353  0.00  0.00    +0.000 OA
BRANCH  26  28
ATOM     28  O   UNL     1       7.634   5.353  14.427  0.00  0.00    +0.000 OA
ATOM     29  H   UNL     1       8.346   5.275  13.753  0.00  0.00    +0.000 HD
ENDBRANCH  26  28
ENDBRANCH  25  26
ENDBRANCH  24  25
ENDBRANCH  21  24
ENDBRANCH   4  20
TORSDOF 7
ENDMDL
MODEL 8
REMARK VINA RESULT:      -7.3      1.131      1.653
REMARK  Name = 
REMARK  8 active torsions:
REMARK  status: ('A' for Active; 'I' for Inactive)
REMARK    1  A    between atoms: C_1  and  C_2
REMARK    2  A    between atoms: C_5  and  N_6
REMARK    3  A    between atoms: N_9  and  C_10
REMARK    4  A    between atoms: C_13  and  N_14
REMARK    5  A    between atoms: C_15  and  C_17
REMARK    6  A    between atoms: C_17  and  C_18
REMARK    7  A    between atoms: C_18  and  C_19
REMARK    8  A    between atoms: C_19  and  O_21
REMARK                            x       y       z     vdW  Elec       q    Type
REMARK                         _______ _______ _______ _____ _____    ______ ____
ROOT
ATOM      1  C   UNL     1       1.347   8.486  19.598  0.00  0.00    +0.000 A 
ATOM      2  C   UNL     1       1.733   7.325  20.276  0.00  0.00    +0.000 A 
ATOM      3  C   UNL     1       2.689   6.442  19.757  0.00  0.00    +0.000 A 
ATOM      4  C   UNL     1       3.285   6.685  18.523  0.00  0.00    +0.000 A 
ATOM      5  C   UNL     1       2.917   7.840  17.831  0.00  0.00    +0.000 A 
ATOM      6  C   UNL     1       1.966   8.723  18.364  0.00  0.00    +0.000 A 
ENDROOT
BRANCH   1  10
ATOM      7  N   UNL     1      -0.203  11.406  22.035  0.00  0.00    +0.000 N 
ATOM      8  C   UNL     1      -0.036  10.018  22.504  0.00  0.00    +0.000 C 
ATOM      9  C   UNL     1      -0.351   9.028  21.361  0.00  0.00    +0.000 C 
ATOM     10  N   UNL     1       0.417   9.343  20.145  0.00  0.00    +0.000 N 
ATOM     11  C   UNL     1       0.291  10.743  19.681  0.00  0.00    +0.000 C 
ATOM     12  C   UNL     1       0.590  11.731  20.833  0.00  0.00    +0.000 C 
BRANCH   7  17
ATOM     13  C   UNL     1      -3.646  15.176  24.643  0.00  0.00    +0.000 C 
ATOM     14  C   UNL     1      -2.736  14.196  23.967  0.00  0.00    +0.000 A 
ATOM     15  C   UNL     1      -1.469  14.572  23.521  0.00  0.00    +0.000 A 
ATOM     16  C   UNL     1      -0.636  13.641  22.884  0.00  0.00    +0.000 A 
ATOM     17  C   UNL     1      -1.027  12.313  22.664  0.00  0.00    +0.000 A 
ATOM     18  C   UNL     1      -2.304  11.960  23.126  0.00  0.00    +0.000 A 
ATOM     19  C   UNL     1      -3.146  12.879  23.767  0.00  0.00    +0.000 A 
ENDBRANCH   7  17
ENDBRANCH   1  10
BRANCH   4  20
ATOM     20  N   UNL     1       4.239   5.825  17.935  0.00  0.00    +0.000 N 
ATOM     21  C   UNL     1       3.999   4.557  17.447  0.00  0.00    +0.000 C 
ATOM     22  O   UNL     1       2.919   3.968  17.431  0.00  0.00    +0.000 OA
ATOM     23  H   UNL     1       5.154   6.228  17.770  0.00  0.00    +0.000 HD
BRANCH  21  24
ATOM     24  C   UNL     1       5.191   3.908  16.776  0.00  0.00    +0.000 C 
BRANCH  24  25
ATOM     25  C   UNL     1       5.244   4.385  15.329  0.00  0.00    +0.000 C 
BRANCH  25  26
ATOM     26  C   UNL     1       6.155   5.580  15.217  0.00  0.00    +0.000 C 
ATOM     27  O   UNL     1       7.372   5.492  15.163  0.00  0.00    +0.000 OA
BRANCH  26  28
ATOM     28  O   UNL     1       5.509   6.766  15.261  0.00  0.00    +0.000 OA
ATOM     29  H   UNL     1       6.040   7.530  14.941  0.00  0.00    +0.000 HD
ENDBRANCH  26  28
ENDBRANCH  25  26
ENDBRANCH  24  25
ENDBRANCH  21  24
ENDBRANCH   4  20
TORSDOF 7
ENDMDL
MODEL 9
REMARK VINA RESULT:      -7.3      1.715      2.368
REMARK  Name = 
REMARK  8 active torsions:
REMARK  status: ('A' for Active; 'I' for Inactive)
REMARK    1  A    between atoms: C_1  and  C_2
REMARK    2  A    between atoms: C_5  and  N_6
REMARK    3  A    between atoms: N_9  and  C_10
REMARK    4  A    between atoms: C_13  and  N_14
REMARK    5  A    between atoms: C_15  and  C_17
REMARK    6  A    between atoms: C_17  and  C_18
REMARK    7  A    between atoms: C_18  and  C_19
REMARK    8  A    between atoms: C_19  and  O_21
REMARK                            x       y       z     vdW  Elec       q    Type
REMARK                         _______ _______ _______ _____ _____    ______ ____
ROOT
ATOM      1  C   UNL     1       1.989   7.937  19.231  0.00  0.00    +0.000 A 
ATOM      2  C   UNL     1       2.551   8.328  18.012  0.00  0.00    +0.000 A 
ATOM      3  C   UNL     1       3.519   7.557  17.356  0.00  0.00    +0.000 A 
ATOM      4  C   UNL     1       3.973   6.364  17.911  0.00  0.00    +0.000 A 
ATOM      5  C   UNL     1       3.423   5.952  19.126  0.00  0.00    +0.000 A 
ATOM      6  C   UNL     1       2.447   6.728  19.770  0.00  0.00    +0.000 A 
ENDROOT
BRANCH   1  10
ATOM      7  N   UNL     1       0.368  10.965  21.483  0.00  0.00    +0.000 N 
ATOM      8  C   UNL     1       0.912   9.745  22.108  0.00  0.00    +0.000 C 
ATOM      9  C   UNL     1       0.595   8.512  21.234  0.00  0.00    +0.000 C 
ATOM     10  N   UNL     1       1.025   8.711  19.841  0.00  0.00    +0.000 N 
ATOM     11  C   UNL     1       0.518   9.949  19.209  0.00  0.00    +0.000 C 
ATOM     12  C   UNL     1       0.823  11.181  20.095  0.00  0.00    +0.000 C 
BRANCH   7  17
ATOM     13  C   UNL     1      -3.185  14.536  24.220  0.00  0.00    +0.000 C 
ATOM     14  C   UNL     1      -2.267  13.595  23.502  0.00  0.00    +0.000 A 
ATOM     15  C   UNL     1      -2.483  12.218  23.517  0.00  0.00    +0.000 A 
ATOM     16  C   UNL     1      -1.607  11.354  22.845  0.00  0.00    +0.000 A 
ATOM     17  C   UNL     1      -0.489  11.822  22.139  0.00  0.00    +0.000 A 
ATOM     18  C   UNL     1      -0.297  13.211  22.135  0.00  0.00    +0.000 A 
ATOM     19  C   UNL     1      -1.166  14.087  22.801  0.00  0.00    +0.000 A 
ENDBRANCH   7  17
ENDBRANCH   1  10
BRANCH   4  20
ATOM     20  N   UNL     1       4.961   5.551  17.312  0.00  0.00    +0.000 N 
ATOM     21  C   UNL     1       6.218   5.958  16.915  0.00  0.00    +0.000 C 
ATOM     22  O   UNL     1       6.693   7.089  17.024  0.00  0.00    +0.000 OA
ATOM     23  H   UNL     1       4.751   4.561  17.271  0.00  0.00    +0.000 HD
BRANCH  21  24
ATOM     24  C   UNL     1       7.103   4.844  16.398  0.00  0.00    +0.000 C 
BRANCH  24  25
ATOM     25  C   UNL     1       6.312   4.042  15.371  0.00  0.00    +0.000 C 
BRANCH  25  26
ATOM     26  C   UNL     1       6.757   4.412  13.980  0.00  0.00    +0.000 C 
ATOM     27  O   UNL     1       6.373   3.830  12.977  0.00  0.00    +0.000 OA
BRANCH  26  28
ATOM     28  O   UNL     1       7.683   5.396  13.946  0.00  0.00    +0.000 OA
ATOM     29  H   UNL     1       8.048   5.579  13.051  0.00  0.00    +0.000 HD
ENDBRANCH  26  28
ENDBRANCH  25  26
ENDBRANCH  24  25
ENDBRANCH  21  24
ENDBRANCH   4  20
TORSDOF 7
ENDMDL
