MODEL 1
REMARK VINA RESULT:      -8.3      0.000      0.000
REMARK  Name = 
REMARK  4 active torsions:
REMARK  status: ('A' for Active; 'I' for Inactive)
REMARK    1  A    between atoms: C_2  and  C_3
REMARK    2  A    between atoms: C_8  and  C_9
REMARK    3  A    between atoms: C_12  and  C_13
REMARK    4  A    between atoms: C_13  and  N_14
REMARK                            x       y       z     vdW  Elec       q    Type
REMARK                         _______ _______ _______ _____ _____    ______ ____
ROOT
ATOM      1  C   UNL     1       1.043   9.276  20.138  0.00  0.00    +0.000 A 
ATOM      2  C   UNL     1       1.718   8.111  20.534  0.00  0.00    +0.000 A 
ATOM      3  C   UNL     1       2.405   7.305  19.620  0.00  0.00    +0.000 A 
ATOM      4  C   UNL     1       2.492   7.659  18.273  0.00  0.00    +0.000 A 
ATOM      5  C   UNL     1       1.831   8.818  17.853  0.00  0.00    +0.000 A 
ATOM      6  C   UNL     1       1.118   9.605  18.769  0.00  0.00    +0.000 A 
ENDROOT
BRANCH   1  12
ATOM      7  C   UNL     1       0.292  11.561  21.061  0.00  0.00    +0.000 A 
ATOM      8  C   UNL     1      -0.434  12.303  22.014  0.00  0.00    +0.000 A 
ATOM      9  C   UNL     1      -1.130  11.668  23.037  0.00  0.00    +0.000 A 
ATOM     10  C   UNL     1      -1.124  10.284  23.109  0.00  0.00    +0.000 A 
ATOM     11  C   UNL     1      -0.430   9.538  22.149  0.00  0.00    +0.000 A 
ATOM     12  C   UNL     1       0.307  10.145  21.103  0.00  0.00    +0.000 A 
BRANCH   7  14
ATOM     13  N   UNL     1       1.576  12.991  19.312  0.00  0.00    +0.000 NA
ATOM     14  C   UNL     1       1.010  12.332  20.078  0.00  0.00    +0.000 C 
ENDBRANCH   7  14
ENDBRANCH   1  12
BRANCH   4  15
ATOM     15  C   UNL     1       3.334   6.849  17.321  0.00  0.00    +0.000 C 
BRANCH  15  16
ATOM     16  N   UNL     1       4.044   5.747  17.966  0.00  0.00    +0.000 N 
ATOM     17  C   UNL     1       5.290   5.908  18.526  0.00  0.00    +0.000 A 
ATOM     18  C   UNL     1       5.597   4.766  19.214  0.00  0.00    +0.000 A 
ATOM     19  C   UNL     1       4.526   3.843  19.037  0.00  0.00    +0.000 A 
ATOM     20  C   UNL     1       3.568   4.465  18.226  0.00  0.00    +0.000 A 
ATOM     21  C   UNL     1       2.283   3.965  17.773  0.00  0.00    +0.000 C 
ATOM     22  O   UNL     1       1.317   4.676  17.510  0.00  0.00    +0.000 OA
ATOM     23  N   UNL     1       2.131   2.615  17.615  0.00  0.00    +0.000 N 
ATOM     24  C   UNL     1       3.178   1.625  17.676  0.00  0.00    +0.000 C 
ATOM     25  C   UNL     1       3.637   1.399  19.097  0.00  0.00    +0.000 C 
ATOM     26  C   UNL     1       4.477   2.519  19.661  0.00  0.00    +0.000 C 
ATOM     27  O   UNL     1       5.137   2.297  20.680  0.00  0.00    +0.000 OA
ATOM     28  H   UNL     1       1.220   2.352  17.259  0.00  0.00    +0.000 HD
ENDBRANCH  15  16
ENDBRANCH   4  15
TORSDOF 4
ENDMDL
MODEL 2
REMARK VINA RESULT:      -8.2      3.105      8.829
REMARK  Name = 
REMARK  4 active torsions:
REMARK  status: ('A' for Active; 'I' for Inactive)
REMARK    1  A    between atoms: C_2  and  C_3
REMARK    2  A    between atoms: C_8  and  C_9
REMARK    3  A    between atoms: C_12  and  C_13
REMARK    4  A    between atoms: C_13  and  N_14
REMARK                            x       y       z     vdW  Elec       q    Type
REMARK                         _______ _______ _______ _____ _____    ______ ____
ROOT
ATOM      1  C   UNL     1       2.324   5.863  19.128  0.00  0.00    +0.000 A 
ATOM      2  C   UNL     1       2.530   6.875  18.178  0.00  0.00    +0.000 A 
ATOM      3  C   UNL     1       2.189   8.208  18.429  0.00  0.00    +0.000 A 
ATOM      4  C   UNL     1       1.674   8.597  19.666  0.00  0.00    +0.000 A 
ATOM      5  C   UNL     1       1.464   7.609  20.633  0.00  0.00    +0.000 A 
ATOM      6  C   UNL     1       1.779   6.269  20.363  0.00  0.00    +0.000 A 
ENDROOT
BRANCH   1  12
ATOM      7  C   UNL     1       3.995   3.908  18.973  0.00  0.00    +0.000 A 
ATOM      8  C   UNL     1       4.244   2.545  18.717  0.00  0.00    +0.000 A 
ATOM      9  C   UNL     1       3.217   1.690  18.332  0.00  0.00    +0.000 A 
ATOM     10  C   UNL     1       1.927   2.182  18.216  0.00  0.00    +0.000 A 
ATOM     11  C   UNL     1       1.665   3.527  18.498  0.00  0.00    +0.000 A 
ATOM     12  C   UNL     1       2.685   4.437  18.874  0.00  0.00    +0.000 A 
BRANCH   7  14
ATOM     13  N   UNL     1       6.095   5.302  19.602  0.00  0.00    +0.000 NA
ATOM     14  C   UNL     1       5.145   4.703  19.318  0.00  0.00    +0.000 C 
ENDBRANCH   7  14
ENDBRANCH   1  12
BRANCH   4  15
ATOM     15  C   UNL     1       1.423  10.052  19.967  0.00  0.00    +0.000 C 
BRANCH  15  16
ATOM     16  N   UNL     1       0.174  10.557  19.402  0.00  0.00    +0.000 N 
ATOM     17  C   UNL     1      -0.260  10.196  18.148  0.00  0.00    +0.000 A 
ATOM     18  C   UNL     1      -1.535  10.666  17.988  0.00  0.00    +0.000 A 
ATOM     19  C   UNL     1      -1.890  11.386  19.165  0.00  0.00    +0.000 A 
ATOM     20  C   UNL     1      -0.794  11.332  20.035  0.00  0.00    +0.000 A 
ATOM     21  C   UNL     1      -0.653  11.882  21.371  0.00  0.00    +0.000 C 
ATOM     22  O   UNL     1       0.076  11.411  22.240  0.00  0.00    +0.000 OA
ATOM     23  N   UNL     1      -1.367  13.003  21.690  0.00  0.00    +0.000 N 
ATOM     24  C   UNL     1      -2.122  13.824  20.775  0.00  0.00    +0.000 C 
ATOM     25  C   UNL     1      -3.401  13.139  20.352  0.00  0.00    +0.000 C 
ATOM     26  C   UNL     1      -3.202  12.002  19.382  0.00  0.00    +0.000 C 
ATOM     27  O   UNL     1      -4.183  11.589  18.757  0.00  0.00    +0.000 OA
ATOM     28  H   UNL     1      -1.182  13.345  22.625  0.00  0.00    +0.000 HD
ENDBRANCH  15  16
ENDBRANCH   4  15
TORSDOF 4
ENDMDL
MODEL 3
REMARK VINA RESULT:      -8.1      3.288      8.746
REMARK  Name = 
REMARK  4 active torsions:
REMARK  status: ('A' for Active; 'I' for Inactive)
REMARK    1  A    between atoms: C_2  and  C_3
REMARK    2  A    between atoms: C_8  and  C_9
REMARK    3  A    between atoms: C_12  and  C_13
REMARK    4  A    between atoms: C_13  and  N_14
REMARK                            x       y       z     vdW  Elec       q    Type
REMARK                         _______ _______ _______ _____ _____    ______ ____
ROOT
ATOM      1  C   UNL     1       1.946   6.598  19.618  0.00  0.00    +0.000 A 
ATOM      2  C   UNL     1       2.171   7.098  18.325  0.00  0.00    +0.000 A 
ATOM      3  C   UNL     1       1.933   8.436  17.996  0.00  0.00    +0.000 A 
ATOM      4  C   UNL     1       1.508   9.349  18.962  0.00  0.00    +0.000 A 
ATOM      5  C   UNL     1       1.280   8.878  20.259  0.00  0.00    +0.000 A 
ATOM      6  C   UNL     1       1.492   7.528  20.574  0.00  0.00    +0.000 A 
ENDROOT
BRANCH   1  12
ATOM      7  C   UNL     1       3.439   4.509  19.827  0.00  0.00    +0.000 A 
ATOM      8  C   UNL     1       3.587   3.159  20.202  0.00  0.00    +0.000 A 
ATOM      9  C   UNL     1       2.512   2.434  20.706  0.00  0.00    +0.000 A 
ATOM     10  C   UNL     1       1.283   3.055  20.859  0.00  0.00    +0.000 A 
ATOM     11  C   UNL     1       1.134   4.403  20.518  0.00  0.00    +0.000 A 
ATOM     12  C   UNL     1       2.197   5.172  19.982  0.00  0.00    +0.000 A 
BRANCH   7  14
ATOM     13  N   UNL     1       5.544   5.623  18.789  0.00  0.00    +0.000 NA
ATOM     14  C   UNL     1       4.610   5.140  19.274  0.00  0.00    +0.000 C 
ENDBRANCH   7  14
ENDBRANCH   1  12
BRANCH   4  15
ATOM     15  C   UNL     1       1.371  10.811  18.625  0.00  0.00    +0.000 C 
BRANCH  15  16
ATOM     16  N   UNL     1       0.027  11.338  18.855  0.00  0.00    +0.000 N 
ATOM     17  C   UNL     1      -1.065  10.891  18.148  0.00  0.00    +0.000 A 
ATOM     18  C   UNL     1      -2.188  11.422  18.721  0.00  0.00    +0.000 A 
ATOM     19  C   UNL     1      -1.779  12.267  19.793  0.00  0.00    +0.000 A 
ATOM     20  C   UNL     1      -0.380  12.226  19.847  0.00  0.00    +0.000 A 
ATOM     21  C   UNL     1       0.524  12.886  20.772  0.00  0.00    +0.000 C 
ATOM     22  O   UNL     1       1.629  12.453  21.087  0.00  0.00    +0.000 OA
ATOM     23  N   UNL     1       0.133  14.074  21.324  0.00  0.00    +0.000 N 
ATOM     24  C   UNL     1      -1.022  14.853  20.947  0.00  0.00    +0.000 C 
ATOM     25  C   UNL     1      -2.299  14.212  21.440  0.00  0.00    +0.000 C 
ATOM     26  C   UNL     1      -2.709  12.980  20.672  0.00  0.00    +0.000 C 
ATOM     27  O   UNL     1      -3.867  12.573  20.798  0.00  0.00    +0.000 OA
ATOM     28  H   UNL     1       0.835  14.489  21.925  0.00  0.00    +0.000 HD
ENDBRANCH  15  16
ENDBRANCH   4  15
TORSDOF 4
ENDMDL
MODEL 4
REMARK VINA RESULT:      -8.1      3.261      9.090
REMARK  Name = 
REMARK  4 active torsions:
REMARK  status: ('A' for Active; 'I' for Inactive)
REMARK    1  A    between atoms: C_2  and  C_3
REMARK    2  A    between atoms: C_8  and  C_9
REMARK    3  A    between atoms: C_12  and  C_13
REMARK    4  A    between atoms: C_13  and  N_14
REMARK                            x       y       z     vdW  Elec       q    Type
REMARK                         _______ _______ _______ _____ _____    ______ ____
ROOT
ATOM      1  C   UNL     1       2.609   7.357  18.398  0.00  0.00    +0.000 A 
ATOM      2  C   UNL     1       2.260   7.273  19.755  0.00  0.00    +0.000 A 
ATOM      3  C   UNL     1       1.502   8.264  20.388  0.00  0.00    +0.000 A 
ATOM      4  C   UNL     1       1.013   9.359  19.676  0.00  0.00    +0.000 A 
ATOM      5  C   UNL     1       1.341   9.464  18.321  0.00  0.00    +0.000 A 
ATOM      6  C   UNL     1       2.128   8.483  17.700  0.00  0.00    +0.000 A 
ENDROOT
BRANCH   1  12
ATOM      7  C   UNL     1       3.119   4.921  17.730  0.00  0.00    +0.000 A 
ATOM      8  C   UNL     1       3.937   3.998  17.049  0.00  0.00    +0.000 A 
ATOM      9  C   UNL     1       5.071   4.418  16.362  0.00  0.00    +0.000 A 
ATOM     10  C   UNL     1       5.391   5.766  16.334  0.00  0.00    +0.000 A 
ATOM     11  C   UNL     1       4.569   6.693  16.983  0.00  0.00    +0.000 A 
ATOM     12  C   UNL     1       3.416   6.306  17.710  0.00  0.00    +0.000 A 
BRANCH   7  14
ATOM     13  N   UNL     1       1.124   3.872  19.022  0.00  0.00    +0.000 NA
ATOM     14  C   UNL     1       2.000   4.362  18.444  0.00  0.00    +0.000 C 
ENDBRANCH   7  14
ENDBRANCH   1  12
BRANCH   4  15
ATOM     15  C   UNL     1       0.098  10.356  20.339  0.00  0.00    +0.000 C 
BRANCH  15  16
ATOM     16  N   UNL     1      -0.078  11.587  19.570  0.00  0.00    +0.000 N 
ATOM     17  C   UNL     1      -1.156  11.782  18.740  0.00  0.00    +0.000 A 
ATOM     18  C   UNL     1      -1.140  13.086  18.323  0.00  0.00    +0.000 A 
ATOM     19  C   UNL     1       0.016  13.711  18.875  0.00  0.00    +0.000 A 
ATOM     20  C   UNL     1       0.690  12.747  19.634  0.00  0.00    +0.000 A 
ATOM     21  C   UNL     1       1.903  12.879  20.420  0.00  0.00    +0.000 C 
ATOM     22  O   UNL     1       2.163  12.203  21.412  0.00  0.00    +0.000 OA
ATOM     23  N   UNL     1       2.829  13.808  20.033  0.00  0.00    +0.000 N 
ATOM     24  C   UNL     1       2.819  14.561  18.802  0.00  0.00    +0.000 C 
ATOM     25  C   UNL     1       1.760  15.639  18.829  0.00  0.00    +0.000 C 
ATOM     26  C   UNL     1       0.350  15.124  18.683  0.00  0.00    +0.000 C 
ATOM     27  O   UNL     1      -0.538  15.930  18.393  0.00  0.00    +0.000 OA
ATOM     28  H   UNL     1       3.663  13.809  20.608  0.00  0.00    +0.000 HD
ENDBRANCH  15  16
ENDBRANCH   4  15
TORSDOF 4
ENDMDL
MODEL 5
REMARK VINA RESULT:      -8.1      3.144      8.712
REMARK  Name = 
REMARK  4 active torsions:
REMARK  status: ('A' for Active; 'I' for Inactive)
REMARK    1  A    between atoms: C_2  and  C_3
REMARK    2  A    between atoms: C_8  and  C_9
REMARK    3  A    between atoms: C_12  and  C_13
REMARK    4  A    between atoms: C_13  and  N_14
REMARK                            x       y       z     vdW  Elec       q    Type
REMARK                         _______ _______ _______ _____ _____    ______ ____
ROOT
ATOM      1  C   UNL     1       2.232   6.007  19.268  0.00  0.00    +0.000 A 
ATOM      2  C   UNL     1       1.669   6.411  20.489  0.00  0.00    +0.000 A 
ATOM      3  C   UNL     1       1.377   7.750  20.763  0.00  0.00    +0.000 A 
ATOM      4  C   UNL     1       1.587   8.743  19.804  0.00  0.00    +0.000 A 
ATOM      5  C   UNL     1       2.142   8.366  18.577  0.00  0.00    +0.000 A 
ATOM      6  C   UNL     1       2.461   7.025  18.321  0.00  0.00    +0.000 A 
ENDROOT
BRANCH   1  12
ATOM      7  C   UNL     1       3.849   4.021  18.980  0.00  0.00    +0.000 A 
ATOM      8  C   UNL     1       4.054   2.660  18.679  0.00  0.00    +0.000 A 
ATOM      9  C   UNL     1       2.989   1.836  18.331  0.00  0.00    +0.000 A 
ATOM     10  C   UNL     1       1.705   2.358  18.296  0.00  0.00    +0.000 A 
ATOM     11  C   UNL     1       1.489   3.701  18.621  0.00  0.00    +0.000 A 
ATOM     12  C   UNL     1       2.547   4.580  18.962  0.00  0.00    +0.000 A 
BRANCH   7  14
ATOM     13  N   UNL     1       5.971   5.431  19.492  0.00  0.00    +0.000 NA
ATOM     14  C   UNL     1       5.033   4.784  19.280  0.00  0.00    +0.000 C 
ENDBRANCH   7  14
ENDBRANCH   1  12
BRANCH   4  15
ATOM     15  C   UNL     1       1.157  10.163  20.066  0.00  0.00    +0.000 C 
BRANCH  15  16
ATOM     16  N   UNL     1      -0.060  10.544  19.353  0.00  0.00    +0.000 N 
ATOM     17  C   UNL     1      -0.276  10.200  18.039  0.00  0.00    +0.000 A 
ATOM     18  C   UNL     1      -1.569  10.522  17.723  0.00  0.00    +0.000 A 
ATOM     19  C   UNL     1      -2.163  11.132  18.865  0.00  0.00    +0.000 A 
ATOM     20  C   UNL     1      -1.192  11.164  19.874  0.00  0.00    +0.000 A 
ATOM     21  C   UNL     1      -1.298  11.657  21.236  0.00  0.00    +0.000 C 
ATOM     22  O   UNL     1      -0.636  11.232  22.179  0.00  0.00    +0.000 OA
ATOM     23  N   UNL     1      -2.182  12.668  21.493  0.00  0.00    +0.000 N 
ATOM     24  C   UNL     1      -2.907  13.439  20.513  0.00  0.00    +0.000 C 
ATOM     25  C   UNL     1      -4.023  12.630  19.895  0.00  0.00    +0.000 C 
ATOM     26  C   UNL     1      -3.558  11.576  18.921  0.00  0.00    +0.000 C 
ATOM     27  O   UNL     1      -4.389  11.082  18.155  0.00  0.00    +0.000 OA
ATOM     28  H   UNL     1      -2.166  12.980  22.457  0.00  0.00    +0.000 HD
ENDBRANCH  15  16
ENDBRANCH   4  15
TORSDOF 4
ENDMDL
MODEL 6
REMARK VINA RESULT:      -8.0      3.362      8.644
REMARK  Name = 
REMARK  4 active torsions:
REMARK  status: ('A' for Active; 'I' for Inactive)
REMARK    1  A    between atoms: C_2  and  C_3
REMARK    2  A    between atoms: C_8  and  C_9
REMARK    3  A    between atoms: C_12  and  C_13
REMARK    4  A    between atoms: C_13  and  N_14
REMARK                            x       y       z     vdW  Elec       q    Type
REMARK                         _______ _______ _______ _____ _____    ______ ____
ROOT
ATOM      1  C   UNL     1       2.088   6.543  19.583  0.00  0.00    +0.000 A 
ATOM      2  C   UNL     1       1.632   7.532  20.467  0.00  0.00    +0.000 A 
ATOM      3  C   UNL     1       1.502   8.870  20.080  0.00  0.00    +0.000 A 
ATOM      4  C   UNL     1       1.773   9.268  18.771  0.00  0.00    +0.000 A 
ATOM      5  C   UNL     1       2.225   8.301  17.867  0.00  0.00    +0.000 A 
ATOM      6  C   UNL     1       2.382   6.967  18.271  0.00  0.00    +0.000 A 
ENDROOT
BRANCH   1  12
ATOM      7  C   UNL     1       3.432   4.366  19.895  0.00  0.00    +0.000 A 
ATOM      8  C   UNL     1       3.475   3.017  20.299  0.00  0.00    +0.000 A 
ATOM      9  C   UNL     1       2.334   2.373  20.768  0.00  0.00    +0.000 A 
ATOM     10  C   UNL     1       1.142   3.075  20.855  0.00  0.00    +0.000 A 
ATOM     11  C   UNL     1       1.097   4.423  20.484  0.00  0.00    +0.000 A 
ATOM     12  C   UNL     1       2.230   5.111  19.983  0.00  0.00    +0.000 A 
BRANCH   7  14
ATOM     13  N   UNL     1       5.643   5.388  18.991  0.00  0.00    +0.000 NA
ATOM     14  C   UNL     1       4.664   4.909  19.384  0.00  0.00    +0.000 C 
ENDBRANCH   7  14
ENDBRANCH   1  12
BRANCH   4  15
ATOM     15  C   UNL     1       1.515  10.687  18.333  0.00  0.00    +0.000 C 
BRANCH  15  16
ATOM     16  N   UNL     1       0.152  11.141  18.605  0.00  0.00    +0.000 N 
ATOM     17  C   UNL     1      -0.949  10.497  18.092  0.00  0.00    +0.000 A 
ATOM     18  C   UNL     1      -2.065  11.031  18.679  0.00  0.00    +0.000 A 
ATOM     19  C   UNL     1      -1.645  12.077  19.551  0.00  0.00    +0.000 A 
ATOM     20  C   UNL     1      -0.249  12.153  19.473  0.00  0.00    +0.000 A 
ATOM     21  C   UNL     1       0.665  13.030  20.182  0.00  0.00    +0.000 C 
ATOM     22  O   UNL     1       1.828  12.744  20.454  0.00  0.00    +0.000 OA
ATOM     23  N   UNL     1       0.214  14.262  20.567  0.00  0.00    +0.000 N 
ATOM     24  C   UNL     1      -1.035  14.873  20.183  0.00  0.00    +0.000 C 
ATOM     25  C   UNL     1      -2.201  14.232  20.898  0.00  0.00    +0.000 C 
ATOM     26  C   UNL     1      -2.560  12.858  20.388  0.00  0.00    +0.000 C 
ATOM     27  O   UNL     1      -3.661  12.392  20.693  0.00  0.00    +0.000 OA
ATOM     28  H   UNL     1       0.924  14.826  21.019  0.00  0.00    +0.000 HD
ENDBRANCH  15  16
ENDBRANCH   4  15
TORSDOF 4
ENDMDL
MODEL 7
REMARK VINA RESULT:      -8.0      3.457      8.803
REMARK  Name = 
REMARK  4 active torsions:
REMARK  status: ('A' for Active; 'I' for Inactive)
REMARK    1  A    between atoms: C_2  and  C_3
REMARK    2  A    between atoms: C_8  and  C_9
REMARK    3  A    between atoms: C_12  and  C_13
REMARK    4  A    between atoms: C_13  and  N_14
REMARK                            x       y       z     vdW  Elec       q    Type
REMARK                         _______ _______ _______ _____ _____    ______ ____
ROOT
ATOM      1  C   UNL     1       2.173   7.014  18.637  0.00  0.00    +0.000 A 
ATOM      2  C   UNL     1       2.040   8.088  17.743  0.00  0.00    +0.000 A 
ATOM      3  C   UNL     1       1.640   9.360  18.166  0.00  0.00    +0.000 A 
ATOM      4  C   UNL     1       1.407   9.628  19.515  0.00  0.00    +0.000 A 
ATOM      5  C   UNL     1       1.537   8.576  20.428  0.00  0.00    +0.000 A 
ATOM      6  C   UNL     1       1.908   7.296  19.992  0.00  0.00    +0.000 A 
ENDROOT
BRANCH   1  12
ATOM      7  C   UNL     1       3.857   5.350  17.620  0.00  0.00    +0.000 A 
ATOM      8  C   UNL     1       4.177   4.032  17.238  0.00  0.00    +0.000 A 
ATOM      9  C   UNL     1       3.258   3.000  17.391  0.00  0.00    +0.000 A 
ATOM     10  C   UNL     1       2.016   3.268  17.945  0.00  0.00    +0.000 A 
ATOM     11  C   UNL     1       1.701   4.568  18.355  0.00  0.00    +0.000 A 
ATOM     12  C   UNL     1       2.600   5.652  18.199  0.00  0.00    +0.000 A 
BRANCH   7  14
ATOM     13  N   UNL     1       5.712   7.105  17.144  0.00  0.00    +0.000 NA
ATOM     14  C   UNL     1       4.871   6.341  17.369  0.00  0.00    +0.000 C 
ENDBRANCH   7  14
ENDBRANCH   1  12
BRANCH   4  15
ATOM     15  C   UNL     1       1.095  11.029  19.975  0.00  0.00    +0.000 C 
BRANCH  15  16
ATOM     16  N   UNL     1      -0.004  11.095  20.936  0.00  0.00    +0.000 N 
ATOM     17  C   UNL     1       0.032  10.423  22.135  0.00  0.00    +0.000 A 
ATOM     18  C   UNL     1      -1.035  10.837  22.886  0.00  0.00    +0.000 A 
ATOM     19  C   UNL     1      -1.787  11.764  22.108  0.00  0.00    +0.000 A 
ATOM     20  C   UNL     1      -1.142  11.895  20.873  0.00  0.00    +0.000 A 
ATOM     21  C   UNL     1      -1.487  12.734  19.739  0.00  0.00    +0.000 C 
ATOM     22  O   UNL     1      -0.673  13.176  18.932  0.00  0.00    +0.000 OA
ATOM     23  N   UNL     1      -2.802  13.050  19.543  0.00  0.00    +0.000 N 
ATOM     24  C   UNL     1      -3.930  12.486  20.243  0.00  0.00    +0.000 C 
ATOM     25  C   UNL     1      -4.021  13.018  21.654  0.00  0.00    +0.000 C 
ATOM     26  C   UNL     1      -2.983  12.457  22.594  0.00  0.00    +0.000 C 
ATOM     27  O   UNL     1      -3.161  12.594  23.808  0.00  0.00    +0.000 OA
ATOM     28  H   UNL     1      -2.963  13.604  18.710  0.00  0.00    +0.000 HD
ENDBRANCH  15  16
ENDBRANCH   4  15
TORSDOF 4
ENDMDL
MODEL 8
REMARK VINA RESULT:      -8.0      3.432      9.203
REMARK  Name = 
REMARK  4 active torsions:
REMARK  status: ('A' for Active; 'I' for Inactive)
REMARK    1  A    between atoms: C_2  and  C_3
REMARK    2  A    between atoms: C_8  and  C_9
REMARK    3  A    between atoms: C_12  and  C_13
REMARK    4  A    between atoms: C_13  and  N_14
REMARK                            x       y       z     vdW  Elec       q    Type
REMARK                         _______ _______ _______ _____ _____    ______ ____
ROOT
ATOM      1  C   UNL     1       2.504   7.468  18.497  0.00  0.00    +0.000 A 
ATOM      2  C   UNL     1       2.200   7.386  19.865  0.00  0.00    +0.000 A 
ATOM      3  C   UNL     1       1.405   8.341  20.506  0.00  0.00    +0.000 A 
ATOM      4  C   UNL     1       0.834   9.396  19.794  0.00  0.00    +0.000 A 
ATOM      5  C   UNL     1       1.117   9.499  18.429  0.00  0.00    +0.000 A 
ATOM      6  C   UNL     1       1.940   8.554  17.798  0.00  0.00    +0.000 A 
ENDROOT
BRANCH   1  12
ATOM      7  C   UNL     1       3.111   5.058  17.819  0.00  0.00    +0.000 A 
ATOM      8  C   UNL     1       3.962   4.172  17.128  0.00  0.00    +0.000 A 
ATOM      9  C   UNL     1       5.072   4.641  16.434  0.00  0.00    +0.000 A 
ATOM     10  C   UNL     1       5.335   6.002  16.407  0.00  0.00    +0.000 A 
ATOM     11  C   UNL     1       4.479   6.891  17.066  0.00  0.00    +0.000 A 
ATOM     12  C   UNL     1       3.349   6.454  17.800  0.00  0.00    +0.000 A 
BRANCH   7  14
ATOM     13  N   UNL     1       1.170   3.921  19.119  0.00  0.00    +0.000 NA
ATOM     14  C   UNL     1       2.022   4.450  18.539  0.00  0.00    +0.000 C 
ENDBRANCH   7  14
ENDBRANCH   1  12
BRANCH   4  15
ATOM     15  C   UNL     1      -0.117  10.350  20.470  0.00  0.00    +0.000 C 
BRANCH  15  16
ATOM     16  N   UNL     1       0.341  11.738  20.453  0.00  0.00    +0.000 N 
ATOM     17  C   UNL     1       1.659  12.076  20.647  0.00  0.00    +0.000 A 
ATOM     18  C   UNL     1       1.800  13.411  20.379  0.00  0.00    +0.000 A 
ATOM     19  C   UNL     1       0.514  13.932  20.053  0.00  0.00    +0.000 A 
ATOM     20  C   UNL     1      -0.399  12.873  20.131  0.00  0.00    +0.000 A 
ATOM     21  C   UNL     1      -1.826  12.869  19.867  0.00  0.00    +0.000 C 
ATOM     22  O   UNL     1      -2.455  11.889  19.475  0.00  0.00    +0.000 OA
ATOM     23  N   UNL     1      -2.528  14.024  20.075  0.00  0.00    +0.000 N 
ATOM     24  C   UNL     1      -2.034  15.220  20.712  0.00  0.00    +0.000 C 
ATOM     25  C   UNL     1      -1.083  15.970  19.809  0.00  0.00    +0.000 C 
ATOM     26  C   UNL     1       0.272  15.324  19.665  0.00  0.00    +0.000 C 
ATOM     27  O   UNL     1       1.195  16.001  19.205  0.00  0.00    +0.000 OA
ATOM     28  H   UNL     1      -3.522  13.926  19.907  0.00  0.00    +0.000 HD
ENDBRANCH  15  16
ENDBRANCH   4  15
TORSDOF 4
ENDMDL
MODEL 9
REMARK VINA RESULT:      -8.0      3.149      8.704
REMARK  Name = 
REMARK  4 active torsions:
REMARK  status: ('A' for Active; 'I' for Inactive)
REMARK    1  A    between atoms: C_2  and  C_3
REMARK    2  A    between atoms: C_8  and  C_9
REMARK    3  A    between atoms: C_12  and  C_13
REMARK    4  A    between atoms: C_13  and  N_14
REMARK                            x       y       z     vdW  Elec       q    Type
REMARK                         _______ _______ _______ _____ _____    ______ ____
ROOT
ATOM      1  C   UNL     1       2.226   6.106  19.066  0.00  0.00    +0.000 A 
ATOM      2  C   UNL     1       2.301   7.057  18.036  0.00  0.00    +0.000 A 
ATOM      3  C   UNL     1       1.988   8.404  18.247  0.00  0.00    +0.000 A 
ATOM      4  C   UNL     1       1.636   8.871  19.513  0.00  0.00    +0.000 A 
ATOM      5  C   UNL     1       1.559   7.945  20.559  0.00  0.00    +0.000 A 
ATOM      6  C   UNL     1       1.844   6.590  20.334  0.00  0.00    +0.000 A 
ENDROOT
BRANCH   1  12
ATOM      7  C   UNL     1       3.863   4.120  18.944  0.00  0.00    +0.000 A 
ATOM      8  C   UNL     1       4.085   2.745  18.732  0.00  0.00    +0.000 A 
ATOM      9  C   UNL     1       3.036   1.893  18.402  0.00  0.00    +0.000 A 
ATOM     10  C   UNL     1       1.751   2.402  18.299  0.00  0.00    +0.000 A 
ATOM     11  C   UNL     1       1.517   3.760  18.537  0.00  0.00    +0.000 A 
ATOM     12  C   UNL     1       2.559   4.666  18.855  0.00  0.00    +0.000 A 
BRANCH   7  14
ATOM     13  N   UNL     1       5.980   5.517  19.505  0.00  0.00    +0.000 NA
ATOM     14  C   UNL     1       5.033   4.908  19.232  0.00  0.00    +0.000 C 
ENDBRANCH   7  14
ENDBRANCH   1  12
BRANCH   4  15
ATOM     15  C   UNL     1       1.419  10.342  19.754  0.00  0.00    +0.000 C 
BRANCH  15  16
ATOM     16  N   UNL     1       0.336  10.624  20.694  0.00  0.00    +0.000 N 
ATOM     17  C   UNL     1       0.300  10.076  21.955  0.00  0.00    +0.000 A 
ATOM     18  C   UNL     1      -0.713  10.678  22.651  0.00  0.00    +0.000 A 
ATOM     19  C   UNL     1      -1.361  11.599  21.778  0.00  0.00    +0.000 A 
ATOM     20  C   UNL     1      -0.707  11.534  20.541  0.00  0.00    +0.000 A 
ATOM     21  C   UNL     1      -0.961  12.287  19.326  0.00  0.00    +0.000 C 
ATOM     22  O   UNL     1      -0.106  12.554  18.486  0.00  0.00    +0.000 OA
ATOM     23  N   UNL     1      -2.234  12.724  19.088  0.00  0.00    +0.000 N 
ATOM     24  C   UNL     1      -3.416  12.359  19.831  0.00  0.00    +0.000 C 
ATOM     25  C   UNL     1      -3.444  13.037  21.181  0.00  0.00    +0.000 C 
ATOM     26  C   UNL     1      -2.472  12.464  22.182  0.00  0.00    +0.000 C 
ATOM     27  O   UNL     1      -2.631  12.741  23.374  0.00  0.00    +0.000 OA
ATOM     28  H   UNL     1      -2.335  13.206  18.202  0.00  0.00    +0.000 HD
ENDBRANCH  15  16
ENDBRANCH   4  15
TORSDOF 4
ENDMDL
