MODEL 1
REMARK VINA RESULT:      -7.9      0.000      0.000
REMARK  Name = 
REMARK  9 active torsions:
REMARK  status: ('A' for Active; 'I' for Inactive)
REMARK    1  A    between atoms: C_1  and  C_2
REMARK    2  A    between atoms: C_3  and  C_4
REMARK    3  A    between atoms: C_6  and  C_7
REMARK    4  A    between atoms: N_9  and  C_10
REMARK    5  A    between atoms: C_10  and  C_11
REMARK    6  A    between atoms: C_14  and  S_15
REMARK    7  A    between atoms: S_15  and  C_16
REMARK    8  A    between atoms: C_22  and  N_23
REMARK    9  A    between atoms: C_24  and  C_25
REMARK                            x       y       z     vdW  Elec       q    Type
REMARK                         _______ _______ _______ _____ _____    ______ ____
ROOT
ATOM      1  C   UNL     1       0.616   9.893  18.749  0.00  0.00    +0.000 C 
ATOM      2  O   UNL     1       1.101  10.210  19.835  0.00  0.00    +0.000 OA
ATOM      3  N   UNL     1       1.266   9.075  17.852  0.00  0.00    +0.000 N 
ATOM      4  H   UNL     1       0.786   8.841  16.988  0.00  0.00    +0.000 HD
ENDROOT
BRANCH   1   7
ATOM      5  C   UNL     1      -2.590  10.313  16.959  0.00  0.00    +0.000 A 
ATOM      6  N   UNL     1      -1.334   9.869  17.263  0.00  0.00    +0.000 NA
ATOM      7  C   UNL     1      -0.742  10.392  18.365  0.00  0.00    +0.000 A 
ATOM      8  C   UNL     1      -1.338  11.358  19.166  0.00  0.00    +0.000 A 
ATOM      9  C   UNL     1      -2.602  11.842  18.833  0.00  0.00    +0.000 A 
ATOM     10  C   UNL     1      -3.268  11.266  17.737  0.00  0.00    +0.000 A 
BRANCH   5  13
ATOM     11  C   UNL     1      -3.709   9.805  13.272  0.00  0.00    +0.000 C 
ATOM     12  C   UNL     1      -3.056  10.320  14.512  0.00  0.00    +0.000 C 
ATOM     13  C   UNL     1      -3.172   9.743  15.720  0.00  0.00    +0.000 C 
ENDBRANCH   5  13
BRANCH   9  14
ATOM     14  N   UNL     1      -3.236  12.714  19.737  0.00  0.00    +0.000 N 
ATOM     15  H   UNL     1      -2.700  12.932  20.575  0.00  0.00    +0.000 HD
ATOM     16  H   UNL     1      -3.663  13.548  19.337  0.00  0.00    +0.000 HD
ENDBRANCH   9  14
BRANCH  10  17
ATOM     17  C   UNL     1      -4.614  11.669  17.430  0.00  0.00    +0.000 C 
ATOM     18  N   UNL     1      -5.705  11.985  17.207  0.00  0.00    +0.000 NA
ENDBRANCH  10  17
ENDBRANCH   1   7
BRANCH   3  19
ATOM     19  C   UNL     1       2.570   8.521  18.148  0.00  0.00    +0.000 C 
BRANCH  19  20
ATOM     20  C   UNL     1       2.517   7.084  18.616  0.00  0.00    +0.000 A 
ATOM     21  C   UNL     1       2.855   6.031  17.748  0.00  0.00    +0.000 A 
ATOM     22  C   UNL     1       2.829   4.703  18.185  0.00  0.00    +0.000 A 
ATOM     23  C   UNL     1       2.479   4.423  19.508  0.00  0.00    +0.000 A 
ATOM     24  C   UNL     1       2.120   5.454  20.380  0.00  0.00    +0.000 A 
ATOM     25  C   UNL     1       2.143   6.778  19.933  0.00  0.00    +0.000 A 
BRANCH  23  26
ATOM     26  S   UNL     1       2.483   2.742  20.089  0.00  0.00    +0.000 S 
ATOM     27  C   UNL     1       1.541   2.818  21.589  0.00  0.00    +0.000 C 
ATOM     28  O   UNL     1       1.738   1.944  19.132  0.00  0.00    +0.000 OA
ATOM     29  O   UNL     1       3.849   2.397  20.437  0.00  0.00    +0.000 OA
ENDBRANCH  23  26
ENDBRANCH  19  20
ENDBRANCH   3  19
TORSDOF 7
ENDMDL
MODEL 2
REMARK VINA RESULT:      -7.8      0.789      1.299
REMARK  Name = 
REMARK  9 active torsions:
REMARK  status: ('A' for Active; 'I' for Inactive)
REMARK    1  A    between atoms: C_1  and  C_2
REMARK    2  A    between atoms: C_3  and  C_4
REMARK    3  A    between atoms: C_6  and  C_7
REMARK    4  A    between atoms: N_9  and  C_10
REMARK    5  A    between atoms: C_10  and  C_11
REMARK    6  A    between atoms: C_14  and  S_15
REMARK    7  A    between atoms: S_15  and  C_16
REMARK    8  A    between atoms: C_22  and  N_23
REMARK    9  A    between atoms: C_24  and  C_25
REMARK                            x       y       z     vdW  Elec       q    Type
REMARK                         _______ _______ _______ _____ _____    ______ ____
ROOT
ATOM      1  C   UNL     1       0.390   9.966  18.870  0.00  0.00    +0.000 C 
ATOM      2  O   UNL     1       0.783  10.158  20.021  0.00  0.00    +0.000 OA
ATOM      3  N   UNL     1       1.130   9.274  17.935  0.00  0.00    +0.000 N 
ATOM      4  H   UNL     1       0.723   9.137  17.015  0.00  0.00    +0.000 HD
ENDROOT
BRANCH   1   7
ATOM      5  C   UNL     1      -2.760  10.412  16.988  0.00  0.00    +0.000 A 
ATOM      6  N   UNL     1      -1.519   9.952  17.333  0.00  0.00    +0.000 NA
ATOM      7  C   UNL     1      -0.949  10.481  18.442  0.00  0.00    +0.000 A 
ATOM      8  C   UNL     1      -1.549  11.469  19.213  0.00  0.00    +0.000 A 
ATOM      9  C   UNL     1      -2.796  11.970  18.839  0.00  0.00    +0.000 A 
ATOM     10  C   UNL     1      -3.442  11.388  17.734  0.00  0.00    +0.000 A 
BRANCH   5  13
ATOM     11  C   UNL     1      -3.658   9.790  13.259  0.00  0.00    +0.000 C 
ATOM     12  C   UNL     1      -3.037  10.305  14.515  0.00  0.00    +0.000 C 
ATOM     13  C   UNL     1      -3.318   9.835  15.743  0.00  0.00    +0.000 C 
ENDBRANCH   5  13
BRANCH   9  14
ATOM     14  N   UNL     1      -3.439  12.865  19.714  0.00  0.00    +0.000 N 
ATOM     15  H   UNL     1      -4.227  13.369  19.313  0.00  0.00    +0.000 HD
ATOM     16  H   UNL     1      -3.654  12.510  20.644  0.00  0.00    +0.000 HD
ENDBRANCH   9  14
BRANCH  10  17
ATOM     17  C   UNL     1      -4.771  11.809  17.385  0.00  0.00    +0.000 C 
ATOM     18  N   UNL     1      -5.843  12.162  17.126  0.00  0.00    +0.000 NA
ENDBRANCH  10  17
ENDBRANCH   1   7
BRANCH   3  19
ATOM     19  C   UNL     1       2.422   8.714  18.265  0.00  0.00    +0.000 C 
BRANCH  19  20
ATOM     20  C   UNL     1       2.350   7.273  18.721  0.00  0.00    +0.000 A 
ATOM     21  C   UNL     1       2.096   6.955  20.066  0.00  0.00    +0.000 A 
ATOM     22  C   UNL     1       2.007   5.623  20.484  0.00  0.00    +0.000 A 
ATOM     23  C   UNL     1       2.154   4.598  19.547  0.00  0.00    +0.000 A 
ATOM     24  C   UNL     1       2.426   4.894  18.209  0.00  0.00    +0.000 A 
ATOM     25  C   UNL     1       2.520   6.227  17.801  0.00  0.00    +0.000 A 
BRANCH  23  26
ATOM     26  S   UNL     1       2.000   2.902  20.059  0.00  0.00    +0.000 S 
ATOM     27  C   UNL     1       0.903   2.203  18.853  0.00  0.00    +0.000 C 
ATOM     28  O   UNL     1       3.299   2.275  19.899  0.00  0.00    +0.000 OA
ATOM     29  O   UNL     1       1.321   2.885  21.341  0.00  0.00    +0.000 OA
ENDBRANCH  23  26
ENDBRANCH  19  20
ENDBRANCH   3  19
TORSDOF 7
ENDMDL
MODEL 3
REMARK VINA RESULT:      -7.5      1.100      1.766
REMARK  Name = 
REMARK  9 active torsions:
REMARK  status: ('A' for Active; 'I' for Inactive)
REMARK    1  A    between atoms: C_1  and  C_2
REMARK    2  A    between atoms: C_3  and  C_4
REMARK    3  A    between atoms: C_6  and  C_7
REMARK    4  A    between atoms: N_9  and  C_10
REMARK    5  A    between atoms: C_10  and  C_11
REMARK    6  A    between atoms: C_14  and  S_15
REMARK    7  A    between atoms: S_15  and  C_16
REMARK    8  A    between atoms: C_22  and  N_23
REMARK    9  A    between atoms: C_24  and  C_25
REMARK                            x       y       z     vdW  Elec       q    Type
REMARK                         _______ _______ _______ _____ _____    ______ ____
ROOT
ATOM      1  C   UNL     1       0.385   9.992  19.202  0.00  0.00    +0.000 C 
ATOM      2  O   UNL     1       1.425  10.477  18.757  0.00  0.00    +0.000 OA
ATOM      3  N   UNL     1       0.374   8.975  20.131  0.00  0.00    +0.000 N 
ATOM      4  H   UNL     1      -0.526   8.647  20.467  0.00  0.00    +0.000 HD
ENDROOT
BRANCH   1   7
ATOM      5  C   UNL     1      -2.714  10.462  17.244  0.00  0.00    +0.000 A 
ATOM      6  N   UNL     1      -1.486   9.994  17.618  0.00  0.00    +0.000 NA
ATOM      7  C   UNL     1      -0.940  10.517  18.742  0.00  0.00    +0.000 A 
ATOM      8  C   UNL     1      -1.552  11.508  19.500  0.00  0.00    +0.000 A 
ATOM      9  C   UNL     1      -2.786  12.017  19.096  0.00  0.00    +0.000 A 
ATOM     10  C   UNL     1      -3.408  11.441  17.975  0.00  0.00    +0.000 A 
BRANCH   5  13
ATOM     11  C   UNL     1      -3.552   9.870  13.496  0.00  0.00    +0.000 C 
ATOM     12  C   UNL     1      -2.957  10.380  14.766  0.00  0.00    +0.000 C 
ATOM     13  C   UNL     1      -3.246   9.890  15.984  0.00  0.00    +0.000 C 
ENDBRANCH   5  13
BRANCH   9  14
ATOM     14  N   UNL     1      -3.444  12.915  19.957  0.00  0.00    +0.000 N 
ATOM     15  H   UNL     1      -2.887  13.248  20.741  0.00  0.00    +0.000 HD
ATOM     16  H   UNL     1      -3.956  13.674  19.510  0.00  0.00    +0.000 HD
ENDBRANCH   9  14
BRANCH  10  17
ATOM     17  C   UNL     1      -4.726  11.872  17.594  0.00  0.00    +0.000 C 
ATOM     18  N   UNL     1      -5.792  12.195  17.277  0.00  0.00    +0.000 NA
ENDBRANCH  10  17
ENDBRANCH   1   7
BRANCH   3  19
ATOM     19  C   UNL     1       1.605   8.424  20.656  0.00  0.00    +0.000 C 
BRANCH  19  20
ATOM     20  C   UNL     1       2.016   7.133  19.985  0.00  0.00    +0.000 A 
ATOM     21  C   UNL     1       2.675   7.145  18.743  0.00  0.00    +0.000 A 
ATOM     22  C   UNL     1       3.076   5.952  18.131  0.00  0.00    +0.000 A 
ATOM     23  C   UNL     1       2.835   4.737  18.774  0.00  0.00    +0.000 A 
ATOM     24  C   UNL     1       2.165   4.703  19.999  0.00  0.00    +0.000 A 
ATOM     25  C   UNL     1       1.761   5.898  20.600  0.00  0.00    +0.000 A 
BRANCH  23  26
ATOM     26  S   UNL     1       3.379   3.217  18.027  0.00  0.00    +0.000 S 
ATOM     27  C   UNL     1       4.623   3.741  16.877  0.00  0.00    +0.000 C 
ATOM     28  O   UNL     1       4.028   2.428  19.059  0.00  0.00    +0.000 OA
ATOM     29  O   UNL     1       2.269   2.674  17.267  0.00  0.00    +0.000 OA
ENDBRANCH  23  26
ENDBRANCH  19  20
ENDBRANCH   3  19
TORSDOF 7
ENDMDL
MODEL 4
REMARK VINA RESULT:      -7.5      1.123      1.486
REMARK  Name = 
REMARK  9 active torsions:
REMARK  status: ('A' for Active; 'I' for Inactive)
REMARK    1  A    between atoms: C_1  and  C_2
REMARK    2  A    between atoms: C_3  and  C_4
REMARK    3  A    between atoms: C_6  and  C_7
REMARK    4  A    between atoms: N_9  and  C_10
REMARK    5  A    between atoms: C_10  and  C_11
REMARK    6  A    between atoms: C_14  and  S_15
REMARK    7  A    between atoms: S_15  and  C_16
REMARK    8  A    between atoms: C_22  and  N_23
REMARK    9  A    between atoms: C_24  and  C_25
REMARK                            x       y       z     vdW  Elec       q    Type
REMARK                         _______ _______ _______ _____ _____    ______ ____
ROOT
ATOM      1  C   UNL     1       0.428   9.859  18.751  0.00  0.00    +0.000 C 
ATOM      2  O   UNL     1       1.404  10.072  18.031  0.00  0.00    +0.000 OA
ATOM      3  N   UNL     1       0.510   9.140  19.924  0.00  0.00    +0.000 N 
ATOM      4  H   UNL     1      -0.336   9.030  20.474  0.00  0.00    +0.000 HD
ENDROOT
BRANCH   1   7
ATOM      5  C   UNL     1      -2.761  10.392  16.960  0.00  0.00    +0.000 A 
ATOM      6  N   UNL     1      -1.518   9.908  17.262  0.00  0.00    +0.000 NA
ATOM      7  C   UNL     1      -0.914  10.401  18.370  0.00  0.00    +0.000 A 
ATOM      8  C   UNL     1      -1.482  11.377  19.180  0.00  0.00    +0.000 A 
ATOM      9  C   UNL     1      -2.730  11.902  18.850  0.00  0.00    +0.000 A 
ATOM     10  C   UNL     1      -3.411  11.357  17.747  0.00  0.00    +0.000 A 
BRANCH   5  13
ATOM     11  C   UNL     1      -3.644   9.782  13.225  0.00  0.00    +0.000 C 
ATOM     12  C   UNL     1      -2.993  10.251  14.484  0.00  0.00    +0.000 C 
ATOM     13  C   UNL     1      -3.357   9.853  15.715  0.00  0.00    +0.000 C 
ENDBRANCH   5  13
BRANCH   9  14
ATOM     14  N   UNL     1      -3.340  12.783  19.763  0.00  0.00    +0.000 N 
ATOM     15  H   UNL     1      -2.933  13.715  19.800  0.00  0.00    +0.000 HD
ATOM     16  H   UNL     1      -4.357  12.818  19.744  0.00  0.00    +0.000 HD
ENDBRANCH   9  14
BRANCH  10  17
ATOM     17  C   UNL     1      -4.743  11.803  17.443  0.00  0.00    +0.000 C 
ATOM     18  N   UNL     1      -5.817  12.146  17.178  0.00  0.00    +0.000 NA
ENDBRANCH  10  17
ENDBRANCH   1   7
BRANCH   3  19
ATOM     19  C   UNL     1       1.770   8.601  20.389  0.00  0.00    +0.000 C 
BRANCH  19  20
ATOM     20  C   UNL     1       2.035   7.194  19.902  0.00  0.00    +0.000 A 
ATOM     21  C   UNL     1       1.694   6.083  20.692  0.00  0.00    +0.000 A 
ATOM     22  C   UNL     1       1.918   4.780  20.234  0.00  0.00    +0.000 A 
ATOM     23  C   UNL     1       2.470   4.584  18.967  0.00  0.00    +0.000 A 
ATOM     24  C   UNL     1       2.834   5.675  18.175  0.00  0.00    +0.000 A 
ATOM     25  C   UNL     1       2.613   6.974  18.643  0.00  0.00    +0.000 A 
BRANCH  23  26
ATOM     26  S   UNL     1       2.719   2.932  18.355  0.00  0.00    +0.000 S 
ATOM     27  C   UNL     1       1.453   1.993  19.168  0.00  0.00    +0.000 C 
ATOM     28  O   UNL     1       2.426   2.942  16.934  0.00  0.00    +0.000 OA
ATOM     29  O   UNL     1       4.003   2.466  18.845  0.00  0.00    +0.000 OA
ENDBRANCH  23  26
ENDBRANCH  19  20
ENDBRANCH   3  19
TORSDOF 7
ENDMDL
MODEL 5
REMARK VINA RESULT:      -7.4      1.418      3.203
REMARK  Name = 
REMARK  9 active torsions:
REMARK  status: ('A' for Active; 'I' for Inactive)
REMARK    1  A    between atoms: C_1  and  C_2
REMARK    2  A    between atoms: C_3  and  C_4
REMARK    3  A    between atoms: C_6  and  C_7
REMARK    4  A    between atoms: N_9  and  C_10
REMARK    5  A    between atoms: C_10  and  C_11
REMARK    6  A    between atoms: C_14  and  S_15
REMARK    7  A    between atoms: S_15  and  C_16
REMARK    8  A    between atoms: C_22  and  N_23
REMARK    9  A    between atoms: C_24  and  C_25
REMARK                            x       y       z     vdW  Elec       q    Type
REMARK                         _______ _______ _______ _____ _____    ______ ____
ROOT
ATOM      1  C   UNL     1       0.438  10.016  18.711  0.00  0.00    +0.000 C 
ATOM      2  O   UNL     1       0.988  10.425  19.734  0.00  0.00    +0.000 OA
ATOM      3  N   UNL     1       1.051   9.150  17.831  0.00  0.00    +0.000 N 
ATOM      4  H   UNL     1       0.520   8.840  17.023  0.00  0.00    +0.000 HD
ENDROOT
BRANCH   1   7
ATOM      5  C   UNL     1      -2.844  11.704  18.906  0.00  0.00    +0.000 A 
ATOM      6  N   UNL     1      -1.585  11.292  19.245  0.00  0.00    +0.000 NA
ATOM      7  C   UNL     1      -0.957  10.450  18.388  0.00  0.00    +0.000 A 
ATOM      8  C   UNL     1      -1.538   9.979  17.217  0.00  0.00    +0.000 A 
ATOM      9  C   UNL     1      -2.837  10.365  16.891  0.00  0.00    +0.000 A 
ATOM     10  C   UNL     1      -3.484  11.294  17.725  0.00  0.00    +0.000 A 
BRANCH   5  13
ATOM     11  C   UNL     1      -3.770  13.554  22.195  0.00  0.00    +0.000 C 
ATOM     12  C   UNL     1      -3.068  12.737  21.161  0.00  0.00    +0.000 C 
ATOM     13  C   UNL     1      -3.502  12.587  19.898  0.00  0.00    +0.000 C 
ENDBRANCH   5  13
BRANCH   9  14
ATOM     14  N   UNL     1      -3.344   9.986  15.634  0.00  0.00    +0.000 N 
ATOM     15  H   UNL     1      -4.356   9.888  15.589  0.00  0.00    +0.000 HD
ATOM     16  H   UNL     1      -2.979  10.492  14.829  0.00  0.00    +0.000 HD
ENDBRANCH   9  14
BRANCH  10  17
ATOM     17  C   UNL     1      -4.783  11.792  17.360  0.00  0.00    +0.000 C 
ATOM     18  N   UNL     1      -5.835  12.169  17.058  0.00  0.00    +0.000 NA
ENDBRANCH  10  17
ENDBRANCH   1   7
BRANCH   3  19
ATOM     19  C   UNL     1       2.388   8.653  18.074  0.00  0.00    +0.000 C 
BRANCH  19  20
ATOM     20  C   UNL     1       2.409   7.278  18.703  0.00  0.00    +0.000 A 
ATOM     21  C   UNL     1       1.999   7.089  20.034  0.00  0.00    +0.000 A 
ATOM     22  C   UNL     1       1.997   5.814  20.611  0.00  0.00    +0.000 A 
ATOM     23  C   UNL     1       2.390   4.714  19.845  0.00  0.00    +0.000 A 
ATOM     24  C   UNL     1       2.819   4.884  18.527  0.00  0.00    +0.000 A 
ATOM     25  C   UNL     1       2.825   6.162  17.961  0.00  0.00    +0.000 A 
BRANCH  23  26
ATOM     26  S   UNL     1       2.350   3.083  20.553  0.00  0.00    +0.000 S 
ATOM     27  C   UNL     1       3.954   2.427  20.177  0.00  0.00    +0.000 C 
ATOM     28  O   UNL     1       2.253   3.231  21.994  0.00  0.00    +0.000 OA
ATOM     29  O   UNL     1       1.368   2.305  19.820  0.00  0.00    +0.000 OA
ENDBRANCH  23  26
ENDBRANCH  19  20
ENDBRANCH   3  19
TORSDOF 7
ENDMDL
MODEL 6
REMARK VINA RESULT:      -7.3      0.997      1.514
REMARK  Name = 
REMARK  9 active torsions:
REMARK  status: ('A' for Active; 'I' for Inactive)
REMARK    1  A    between atoms: C_1  and  C_2
REMARK    2  A    between atoms: C_3  and  C_4
REMARK    3  A    between atoms: C_6  and  C_7
REMARK    4  A    between atoms: N_9  and  C_10
REMARK    5  A    between atoms: C_10  and  C_11
REMARK    6  A    between atoms: C_14  and  S_15
REMARK    7  A    between atoms: S_15  and  C_16
REMARK    8  A    between atoms: C_22  and  N_23
REMARK    9  A    between atoms: C_24  and  C_25
REMARK                            x       y       z     vdW  Elec       q    Type
REMARK                         _______ _______ _______ _____ _____    ______ ____
ROOT
ATOM      1  C   UNL     1       0.408  10.419  18.703  0.00  0.00    +0.000 C 
ATOM      2  O   UNL     1       1.061  10.808  19.672  0.00  0.00    +0.000 OA
ATOM      3  N   UNL     1       0.908   9.531  17.776  0.00  0.00    +0.000 N 
ATOM      4  H   UNL     1       0.296   9.240  17.019  0.00  0.00    +0.000 HD
ENDROOT
BRANCH   1   7
ATOM      5  C   UNL     1      -2.890  11.085  17.175  0.00  0.00    +0.000 A 
ATOM      6  N   UNL     1      -1.596  10.668  17.314  0.00  0.00    +0.000 NA
ATOM      7  C   UNL     1      -0.994  10.903  18.506  0.00  0.00    +0.000 A 
ATOM      8  C   UNL     1      -1.618  11.559  19.560  0.00  0.00    +0.000 A 
ATOM      9  C   UNL     1      -2.924  12.022  19.405  0.00  0.00    +0.000 A 
ATOM     10  C   UNL     1      -3.596  11.728  18.205  0.00  0.00    +0.000 A 
BRANCH   5  13
ATOM     11  C   UNL     1      -3.477   9.850  13.537  0.00  0.00    +0.000 C 
ATOM     12  C   UNL     1      -2.936  10.034  14.916  0.00  0.00    +0.000 C 
ATOM     13  C   UNL     1      -3.485  10.844  15.839  0.00  0.00    +0.000 C 
ENDBRANCH   5  13
BRANCH   9  14
ATOM     14  N   UNL     1      -3.575  12.555  20.533  0.00  0.00    +0.000 N 
ATOM     15  H   UNL     1      -4.345  13.188  20.327  0.00  0.00    +0.000 HD
ATOM     16  H   UNL     1      -3.818  11.894  21.267  0.00  0.00    +0.000 HD
ENDBRANCH   9  14
BRANCH  10  17
ATOM     17  C   UNL     1      -4.976  12.100  18.055  0.00  0.00    +0.000 C 
ATOM     18  N   UNL     1      -6.089  12.404  17.958  0.00  0.00    +0.000 NA
ENDBRANCH  10  17
ENDBRANCH   1   7
BRANCH   3  19
ATOM     19  C   UNL     1       2.242   8.986  17.900  0.00  0.00    +0.000 C 
BRANCH  19  20
ATOM     20  C   UNL     1       2.270   7.605  18.517  0.00  0.00    +0.000 A 
ATOM     21  C   UNL     1       2.044   7.427  19.892  0.00  0.00    +0.000 A 
ATOM     22  C   UNL     1       2.046   6.148  20.461  0.00  0.00    +0.000 A 
ATOM     23  C   UNL     1       2.258   5.035  19.645  0.00  0.00    +0.000 A 
ATOM     24  C   UNL     1       2.503   5.193  18.279  0.00  0.00    +0.000 A 
ATOM     25  C   UNL     1       2.506   6.475  17.720  0.00  0.00    +0.000 A 
BRANCH  23  26
ATOM     26  S   UNL     1       2.219   3.402  20.347  0.00  0.00    +0.000 S 
ATOM     27  C   UNL     1       3.849   2.776  20.034  0.00  0.00    +0.000 C 
ATOM     28  O   UNL     1       2.063   3.545  21.784  0.00  0.00    +0.000 OA
ATOM     29  O   UNL     1       1.281   2.608  19.575  0.00  0.00    +0.000 OA
ENDBRANCH  23  26
ENDBRANCH  19  20
ENDBRANCH   3  19
TORSDOF 7
ENDMDL
MODEL 7
REMARK VINA RESULT:      -7.3      4.031      8.727
REMARK  Name = 
REMARK  9 active torsions:
REMARK  status: ('A' for Active; 'I' for Inactive)
REMARK    1  A    between atoms: C_1  and  C_2
REMARK    2  A    between atoms: C_3  and  C_4
REMARK    3  A    between atoms: C_6  and  C_7
REMARK    4  A    between atoms: N_9  and  C_10
REMARK    5  A    between atoms: C_10  and  C_11
REMARK    6  A    between atoms: C_14  and  S_15
REMARK    7  A    between atoms: S_15  and  C_16
REMARK    8  A    between atoms: C_22  and  N_23
REMARK    9  A    between atoms: C_24  and  C_25
REMARK                            x       y       z     vdW  Elec       q    Type
REMARK                         _______ _______ _______ _____ _____    ______ ____
ROOT
ATOM      1  C   UNL     1       2.197   8.688  18.212  0.00  0.00    +0.000 C 
ATOM      2  O   UNL     1       2.569   9.205  17.159  0.00  0.00    +0.000 OA
ATOM      3  N   UNL     1       1.439   9.362  19.146  0.00  0.00    +0.000 N 
ATOM      4  H   UNL     1       1.152   8.856  19.978  0.00  0.00    +0.000 HD
ENDROOT
BRANCH   1   7
ATOM      5  C   UNL     1       3.580   5.276  17.894  0.00  0.00    +0.000 A 
ATOM      6  N   UNL     1       3.231   6.559  17.576  0.00  0.00    +0.000 NA
ATOM      7  C   UNL     1       2.556   7.267  18.514  0.00  0.00    +0.000 A 
ATOM      8  C   UNL     1       2.190   6.746  19.749  0.00  0.00    +0.000 A 
ATOM      9  C   UNL     1       2.510   5.424  20.059  0.00  0.00    +0.000 A 
ATOM     10  C   UNL     1       3.272   4.690  19.133  0.00  0.00    +0.000 A 
BRANCH   5  13
ATOM     11  C   UNL     1       5.877   4.362  14.896  0.00  0.00    +0.000 C 
ATOM     12  C   UNL     1       5.229   5.071  16.038  0.00  0.00    +0.000 C 
ATOM     13  C   UNL     1       4.276   4.532  16.818  0.00  0.00    +0.000 C 
ENDBRANCH   5  13
BRANCH   9  14
ATOM     14  N   UNL     1       2.252   4.970  21.365  0.00  0.00    +0.000 N 
ATOM     15  H   UNL     1       1.331   4.560  21.506  0.00  0.00    +0.000 HD
ATOM     16  H   UNL     1       2.983   4.410  21.800  0.00  0.00    +0.000 HD
ENDBRANCH   9  14
BRANCH  10  17
ATOM     17  C   UNL     1       3.706   3.360  19.466  0.00  0.00    +0.000 C 
ATOM     18  N   UNL     1       4.049   2.294  19.759  0.00  0.00    +0.000 NA
ENDBRANCH  10  17
ENDBRANCH   1   7
BRANCH   3  19
ATOM     19  C   UNL     1       1.020  10.729  18.928  0.00  0.00    +0.000 C 
BRANCH  19  20
ATOM     20  C   UNL     1      -0.474  10.874  18.743  0.00  0.00    +0.000 A 
ATOM     21  C   UNL     1      -1.207  11.804  19.501  0.00  0.00    +0.000 A 
ATOM     22  C   UNL     1      -2.585  11.955  19.315  0.00  0.00    +0.000 A 
ATOM     23  C   UNL     1      -3.236  11.183  18.350  0.00  0.00    +0.000 A 
ATOM     24  C   UNL     1      -2.529  10.241  17.601  0.00  0.00    +0.000 A 
ATOM     25  C   UNL     1      -1.154  10.091  17.797  0.00  0.00    +0.000 A 
BRANCH  23  26
ATOM     26  S   UNL     1      -4.980  11.397  18.074  0.00  0.00    +0.000 S 
ATOM     27  C   UNL     1      -5.431  12.666  19.228  0.00  0.00    +0.000 C 
ATOM     28  O   UNL     1      -5.151  11.929  16.734  0.00  0.00    +0.000 OA
ATOM     29  O   UNL     1      -5.647  10.172  18.476  0.00  0.00    +0.000 OA
ENDBRANCH  23  26
ENDBRANCH  19  20
ENDBRANCH   3  19
TORSDOF 7
ENDMDL
MODEL 8
REMARK VINA RESULT:      -7.3      0.959      1.068
REMARK  Name = 
REMARK  9 active torsions:
REMARK  status: ('A' for Active; 'I' for Inactive)
REMARK    1  A    between atoms: C_1  and  C_2
REMARK    2  A    between atoms: C_3  and  C_4
REMARK    3  A    between atoms: C_6  and  C_7
REMARK    4  A    between atoms: N_9  and  C_10
REMARK    5  A    between atoms: C_10  and  C_11
REMARK    6  A    between atoms: C_14  and  S_15
REMARK    7  A    between atoms: S_15  and  C_16
REMARK    8  A    between atoms: C_22  and  N_23
REMARK    9  A    between atoms: C_24  and  C_25
REMARK                            x       y       z     vdW  Elec       q    Type
REMARK                         _______ _______ _______ _____ _____    ______ ____
ROOT
ATOM      1  C   UNL     1      -0.024  10.792  18.830  0.00  0.00    +0.000 C 
ATOM      2  O   UNL     1       0.482  11.173  19.886  0.00  0.00    +0.000 OA
ATOM      3  N   UNL     1       0.664  10.041  17.902  0.00  0.00    +0.000 N 
ATOM      4  H   UNL     1       0.166   9.746  17.067  0.00  0.00    +0.000 HD
ENDROOT
BRANCH   1   7
ATOM      5  C   UNL     1      -3.267  11.050  17.076  0.00  0.00    +0.000 A 
ATOM      6  N   UNL     1      -1.952  10.763  17.317  0.00  0.00    +0.000 NA
ATOM      7  C   UNL     1      -1.448  11.133  18.519  0.00  0.00    +0.000 A 
ATOM      8  C   UNL     1      -2.190  11.800  19.486  0.00  0.00    +0.000 A 
ATOM      9  C   UNL     1      -3.519  12.131  19.225  0.00  0.00    +0.000 A 
ATOM     10  C   UNL     1      -4.088  11.697  18.015  0.00  0.00    +0.000 A 
BRANCH   5  13
ATOM     11  C   UNL     1      -3.423   9.836  13.387  0.00  0.00    +0.000 C 
ATOM     12  C   UNL     1      -2.965  10.147  14.774  0.00  0.00    +0.000 C 
ATOM     13  C   UNL     1      -3.755  10.666  15.730  0.00  0.00    +0.000 C 
ENDBRANCH   5  13
BRANCH   9  14
ATOM     14  N   UNL     1      -4.282  12.680  20.273  0.00  0.00    +0.000 N 
ATOM     15  H   UNL     1      -4.253  13.695  20.343  0.00  0.00    +0.000 HD
ATOM     16  H   UNL     1      -5.231  12.324  20.373  0.00  0.00    +0.000 HD
ENDBRANCH   9  14
BRANCH  10  17
ATOM     17  C   UNL     1      -5.483  11.931  17.761  0.00  0.00    +0.000 C 
ATOM     18  N   UNL     1      -6.601  12.126  17.532  0.00  0.00    +0.000 NA
ENDBRANCH  10  17
ENDBRANCH   1   7
BRANCH   3  19
ATOM     19  C   UNL     1       2.035   9.639  18.128  0.00  0.00    +0.000 C 
BRANCH  19  20
ATOM     20  C   UNL     1       2.174   8.187  18.529  0.00  0.00    +0.000 A 
ATOM     21  C   UNL     1       2.626   7.227  17.608  0.00  0.00    +0.000 A 
ATOM     22  C   UNL     1       2.777   5.887  17.983  0.00  0.00    +0.000 A 
ATOM     23  C   UNL     1       2.491   5.506  19.296  0.00  0.00    +0.000 A 
ATOM     24  C   UNL     1       2.023   6.443  20.221  0.00  0.00    +0.000 A 
ATOM     25  C   UNL     1       1.869   7.778  19.835  0.00  0.00    +0.000 A 
BRANCH  23  26
ATOM     26  S   UNL     1       2.721   3.815  19.798  0.00  0.00    +0.000 S 
ATOM     27  C   UNL     1       2.221   3.815  21.499  0.00  0.00    +0.000 C 
ATOM     28  O   UNL     1       1.775   3.004  19.053  0.00  0.00    +0.000 OA
ATOM     29  O   UNL     1       4.142   3.528  19.750  0.00  0.00    +0.000 OA
ENDBRANCH  23  26
ENDBRANCH  19  20
ENDBRANCH   3  19
TORSDOF 7
ENDMDL
MODEL 9
REMARK VINA RESULT:      -7.3      1.193      2.876
REMARK  Name = 
REMARK  9 active torsions:
REMARK  status: ('A' for Active; 'I' for Inactive)
REMARK    1  A    between atoms: C_1  and  C_2
REMARK    2  A    between atoms: C_3  and  C_4
REMARK    3  A    between atoms: C_6  and  C_7
REMARK    4  A    between atoms: N_9  and  C_10
REMARK    5  A    between atoms: C_10  and  C_11
REMARK    6  A    between atoms: C_14  and  S_15
REMARK    7  A    between atoms: S_15  and  C_16
REMARK    8  A    between atoms: C_22  and  N_23
REMARK    9  A    between atoms: C_24  and  C_25
REMARK                            x       y       z     vdW  Elec       q    Type
REMARK                         _______ _______ _______ _____ _____    ______ ____
ROOT
ATOM      1  C   UNL     1       0.498   9.914  18.817  0.00  0.00    +0.000 C 
ATOM      2  O   UNL     1       0.997  10.244  19.892  0.00  0.00    +0.000 OA
ATOM      3  N   UNL     1       1.152   9.112  17.906  0.00  0.00    +0.000 N 
ATOM      4  H   UNL     1       0.660   8.865  17.053  0.00  0.00    +0.000 HD
ENDROOT
BRANCH   1   7
ATOM      5  C   UNL     1      -2.755  11.664  18.935  0.00  0.00    +0.000 A 
ATOM      6  N   UNL     1      -1.514  11.226  19.305  0.00  0.00    +0.000 NA
ATOM      7  C   UNL     1      -0.880  10.377  18.460  0.00  0.00    +0.000 A 
ATOM      8  C   UNL     1      -1.438   9.923  17.272  0.00  0.00    +0.000 A 
ATOM      9  C   UNL     1      -2.721  10.335  16.913  0.00  0.00    +0.000 A 
ATOM     10  C   UNL     1      -3.372  11.272  17.735  0.00  0.00    +0.000 A 
BRANCH   5  13
ATOM     11  C   UNL     1      -3.420  14.120  21.872  0.00  0.00    +0.000 C 
ATOM     12  C   UNL     1      -2.759  13.287  20.824  0.00  0.00    +0.000 C 
ATOM     13  C   UNL     1      -3.423  12.553  19.914  0.00  0.00    +0.000 C 
ENDBRANCH   5  13
BRANCH   9  14
ATOM     14  N   UNL     1      -3.201   9.972  15.642  0.00  0.00    +0.000 N 
ATOM     15  H   UNL     1      -2.705  10.390  14.857  0.00  0.00    +0.000 HD
ATOM     16  H   UNL     1      -3.374   8.980  15.491  0.00  0.00    +0.000 HD
ENDBRANCH   9  14
BRANCH  10  17
ATOM     17  C   UNL     1      -4.651  11.796  17.340  0.00  0.00    +0.000 C 
ATOM     18  N   UNL     1      -5.688  12.195  17.014  0.00  0.00    +0.000 NA
ENDBRANCH  10  17
ENDBRANCH   1   7
BRANCH   3  19
ATOM     19  C   UNL     1       2.475   8.593  18.176  0.00  0.00    +0.000 C 
BRANCH  19  20
ATOM     20  C   UNL     1       2.470   7.149  18.627  0.00  0.00    +0.000 A 
ATOM     21  C   UNL     1       2.859   6.121  17.752  0.00  0.00    +0.000 A 
ATOM     22  C   UNL     1       2.877   4.787  18.174  0.00  0.00    +0.000 A 
ATOM     23  C   UNL     1       2.522   4.479  19.489  0.00  0.00    +0.000 A 
ATOM     24  C   UNL     1       2.114   5.485  20.368  0.00  0.00    +0.000 A 
ATOM     25  C   UNL     1       2.092   6.814  19.936  0.00  0.00    +0.000 A 
BRANCH  23  26
ATOM     26  S   UNL     1       2.583   2.792  20.051  0.00  0.00    +0.000 S 
ATOM     27  C   UNL     1       1.649   2.823  21.559  0.00  0.00    +0.000 C 
ATOM     28  O   UNL     1       1.855   1.983  19.090  0.00  0.00    +0.000 OA
ATOM     29  O   UNL     1       3.961   2.486  20.386  0.00  0.00    +0.000 OA
ENDBRANCH  23  26
ENDBRANCH  19  20
ENDBRANCH   3  19
TORSDOF 7
ENDMDL
