MODEL 1
REMARK VINA RESULT:      -8.0      0.000      0.000
REMARK  Name = 
REMARK  5 active torsions:
REMARK  status: ('A' for Active; 'I' for Inactive)
REMARK    1  A    between atoms: C_2  and  C_4
REMARK    2  A    between atoms: C_9  and  O_10
REMARK    3  A    between atoms: O_10  and  C_11
REMARK    4  A    between atoms: C_11  and  C_12
REMARK    5  A    between atoms: C_15  and  C_16
REMARK                            x       y       z     vdW  Elec       q    Type
REMARK                         _______ _______ _______ _____ _____    ______ ____
ROOT
ATOM      1  O   UNL     1       4.013   7.142  17.921  0.00  0.00    +0.000 OA
ENDROOT
BRANCH   1   7
ATOM      2  C   UNL     1       6.636   5.199  16.329  0.00  0.00    +0.000 A 
ATOM      3  C   UNL     1       7.350   4.727  17.428  0.00  0.00    +0.000 A 
ATOM      4  F   UNL     1       8.441   3.964  17.278  0.00  0.00    +0.000 F 
ATOM      5  C   UNL     1       6.969   5.066  18.727  0.00  0.00    +0.000 A 
ATOM      6  C   UNL     1       5.857   5.883  18.946  0.00  0.00    +0.000 A 
ATOM      7  C   UNL     1       5.125   6.355  17.857  0.00  0.00    +0.000 A 
ATOM      8  C   UNL     1       5.523   6.005  16.558  0.00  0.00    +0.000 A 
ATOM      9  F   UNL     1       4.799   6.468  15.523  0.00  0.00    +0.000 F 
BRANCH   2  11
ATOM     10  N   UNL     1       6.468   3.738  14.392  0.00  0.00    +0.000 N 
ATOM     11  C   UNL     1       7.054   4.834  14.962  0.00  0.00    +0.000 C 
ATOM     12  O   UNL     1       7.890   5.481  14.343  0.00  0.00    +0.000 OA
ATOM     13  H   UNL     1       6.797   3.453  13.479  0.00  0.00    +0.000 HD
ATOM     14  H   UNL     1       5.858   3.108  14.900  0.00  0.00    +0.000 HD
ENDBRANCH   2  11
ENDBRANCH   1   7
BRANCH   1  15
ATOM     15  C   UNL     1       2.764   6.521  18.220  0.00  0.00    +0.000 C 
BRANCH  15  16
ATOM     16  C   UNL     1       2.078   7.268  19.311  0.00  0.00    +0.000 A 
ATOM     17  N   UNL     1       1.838   6.674  20.488  0.00  0.00    +0.000 NA
ATOM     18  O   UNL     1       1.202   7.625  21.266  0.00  0.00    +0.000 OA
ATOM     19  C   UNL     1       1.041   8.781  20.554  0.00  0.00    +0.000 A 
ATOM     20  C   UNL     1       1.611   8.600  19.318  0.00  0.00    +0.000 A 
ATOM     21 BR   UNL     1       1.769   9.808  17.896  0.00  0.00    +0.000 Br
BRANCH  19  22
ATOM     22  C   UNL     1       0.284   9.821  21.235  0.00  0.00    +0.000 A 
ATOM     23  C   UNL     1       0.267  11.135  20.741  0.00  0.00    +0.000 A 
ATOM     24  C   UNL     1      -0.361  12.159  21.459  0.00  0.00    +0.000 A 
ATOM     25  C   UNL     1      -0.982  11.873  22.673  0.00  0.00    +0.000 A 
ATOM     26 CL   UNL     1      -1.692  13.140  23.592  0.00  0.00    +0.000 Cl
ATOM     27  C   UNL     1      -1.006  10.568  23.159  0.00  0.00    +0.000 A 
ATOM     28  C   UNL     1      -0.377   9.548  22.440  0.00  0.00    +0.000 A 
ENDBRANCH  19  22
ENDBRANCH  15  16
ENDBRANCH   1  15
TORSDOF 5
ENDMDL
MODEL 2
REMARK VINA RESULT:      -7.9      0.642      1.144
REMARK  Name = 
REMARK  5 active torsions:
REMARK  status: ('A' for Active; 'I' for Inactive)
REMARK    1  A    between atoms: C_2  and  C_4
REMARK    2  A    between atoms: C_9  and  O_10
REMARK    3  A    between atoms: O_10  and  C_11
REMARK    4  A    between atoms: C_11  and  C_12
REMARK    5  A    between atoms: C_15  and  C_16
REMARK                            x       y       z     vdW  Elec       q    Type
REMARK                         _______ _______ _______ _____ _____    ______ ____
ROOT
ATOM      1  O   UNL     1       3.923   7.176  17.789  0.00  0.00    +0.000 OA
ENDROOT
BRANCH   1   7
ATOM      2  C   UNL     1       6.559   5.190  16.273  0.00  0.00    +0.000 A 
ATOM      3  C   UNL     1       7.273   4.762  17.389  0.00  0.00    +0.000 A 
ATOM      4  F   UNL     1       8.368   4.000  17.269  0.00  0.00    +0.000 F 
ATOM      5  C   UNL     1       6.888   5.146  18.675  0.00  0.00    +0.000 A 
ATOM      6  C   UNL     1       5.772   5.964  18.862  0.00  0.00    +0.000 A 
ATOM      7  C   UNL     1       5.039   6.393  17.755  0.00  0.00    +0.000 A 
ATOM      8  C   UNL     1       5.441   5.999  16.471  0.00  0.00    +0.000 A 
ATOM      9  F   UNL     1       4.717   6.420  15.418  0.00  0.00    +0.000 F 
BRANCH   2  11
ATOM     10  N   UNL     1       7.954   5.519  14.309  0.00  0.00    +0.000 N 
ATOM     11  C   UNL     1       6.981   4.778  14.920  0.00  0.00    +0.000 C 
ATOM     12  O   UNL     1       6.493   3.808  14.354  0.00  0.00    +0.000 OA
ATOM     13  H   UNL     1       8.202   5.273  13.359  0.00  0.00    +0.000 HD
ATOM     14  H   UNL     1       8.307   6.390  14.686  0.00  0.00    +0.000 HD
ENDBRANCH   2  11
ENDBRANCH   1   7
BRANCH   1  15
ATOM     15  C   UNL     1       2.683   6.567  18.146  0.00  0.00    +0.000 C 
BRANCH  15  16
ATOM     16  C   UNL     1       2.072   7.300  19.289  0.00  0.00    +0.000 A 
ATOM     17  N   UNL     1       1.888   6.682  20.464  0.00  0.00    +0.000 NA
ATOM     18  O   UNL     1       1.312   7.625  21.298  0.00  0.00    +0.000 OA
ATOM     19  C   UNL     1       1.133   8.799  20.622  0.00  0.00    +0.000 A 
ATOM     20  C   UNL     1       1.629   8.638  19.353  0.00  0.00    +0.000 A 
ATOM     21 BR   UNL     1       1.730   9.876  17.951  0.00  0.00    +0.000 Br
BRANCH  19  22
ATOM     22  C   UNL     1       0.433   9.836  21.367  0.00  0.00    +0.000 A 
ATOM     23  C   UNL     1      -0.240   9.531  22.560  0.00  0.00    +0.000 A 
ATOM     24  C   UNL     1      -1.012  10.500  23.212  0.00  0.00    +0.000 A 
ATOM     25  C   UNL     1      -1.110  11.782  22.677  0.00  0.00    +0.000 A 
ATOM     26 CL   UNL     1      -2.112  12.954  23.434  0.00  0.00    +0.000 Cl
ATOM     27  C   UNL     1      -0.418  12.112  21.513  0.00  0.00    +0.000 A 
ATOM     28  C   UNL     1       0.351  11.142  20.864  0.00  0.00    +0.000 A 
ENDBRANCH  19  22
ENDBRANCH  15  16
ENDBRANCH   1  15
TORSDOF 5
ENDMDL
MODEL 3
REMARK VINA RESULT:      -7.9      6.214      7.967
REMARK  Name = 
REMARK  5 active torsions:
REMARK  status: ('A' for Active; 'I' for Inactive)
REMARK    1  A    between atoms: C_2  and  C_4
REMARK    2  A    between atoms: C_9  and  O_10
REMARK    3  A    between atoms: O_10  and  C_11
REMARK    4  A    between atoms: C_11  and  C_12
REMARK    5  A    between atoms: C_15  and  C_16
REMARK                            x       y       z     vdW  Elec       q    Type
REMARK                         _______ _______ _______ _____ _____    ______ ____
ROOT
ATOM      1  O   UNL     1       7.766   9.496  17.581  0.00  0.00    +0.000 OA
ENDROOT
BRANCH   1   7
ATOM      2  C   UNL     1       9.224  12.695  18.495  0.00  0.00    +0.000 A 
ATOM      3  C   UNL     1      10.075  12.335  19.537  0.00  0.00    +0.000 A 
ATOM      4  F   UNL     1      10.808  13.247  20.189  0.00  0.00    +0.000 F 
ATOM      5  C   UNL     1      10.163  11.008  19.961  0.00  0.00    +0.000 A 
ATOM      6  C   UNL     1       9.401  10.016  19.340  0.00  0.00    +0.000 A 
ATOM      7  C   UNL     1       8.551  10.358  18.288  0.00  0.00    +0.000 A 
ATOM      8  C   UNL     1       8.474  11.697  17.876  0.00  0.00    +0.000 A 
ATOM      9  F   UNL     1       7.652  12.003  16.856  0.00  0.00    +0.000 F 
BRANCH   2  11
ATOM     10  N   UNL     1      10.114  14.567  17.224  0.00  0.00    +0.000 N 
ATOM     11  C   UNL     1       9.138  14.103  18.061  0.00  0.00    +0.000 C 
ATOM     12  O   UNL     1       8.230  14.841  18.423  0.00  0.00    +0.000 OA
ATOM     13  H   UNL     1      10.090  15.547  16.973  0.00  0.00    +0.000 HD
ATOM     14  H   UNL     1      10.942  14.033  16.987  0.00  0.00    +0.000 HD
ENDBRANCH   2  11
ENDBRANCH   1   7
BRANCH   1  15
ATOM     15  C   UNL     1       8.031   8.099  17.689  0.00  0.00    +0.000 C 
BRANCH  15  16
ATOM     16  C   UNL     1       6.786   7.327  17.422  0.00  0.00    +0.000 A 
ATOM     17  N   UNL     1       5.968   7.690  16.425  0.00  0.00    +0.000 NA
ATOM     18  O   UNL     1       4.926   6.780  16.445  0.00  0.00    +0.000 OA
ATOM     19  C   UNL     1       5.105   5.885  17.462  0.00  0.00    +0.000 A 
ATOM     20  C   UNL     1       6.290   6.184  18.086  0.00  0.00    +0.000 A 
ATOM     21 BR   UNL     1       7.132   5.316  19.515  0.00  0.00    +0.000 Br
BRANCH  19  22
ATOM     22  C   UNL     1       4.012   4.942  17.650  0.00  0.00    +0.000 A 
ATOM     23  C   UNL     1       2.717   5.396  17.948  0.00  0.00    +0.000 A 
ATOM     24  C   UNL     1       1.694   4.488  18.247  0.00  0.00    +0.000 A 
ATOM     25  C   UNL     1       1.959   3.121  18.244  0.00  0.00    +0.000 A 
ATOM     26 CL   UNL     1       0.725   2.007  18.680  0.00  0.00    +0.000 Cl
ATOM     27  C   UNL     1       3.229   2.652  17.916  0.00  0.00    +0.000 A 
ATOM     28  C   UNL     1       4.249   3.561  17.618  0.00  0.00    +0.000 A 
ENDBRANCH  19  22
ENDBRANCH  15  16
ENDBRANCH   1  15
TORSDOF 5
ENDMDL
MODEL 4
REMARK VINA RESULT:      -7.9      2.427      2.707
REMARK  Name = 
REMARK  5 active torsions:
REMARK  status: ('A' for Active; 'I' for Inactive)
REMARK    1  A    between atoms: C_2  and  C_4
REMARK    2  A    between atoms: C_9  and  O_10
REMARK    3  A    between atoms: O_10  and  C_11
REMARK    4  A    between atoms: C_11  and  C_12
REMARK    5  A    between atoms: C_15  and  C_16
REMARK                            x       y       z     vdW  Elec       q    Type
REMARK                         _______ _______ _______ _____ _____    ______ ____
ROOT
ATOM      1  O   UNL     1       3.173   6.120  17.825  0.00  0.00    +0.000 OA
ENDROOT
BRANCH   1   7
ATOM      2  C   UNL     1       6.342   4.927  16.510  0.00  0.00    +0.000 A 
ATOM      3  C   UNL     1       7.045   4.637  17.677  0.00  0.00    +0.000 A 
ATOM      4  F   UNL     1       8.303   4.178  17.640  0.00  0.00    +0.000 F 
ATOM      5  C   UNL     1       6.469   4.850  18.930  0.00  0.00    +0.000 A 
ATOM      6  C   UNL     1       5.172   5.355  19.034  0.00  0.00    +0.000 A 
ATOM      7  C   UNL     1       4.450   5.642  17.875  0.00  0.00    +0.000 A 
ATOM      8  C   UNL     1       5.045   5.423  16.624  0.00  0.00    +0.000 A 
ATOM      9  F   UNL     1       4.328   5.701  15.520  0.00  0.00    +0.000 F 
BRANCH   2  11
ATOM     10  N   UNL     1       6.523   3.636  14.458  0.00  0.00    +0.000 N 
ATOM     11  C   UNL     1       6.967   4.700  15.193  0.00  0.00    +0.000 C 
ATOM     12  O   UNL     1       7.848   5.430  14.756  0.00  0.00    +0.000 OA
ATOM     13  H   UNL     1       6.991   3.445  13.581  0.00  0.00    +0.000 HD
ATOM     14  H   UNL     1       5.880   2.941  14.819  0.00  0.00    +0.000 HD
ENDBRANCH   2  11
ENDBRANCH   1   7
BRANCH   1  15
ATOM     15  C   UNL     1       2.644   6.752  18.988  0.00  0.00    +0.000 C 
BRANCH  15  16
ATOM     16  C   UNL     1       2.212   8.138  18.658  0.00  0.00    +0.000 A 
ATOM     17  N   UNL     1       2.470   8.655  17.448  0.00  0.00    +0.000 NA
ATOM     18  O   UNL     1       1.943   9.934  17.466  0.00  0.00    +0.000 OA
ATOM     19  C   UNL     1       1.387  10.195  18.687  0.00  0.00    +0.000 A 
ATOM     20  C   UNL     1       1.514   9.067  19.460  0.00  0.00    +0.000 A 
ATOM     21 BR   UNL     1       0.921   8.752  21.208  0.00  0.00    +0.000 Br
BRANCH  19  22
ATOM     22  C   UNL     1       0.896  11.553  18.862  0.00  0.00    +0.000 A 
ATOM     23  C   UNL     1      -0.445  11.871  18.596  0.00  0.00    +0.000 A 
ATOM     24  C   UNL     1      -0.888  13.198  18.648  0.00  0.00    +0.000 A 
ATOM     25  C   UNL     1       0.007  14.215  18.973  0.00  0.00    +0.000 A 
ATOM     26 CL   UNL     1      -0.516  15.852  18.968  0.00  0.00    +0.000 Cl
ATOM     27  C   UNL     1       1.333  13.912  19.275  0.00  0.00    +0.000 A 
ATOM     28  C   UNL     1       1.773  12.587  19.222  0.00  0.00    +0.000 A 
ENDBRANCH  19  22
ENDBRANCH  15  16
ENDBRANCH   1  15
TORSDOF 5
ENDMDL
MODEL 5
REMARK VINA RESULT:      -7.8      2.313      2.857
REMARK  Name = 
REMARK  5 active torsions:
REMARK  status: ('A' for Active; 'I' for Inactive)
REMARK    1  A    between atoms: C_2  and  C_4
REMARK    2  A    between atoms: C_9  and  O_10
REMARK    3  A    between atoms: O_10  and  C_11
REMARK    4  A    between atoms: C_11  and  C_12
REMARK    5  A    between atoms: C_15  and  C_16
REMARK                            x       y       z     vdW  Elec       q    Type
REMARK                         _______ _______ _______ _____ _____    ______ ____
ROOT
ATOM      1  O   UNL     1       4.124   3.787  18.867  0.00  0.00    +0.000 OA
ENDROOT
BRANCH   1   7
ATOM      2  C   UNL     1       6.755   5.841  17.437  0.00  0.00    +0.000 A 
ATOM      3  C   UNL     1       6.882   5.298  16.161  0.00  0.00    +0.000 A 
ATOM      4  F   UNL     1       7.784   5.765  15.288  0.00  0.00    +0.000 F 
ATOM      5  C   UNL     1       6.091   4.219  15.762  0.00  0.00    +0.000 A 
ATOM      6  C   UNL     1       5.154   3.669  16.638  0.00  0.00    +0.000 A 
ATOM      7  C   UNL     1       5.007   4.208  17.917  0.00  0.00    +0.000 A 
ATOM      8  C   UNL     1       5.811   5.292  18.302  0.00  0.00    +0.000 A 
ATOM      9  F   UNL     1       5.649   5.799  19.537  0.00  0.00    +0.000 F 
BRANCH   2  11
ATOM     10  N   UNL     1       8.346   6.839  18.982  0.00  0.00    +0.000 N 
ATOM     11  C   UNL     1       7.601   6.980  17.845  0.00  0.00    +0.000 C 
ATOM     12  O   UNL     1       7.650   8.018  17.197  0.00  0.00    +0.000 OA
ATOM     13  H   UNL     1       8.880   7.640  19.295  0.00  0.00    +0.000 HD
ATOM     14  H   UNL     1       8.256   6.049  19.611  0.00  0.00    +0.000 HD
ENDBRANCH   2  11
ENDBRANCH   1   7
BRANCH   1  15
ATOM     15  C   UNL     1       2.733   4.005  18.638  0.00  0.00    +0.000 C 
BRANCH  15  16
ATOM     16  C   UNL     1       2.253   5.131  19.486  0.00  0.00    +0.000 A 
ATOM     17  N   UNL     1       1.719   4.888  20.691  0.00  0.00    +0.000 NA
ATOM     18  O   UNL     1       1.384   6.126  21.209  0.00  0.00    +0.000 OA
ATOM     19  C   UNL     1       1.696   7.110  20.313  0.00  0.00    +0.000 A 
ATOM     20  C   UNL     1       2.276   6.517  19.219  0.00  0.00    +0.000 A 
ATOM     21 BR   UNL     1       2.968   7.306  17.668  0.00  0.00    +0.000 Br
BRANCH  19  22
ATOM     22  C   UNL     1       1.287   8.451  20.704  0.00  0.00    +0.000 A 
ATOM     23  C   UNL     1       1.073   8.770  22.054  0.00  0.00    +0.000 A 
ATOM     24  C   UNL     1       0.566  10.023  22.419  0.00  0.00    +0.000 A 
ATOM     25  C   UNL     1       0.275  10.965  21.436  0.00  0.00    +0.000 A 
ATOM     26 CL   UNL     1      -0.415  12.477  21.874  0.00  0.00    +0.000 Cl
ATOM     27  C   UNL     1       0.516  10.678  20.094  0.00  0.00    +0.000 A 
ATOM     28  C   UNL     1       1.022   9.427  19.732  0.00  0.00    +0.000 A 
ENDBRANCH  19  22
ENDBRANCH  15  16
ENDBRANCH   1  15
TORSDOF 5
ENDMDL
MODEL 6
REMARK VINA RESULT:      -7.7      2.744      3.271
REMARK  Name = 
REMARK  5 active torsions:
REMARK  status: ('A' for Active; 'I' for Inactive)
REMARK    1  A    between atoms: C_2  and  C_4
REMARK    2  A    between atoms: C_9  and  O_10
REMARK    3  A    between atoms: O_10  and  C_11
REMARK    4  A    between atoms: C_11  and  C_12
REMARK    5  A    between atoms: C_15  and  C_16
REMARK                            x       y       z     vdW  Elec       q    Type
REMARK                         _______ _______ _______ _____ _____    ______ ____
ROOT
ATOM      1  O   UNL     1       3.543   6.087  19.611  0.00  0.00    +0.000 OA
ENDROOT
BRANCH   1   7
ATOM      2  C   UNL     1       5.884   4.734  17.186  0.00  0.00    +0.000 A 
ATOM      3  C   UNL     1       5.088   3.822  16.497  0.00  0.00    +0.000 A 
ATOM      4  F   UNL     1       5.583   3.070  15.505  0.00  0.00    +0.000 F 
ATOM      5  C   UNL     1       3.749   3.635  16.846  0.00  0.00    +0.000 A 
ATOM      6  C   UNL     1       3.184   4.367  17.892  0.00  0.00    +0.000 A 
ATOM      7  C   UNL     1       3.965   5.292  18.585  0.00  0.00    +0.000 A 
ATOM      8  C   UNL     1       5.308   5.466  18.222  0.00  0.00    +0.000 A 
ATOM      9  F   UNL     1       6.041   6.368  18.901  0.00  0.00    +0.000 F 
BRANCH   2  11
ATOM     10  N   UNL     1       7.600   5.958  15.974  0.00  0.00    +0.000 N 
ATOM     11  C   UNL     1       7.298   4.917  16.806  0.00  0.00    +0.000 C 
ATOM     12  O   UNL     1       8.182   4.175  17.218  0.00  0.00    +0.000 OA
ATOM     13  H   UNL     1       8.560   6.048  15.667  0.00  0.00    +0.000 HD
ATOM     14  H   UNL     1       6.896   6.527  15.520  0.00  0.00    +0.000 HD
ENDBRANCH   2  11
ENDBRANCH   1   7
BRANCH   1  15
ATOM     15  C   UNL     1       2.163   6.441  19.666  0.00  0.00    +0.000 C 
BRANCH  15  16
ATOM     16  C   UNL     1       1.967   7.798  19.084  0.00  0.00    +0.000 A 
ATOM     17  N   UNL     1       2.411   8.073  17.850  0.00  0.00    +0.000 NA
ATOM     18  O   UNL     1       2.073   9.394  17.615  0.00  0.00    +0.000 OA
ATOM     19  C   UNL     1       1.446   9.919  18.711  0.00  0.00    +0.000 A 
ATOM     20  C   UNL     1       1.336   8.926  19.652  0.00  0.00    +0.000 A 
ATOM     21 BR   UNL     1       0.540   8.978  21.346  0.00  0.00    +0.000 Br
BRANCH  19  22
ATOM     22  C   UNL     1       1.140  11.339  18.623  0.00  0.00    +0.000 A 
ATOM     23  C   UNL     1       2.157  12.279  18.393  0.00  0.00    +0.000 A 
ATOM     24  C   UNL     1       1.882  13.651  18.427  0.00  0.00    +0.000 A 
ATOM     25  C   UNL     1       0.586  14.091  18.686  0.00  0.00    +0.000 A 
ATOM     26 CL   UNL     1       0.258  15.774  18.799  0.00  0.00    +0.000 Cl
ATOM     27  C   UNL     1      -0.442  13.171  18.879  0.00  0.00    +0.000 A 
ATOM     28  C   UNL     1      -0.165  11.802  18.845  0.00  0.00    +0.000 A 
ENDBRANCH  19  22
ENDBRANCH  15  16
ENDBRANCH   1  15
TORSDOF 5
ENDMDL
MODEL 7
REMARK VINA RESULT:      -7.7      3.488      4.272
REMARK  Name = 
REMARK  5 active torsions:
REMARK  status: ('A' for Active; 'I' for Inactive)
REMARK    1  A    between atoms: C_2  and  C_4
REMARK    2  A    between atoms: C_9  and  O_10
REMARK    3  A    between atoms: O_10  and  C_11
REMARK    4  A    between atoms: C_11  and  C_12
REMARK    5  A    between atoms: C_15  and  C_16
REMARK                            x       y       z     vdW  Elec       q    Type
REMARK                         _______ _______ _______ _____ _____    ______ ____
ROOT
ATOM      1  O   UNL     1       2.358   6.180  18.274  0.00  0.00    +0.000 OA
ENDROOT
BRANCH   1   7
ATOM      2  C   UNL     1       3.316   3.081  19.907  0.00  0.00    +0.000 A 
ATOM      3  C   UNL     1       2.405   3.017  20.959  0.00  0.00    +0.000 A 
ATOM      4  F   UNL     1       2.426   2.011  21.843  0.00  0.00    +0.000 F 
ATOM      5  C   UNL     1       1.458   4.026  21.146  0.00  0.00    +0.000 A 
ATOM      6  C   UNL     1       1.406   5.115  20.275  0.00  0.00    +0.000 A 
ATOM      7  C   UNL     1       2.305   5.189  19.210  0.00  0.00    +0.000 A 
ATOM      8  C   UNL     1       3.250   4.168  19.038  0.00  0.00    +0.000 A 
ATOM      9  F   UNL     1       4.104   4.257  18.002  0.00  0.00    +0.000 F 
BRANCH   2  11
ATOM     10  N   UNL     1       4.205   1.227  18.610  0.00  0.00    +0.000 N 
ATOM     11  C   UNL     1       4.314   2.008  19.726  0.00  0.00    +0.000 C 
ATOM     12  O   UNL     1       5.215   1.816  20.532  0.00  0.00    +0.000 OA
ATOM     13  H   UNL     1       4.852   0.454  18.514  0.00  0.00    +0.000 HD
ATOM     14  H   UNL     1       3.417   1.273  17.974  0.00  0.00    +0.000 HD
ENDBRANCH   2  11
ENDBRANCH   1   7
BRANCH   1  15
ATOM     15  C   UNL     1       2.914   7.437  18.655  0.00  0.00    +0.000 C 
BRANCH  15  16
ATOM     16  C   UNL     1       1.857   8.486  18.629  0.00  0.00    +0.000 A 
ATOM     17  N   UNL     1       1.490   9.044  17.467  0.00  0.00    +0.000 NA
ATOM     18  O   UNL     1       0.504   9.960  17.786  0.00  0.00    +0.000 OA
ATOM     19  C   UNL     1       0.291   9.969  19.137  0.00  0.00    +0.000 A 
ATOM     20  C   UNL     1       1.113   9.025  19.701  0.00  0.00    +0.000 A 
ATOM     21 BR   UNL     1       1.274   8.509  21.493  0.00  0.00    +0.000 Br
BRANCH  19  22
ATOM     22  C   UNL     1      -0.650  10.975  19.605  0.00  0.00    +0.000 A 
ATOM     23  C   UNL     1      -0.491  11.576  20.863  0.00  0.00    +0.000 A 
ATOM     24  C   UNL     1      -1.461  12.453  21.363  0.00  0.00    +0.000 A 
ATOM     25  C   UNL     1      -2.593  12.740  20.604  0.00  0.00    +0.000 A 
ATOM     26 CL   UNL     1      -3.819  13.760  21.243  0.00  0.00    +0.000 Cl
ATOM     27  C   UNL     1      -2.748  12.180  19.337  0.00  0.00    +0.000 A 
ATOM     28  C   UNL     1      -1.779  11.304  18.841  0.00  0.00    +0.000 A 
ENDBRANCH  19  22
ENDBRANCH  15  16
ENDBRANCH   1  15
TORSDOF 5
ENDMDL
MODEL 8
REMARK VINA RESULT:      -7.7      3.462      4.391
REMARK  Name = 
REMARK  5 active torsions:
REMARK  status: ('A' for Active; 'I' for Inactive)
REMARK    1  A    between atoms: C_2  and  C_4
REMARK    2  A    between atoms: C_9  and  O_10
REMARK    3  A    between atoms: O_10  and  C_11
REMARK    4  A    between atoms: C_11  and  C_12
REMARK    5  A    between atoms: C_15  and  C_16
REMARK                            x       y       z     vdW  Elec       q    Type
REMARK                         _______ _______ _______ _____ _____    ______ ____
ROOT
ATOM      1  O   UNL     1       3.711   5.829  17.265  0.00  0.00    +0.000 OA
ENDROOT
BRANCH   1   7
ATOM      2  C   UNL     1       3.256   2.975  19.464  0.00  0.00    +0.000 A 
ATOM      3  C   UNL     1       1.923   2.643  19.232  0.00  0.00    +0.000 A 
ATOM      4  F   UNL     1       1.331   1.630  19.877  0.00  0.00    +0.000 F 
ATOM      5  C   UNL     1       1.148   3.384  18.338  0.00  0.00    +0.000 A 
ATOM      6  C   UNL     1       1.700   4.471  17.657  0.00  0.00    +0.000 A 
ATOM      7  C   UNL     1       3.037   4.810  17.871  0.00  0.00    +0.000 A 
ATOM      8  C   UNL     1       3.801   4.055  18.773  0.00  0.00    +0.000 A 
ATOM      9  F   UNL     1       5.088   4.397  18.960  0.00  0.00    +0.000 F 
BRANCH   2  11
ATOM     10  N   UNL     1       5.128   1.489  19.916  0.00  0.00    +0.000 N 
ATOM     11  C   UNL     1       4.061   2.183  20.415  0.00  0.00    +0.000 C 
ATOM     12  O   UNL     1       3.801   2.143  21.611  0.00  0.00    +0.000 OA
ATOM     13  H   UNL     1       5.644   0.900  20.556  0.00  0.00    +0.000 HD
ATOM     14  H   UNL     1       5.316   1.400  18.924  0.00  0.00    +0.000 HD
ENDBRANCH   2  11
ENDBRANCH   1   7
BRANCH   1  15
ATOM     15  C   UNL     1       4.097   6.948  18.061  0.00  0.00    +0.000 C 
BRANCH  15  16
ATOM     16  C   UNL     1       3.002   7.958  18.077  0.00  0.00    +0.000 A 
ATOM     17  N   UNL     1       2.884   8.840  17.075  0.00  0.00    +0.000 NA
ATOM     18  O   UNL     1       1.784   9.620  17.389  0.00  0.00    +0.000 OA
ATOM     19  C   UNL     1       1.254   9.222  18.585  0.00  0.00    +0.000 A 
ATOM     20  C   UNL     1       1.985   8.151  19.037  0.00  0.00    +0.000 A 
ATOM     21 BR   UNL     1       1.749   7.119  20.581  0.00  0.00    +0.000 Br
BRANCH  19  22
ATOM     22  C   UNL     1       0.156  10.042  19.074  0.00  0.00    +0.000 A 
ATOM     23  C   UNL     1      -0.928  10.359  18.241  0.00  0.00    +0.000 A 
ATOM     24  C   UNL     1      -1.923  11.244  18.671  0.00  0.00    +0.000 A 
ATOM     25  C   UNL     1      -1.843  11.813  19.940  0.00  0.00    +0.000 A 
ATOM     26 CL   UNL     1      -3.025  12.954  20.445  0.00  0.00    +0.000 Cl
ATOM     27  C   UNL     1      -0.794  11.480  20.793  0.00  0.00    +0.000 A 
ATOM     28  C   UNL     1       0.199  10.597  20.361  0.00  0.00    +0.000 A 
ENDBRANCH  19  22
ENDBRANCH  15  16
ENDBRANCH   1  15
TORSDOF 5
ENDMDL
MODEL 9
REMARK VINA RESULT:      -7.7      3.212      4.356
REMARK  Name = 
REMARK  5 active torsions:
REMARK  status: ('A' for Active; 'I' for Inactive)
REMARK    1  A    between atoms: C_2  and  C_4
REMARK    2  A    between atoms: C_9  and  O_10
REMARK    3  A    between atoms: O_10  and  C_11
REMARK    4  A    between atoms: C_11  and  C_12
REMARK    5  A    between atoms: C_15  and  C_16
REMARK                            x       y       z     vdW  Elec       q    Type
REMARK                         _______ _______ _______ _____ _____    ______ ____
ROOT
ATOM      1  O   UNL     1       1.754   7.737  20.337  0.00  0.00    +0.000 OA
ENDROOT
BRANCH   1   7
ATOM      2  C   UNL     1       2.768   4.490  19.065  0.00  0.00    +0.000 A 
ATOM      3  C   UNL     1       3.502   4.841  17.935  0.00  0.00    +0.000 A 
ATOM      4  F   UNL     1       4.052   3.913  17.141  0.00  0.00    +0.000 F 
ATOM      5  C   UNL     1       3.658   6.180  17.571  0.00  0.00    +0.000 A 
ATOM      6  C   UNL     1       3.083   7.192  18.342  0.00  0.00    +0.000 A 
ATOM      7  C   UNL     1       2.353   6.858  19.483  0.00  0.00    +0.000 A 
ATOM      8  C   UNL     1       2.205   5.507  19.833  0.00  0.00    +0.000 A 
ATOM      9  F   UNL     1       1.502   5.209  20.940  0.00  0.00    +0.000 F 
BRANCH   2  11
ATOM     10  N   UNL     1       1.653   2.349  18.773  0.00  0.00    +0.000 N 
ATOM     11  C   UNL     1       2.608   3.070  19.433  0.00  0.00    +0.000 C 
ATOM     12  O   UNL     1       3.303   2.539  20.291  0.00  0.00    +0.000 OA
ATOM     13  H   UNL     1       1.503   1.391  19.066  0.00  0.00    +0.000 HD
ATOM     14  H   UNL     1       0.982   2.766  18.139  0.00  0.00    +0.000 HD
ENDBRANCH   2  11
ENDBRANCH   1   7
BRANCH   1  15
ATOM     15  C   UNL     1       1.243   8.956  19.800  0.00  0.00    +0.000 C 
BRANCH  15  16
ATOM     16  C   UNL     1       0.689   9.797  20.896  0.00  0.00    +0.000 A 
ATOM     17  N   UNL     1       1.052   9.574  22.167  0.00  0.00    +0.000 NA
ATOM     18  O   UNL     1       0.372  10.514  22.922  0.00  0.00    +0.000 OA
ATOM     19  C   UNL     1      -0.413  11.286  22.112  0.00  0.00    +0.000 A 
ATOM     20  C   UNL     1      -0.215  10.879  20.816  0.00  0.00    +0.000 A 
ATOM     21 BR   UNL     1      -0.951  11.555  19.233  0.00  0.00    +0.000 Br
BRANCH  19  22
ATOM     22  C   UNL     1      -1.261  12.242  22.808  0.00  0.00    +0.000 A 
ATOM     23  C   UNL     1      -2.541  11.874  23.253  0.00  0.00    +0.000 A 
ATOM     24  C   UNL     1      -3.402  12.824  23.815  0.00  0.00    +0.000 A 
ATOM     25  C   UNL     1      -2.986  14.147  23.941  0.00  0.00    +0.000 A 
ATOM     26 CL   UNL     1      -4.065  15.330  24.564  0.00  0.00    +0.000 Cl
ATOM     27  C   UNL     1      -1.706  14.521  23.539  0.00  0.00    +0.000 A 
ATOM     28  C   UNL     1      -0.848  13.571  22.978  0.00  0.00    +0.000 A 
ENDBRANCH  19  22
ENDBRANCH  15  16
ENDBRANCH   1  15
TORSDOF 5
ENDMDL
