MODEL 1
REMARK VINA RESULT:      -7.8      0.000      0.000
REMARK  Name = 
REMARK  6 active torsions:
REMARK  status: ('A' for Active; 'I' for Inactive)
REMARK    1  A    between atoms: C_1  and  O_2
REMARK    2  A    between atoms: O_2  and  C_3
REMARK    3  A    between atoms: C_3  and  C_4
REMARK    4  A    between atoms: C_4  and  O_5
REMARK    5  A    between atoms: O_5  and  C_6
REMARK    6  A    between atoms: C_6  and  C_8
REMARK                            x       y       z     vdW  Elec       q    Type
REMARK                         _______ _______ _______ _____ _____    ______ ____
ROOT
ATOM      1  C   UNL     1       5.636   5.174  15.626  0.00  0.00    +0.000 A 
ATOM      2  C   UNL     1       4.794   4.210  16.074  0.00  0.00    +0.000 A 
ATOM      3  C   UNL     1       3.875   4.594  17.139  0.00  0.00    +0.000 A 
ATOM      4  C   UNL     1       2.960   3.886  17.800  0.00  0.00    +0.000 A 
ATOM      5  C   UNL     1       2.464   2.550  17.785  0.00  0.00    +0.000 A 
ATOM      6  C   UNL     1       1.493   2.214  18.652  0.00  0.00    +0.000 A 
ATOM      7  C   UNL     1       0.944   3.178  19.592  0.00  0.00    +0.000 A 
ATOM      8  C   UNL     1       1.368   4.452  19.671  0.00  0.00    +0.000 A 
ATOM      9  C   UNL     1       2.438   4.896  18.757  0.00  0.00    +0.000 A 
ATOM     10  N   UNL     1       2.974   6.077  18.699  0.00  0.00    +0.000 NA
ATOM     11  C   UNL     1       3.892   5.950  17.694  0.00  0.00    +0.000 A 
ATOM     12  C   UNL     1       4.760   6.835  17.184  0.00  0.00    +0.000 A 
ATOM     13  N   UNL     1       5.601   6.475  16.150  0.00  0.00    +0.000 N 
ATOM     14  H   UNL     1       6.331   7.112  15.845  0.00  0.00    +0.000 HD
ENDROOT
BRANCH   1  15
ATOM     15  C   UNL     1       6.711   4.805  14.646  0.00  0.00    +0.000 C 
ATOM     16  O   UNL     1       7.694   5.477  14.380  0.00  0.00    +0.000 OA
BRANCH  15  17
ATOM     17  O   UNL     1       6.310   3.680  13.987  0.00  0.00    +0.000 OA
BRANCH  17  18
ATOM     18  C   UNL     1       6.549   3.717  12.578  0.00  0.00    +0.000 C 
BRANCH  18  19
ATOM     19  C   UNL     1       5.612   2.824  11.781  0.00  0.00    +0.000 C 
BRANCH  19  21
ATOM     20  C   UNL     1       3.512   3.153  10.730  0.00  0.00    +0.000 C 
ATOM     21  O   UNL     1       4.304   3.397  11.880  0.00  0.00    +0.000 OA
ENDBRANCH  19  21
ENDBRANCH  18  19
ENDBRANCH  17  18
ENDBRANCH  15  17
ENDBRANCH   1  15
TORSDOF 5
ENDMDL
MODEL 2
REMARK VINA RESULT:      -7.7      1.468      1.589
REMARK  Name = 
REMARK  6 active torsions:
REMARK  status: ('A' for Active; 'I' for Inactive)
REMARK    1  A    between atoms: C_1  and  O_2
REMARK    2  A    between atoms: O_2  and  C_3
REMARK    3  A    between atoms: C_3  and  C_4
REMARK    4  A    between atoms: C_4  and  O_5
REMARK    5  A    between atoms: O_5  and  C_6
REMARK    6  A    between atoms: C_6  and  C_8
REMARK                            x       y       z     vdW  Elec       q    Type
REMARK                         _______ _______ _______ _____ _____    ______ ____
ROOT
ATOM      1  C   UNL     1       6.491   4.663  15.551  0.00  0.00    +0.000 A 
ATOM      2  C   UNL     1       5.181   4.479  15.848  0.00  0.00    +0.000 A 
ATOM      3  C   UNL     1       4.839   4.411  17.264  0.00  0.00    +0.000 A 
ATOM      4  C   UNL     1       3.668   4.215  17.871  0.00  0.00    +0.000 A 
ATOM      5  C   UNL     1       2.312   4.014  17.481  0.00  0.00    +0.000 A 
ATOM      6  C   UNL     1       1.385   3.846  18.441  0.00  0.00    +0.000 A 
ATOM      7  C   UNL     1       1.736   3.866  19.851  0.00  0.00    +0.000 A 
ATOM      8  C   UNL     1       2.995   4.040  20.294  0.00  0.00    +0.000 A 
ATOM      9  C   UNL     1       4.072   4.225  19.301  0.00  0.00    +0.000 A 
ATOM     10  N   UNL     1       5.335   4.395  19.543  0.00  0.00    +0.000 NA
ATOM     11  C   UNL     1       5.875   4.518  18.294  0.00  0.00    +0.000 A 
ATOM     12  C   UNL     1       7.143   4.701  17.902  0.00  0.00    +0.000 A 
ATOM     13  N   UNL     1       7.455   4.802  16.561  0.00  0.00    +0.000 N 
ATOM     14  H   UNL     1       8.427   4.828  16.267  0.00  0.00    +0.000 HD
ENDROOT
BRANCH   1  15
ATOM     15  C   UNL     1       6.932   4.585  14.119  0.00  0.00    +0.000 C 
ATOM     16  O   UNL     1       7.589   5.428  13.529  0.00  0.00    +0.000 OA
BRANCH  15  17
ATOM     17  O   UNL     1       6.330   3.500  13.553  0.00  0.00    +0.000 OA
BRANCH  17  18
ATOM     18  C   UNL     1       6.385   3.486  12.125  0.00  0.00    +0.000 C 
BRANCH  18  19
ATOM     19  C   UNL     1       5.339   2.585  11.486  0.00  0.00    +0.000 C 
BRANCH  19  21
ATOM     20  C   UNL     1       3.470   3.533  10.380  0.00  0.00    +0.000 C 
ATOM     21  O   UNL     1       4.078   3.245  11.627  0.00  0.00    +0.000 OA
ENDBRANCH  19  21
ENDBRANCH  18  19
ENDBRANCH  17  18
ENDBRANCH  15  17
ENDBRANCH   1  15
TORSDOF 5
ENDMDL
MODEL 3
REMARK VINA RESULT:      -7.5      0.929      1.008
REMARK  Name = 
REMARK  6 active torsions:
REMARK  status: ('A' for Active; 'I' for Inactive)
REMARK    1  A    between atoms: C_1  and  O_2
REMARK    2  A    between atoms: O_2  and  C_3
REMARK    3  A    between atoms: C_3  and  C_4
REMARK    4  A    between atoms: C_4  and  O_5
REMARK    5  A    between atoms: O_5  and  C_6
REMARK    6  A    between atoms: C_6  and  C_8
REMARK                            x       y       z     vdW  Elec       q    Type
REMARK                         _______ _______ _______ _____ _____    ______ ____
ROOT
ATOM      1  C   UNL     1       5.553   5.081  15.886  0.00  0.00    +0.000 A 
ATOM      2  C   UNL     1       4.801   4.087  16.417  0.00  0.00    +0.000 A 
ATOM      3  C   UNL     1       3.820   4.479  17.422  0.00  0.00    +0.000 A 
ATOM      4  C   UNL     1       2.964   3.752  18.138  0.00  0.00    +0.000 A 
ATOM      5  C   UNL     1       2.606   2.377  18.254  0.00  0.00    +0.000 A 
ATOM      6  C   UNL     1       1.651   2.032  19.135  0.00  0.00    +0.000 A 
ATOM      7  C   UNL     1       0.983   3.024  19.962  0.00  0.00    +0.000 A 
ATOM      8  C   UNL     1       1.274   4.337  19.915  0.00  0.00    +0.000 A 
ATOM      9  C   UNL     1       2.318   4.794  18.977  0.00  0.00    +0.000 A 
ATOM     10  N   UNL     1       2.733   6.012  18.806  0.00  0.00    +0.000 NA
ATOM     11  C   UNL     1       3.686   5.879  17.834  0.00  0.00    +0.000 A 
ATOM     12  C   UNL     1       4.473   6.792  17.249  0.00  0.00    +0.000 A 
ATOM     13  N   UNL     1       5.373   6.418  16.271  0.00  0.00    +0.000 N 
ATOM     14  H   UNL     1       6.043   7.093  15.914  0.00  0.00    +0.000 HD
ENDROOT
BRANCH   1  15
ATOM     15  C   UNL     1       6.685   4.728  14.965  0.00  0.00    +0.000 C 
ATOM     16  O   UNL     1       7.660   5.425  14.735  0.00  0.00    +0.000 OA
BRANCH  15  17
ATOM     17  O   UNL     1       6.350   3.581  14.309  0.00  0.00    +0.000 OA
BRANCH  17  18
ATOM     18  C   UNL     1       5.751   3.798  13.030  0.00  0.00    +0.000 C 
BRANCH  18  19
ATOM     19  C   UNL     1       6.440   3.045  11.902  0.00  0.00    +0.000 C 
BRANCH  19  21
ATOM     20  C   UNL     1       6.267   0.843  11.040  0.00  0.00    +0.000 C 
ATOM     21  O   UNL     1       5.566   1.979  11.517  0.00  0.00    +0.000 OA
ENDBRANCH  19  21
ENDBRANCH  18  19
ENDBRANCH  17  18
ENDBRANCH  15  17
ENDBRANCH   1  15
TORSDOF 5
ENDMDL
MODEL 4
REMARK VINA RESULT:      -7.4      1.614      1.862
REMARK  Name = 
REMARK  6 active torsions:
REMARK  status: ('A' for Active; 'I' for Inactive)
REMARK    1  A    between atoms: C_1  and  O_2
REMARK    2  A    between atoms: O_2  and  C_3
REMARK    3  A    between atoms: C_3  and  C_4
REMARK    4  A    between atoms: C_4  and  O_5
REMARK    5  A    between atoms: O_5  and  C_6
REMARK    6  A    between atoms: C_6  and  C_8
REMARK                            x       y       z     vdW  Elec       q    Type
REMARK                         _______ _______ _______ _____ _____    ______ ____
ROOT
ATOM      1  C   UNL     1       6.359   4.669  15.665  0.00  0.00    +0.000 A 
ATOM      2  C   UNL     1       5.059   4.436  15.970  0.00  0.00    +0.000 A 
ATOM      3  C   UNL     1       4.725   4.372  17.388  0.00  0.00    +0.000 A 
ATOM      4  C   UNL     1       3.567   4.137  18.003  0.00  0.00    +0.000 A 
ATOM      5  C   UNL     1       2.218   3.876  17.622  0.00  0.00    +0.000 A 
ATOM      6  C   UNL     1       1.303   3.683  18.588  0.00  0.00    +0.000 A 
ATOM      7  C   UNL     1       1.658   3.735  19.996  0.00  0.00    +0.000 A 
ATOM      8  C   UNL     1       2.911   3.965  20.431  0.00  0.00    +0.000 A 
ATOM      9  C   UNL     1       3.975   4.181  19.431  0.00  0.00    +0.000 A 
ATOM     10  N   UNL     1       5.231   4.405  19.665  0.00  0.00    +0.000 NA
ATOM     11  C   UNL     1       5.761   4.534  18.412  0.00  0.00    +0.000 A 
ATOM     12  C   UNL     1       7.019   4.763  18.012  0.00  0.00    +0.000 A 
ATOM     13  N   UNL     1       7.321   4.860  16.668  0.00  0.00    +0.000 N 
ATOM     14  H   UNL     1       8.290   4.921  16.369  0.00  0.00    +0.000 HD
ENDROOT
BRANCH   1  15
ATOM     15  C   UNL     1       6.797   4.590  14.232  0.00  0.00    +0.000 C 
ATOM     16  O   UNL     1       7.525   5.389  13.665  0.00  0.00    +0.000 OA
BRANCH  15  17
ATOM     17  O   UNL     1       6.108   3.576  13.636  0.00  0.00    +0.000 OA
BRANCH  17  18
ATOM     18  C   UNL     1       6.293   3.501  12.221  0.00  0.00    +0.000 C 
BRANCH  18  19
ATOM     19  C   UNL     1       5.228   2.677  11.513  0.00  0.00    +0.000 C 
BRANCH  19  21
ATOM     20  C   UNL     1       7.243   1.522  11.039  0.00  0.00    +0.000 C 
ATOM     21  O   UNL     1       5.833   1.431  11.157  0.00  0.00    +0.000 OA
ENDBRANCH  19  21
ENDBRANCH  18  19
ENDBRANCH  17  18
ENDBRANCH  15  17
ENDBRANCH   1  15
TORSDOF 5
ENDMDL
MODEL 5
REMARK VINA RESULT:      -7.3      1.082      1.139
REMARK  Name = 
REMARK  6 active torsions:
REMARK  status: ('A' for Active; 'I' for Inactive)
REMARK    1  A    between atoms: C_1  and  O_2
REMARK    2  A    between atoms: O_2  and  C_3
REMARK    3  A    between atoms: C_3  and  C_4
REMARK    4  A    between atoms: C_4  and  O_5
REMARK    5  A    between atoms: O_5  and  C_6
REMARK    6  A    between atoms: C_6  and  C_8
REMARK                            x       y       z     vdW  Elec       q    Type
REMARK                         _______ _______ _______ _____ _____    ______ ____
ROOT
ATOM      1  C   UNL     1       5.528   5.246  16.398  0.00  0.00    +0.000 A 
ATOM      2  C   UNL     1       4.879   4.275  17.086  0.00  0.00    +0.000 A 
ATOM      3  C   UNL     1       3.833   4.716  18.001  0.00  0.00    +0.000 A 
ATOM      4  C   UNL     1       3.045   4.025  18.825  0.00  0.00    +0.000 A 
ATOM      5  C   UNL     1       2.843   2.657  19.172  0.00  0.00    +0.000 A 
ATOM      6  C   UNL     1       1.909   2.359  20.092  0.00  0.00    +0.000 A 
ATOM      7  C   UNL     1       1.111   3.391  20.731  0.00  0.00    +0.000 A 
ATOM      8  C   UNL     1       1.252   4.702  20.463  0.00  0.00    +0.000 A 
ATOM      9  C   UNL     1       2.263   5.112  19.468  0.00  0.00    +0.000 A 
ATOM     10  N   UNL     1       2.542   6.323  19.094  0.00  0.00    +0.000 NA
ATOM     11  C   UNL     1       3.530   6.140  18.167  0.00  0.00    +0.000 A 
ATOM     12  C   UNL     1       4.224   7.026  17.440  0.00  0.00    +0.000 A 
ATOM     13  N   UNL     1       5.188   6.599  16.548  0.00  0.00    +0.000 N 
ATOM     14  H   UNL     1       5.786   7.277  16.085  0.00  0.00    +0.000 HD
ENDROOT
BRANCH   1  15
ATOM     15  C   UNL     1       6.718   4.876  15.561  0.00  0.00    +0.000 C 
ATOM     16  O   UNL     1       7.813   4.544  15.986  0.00  0.00    +0.000 OA
BRANCH  15  17
ATOM     17  O   UNL     1       6.413   5.138  14.258  0.00  0.00    +0.000 OA
BRANCH  17  18
ATOM     18  C   UNL     1       5.756   4.060  13.588  0.00  0.00    +0.000 C 
BRANCH  18  19
ATOM     19  C   UNL     1       6.552   3.497  12.421  0.00  0.00    +0.000 C 
BRANCH  19  21
ATOM     20  C   UNL     1       4.391   3.172  11.503  0.00  0.00    +0.000 C 
ATOM     21  O   UNL     1       5.679   2.618  11.705  0.00  0.00    +0.000 OA
ENDBRANCH  19  21
ENDBRANCH  18  19
ENDBRANCH  17  18
ENDBRANCH  15  17
ENDBRANCH   1  15
TORSDOF 5
ENDMDL
MODEL 6
REMARK VINA RESULT:      -7.2      3.059      6.854
REMARK  Name = 
REMARK  6 active torsions:
REMARK  status: ('A' for Active; 'I' for Inactive)
REMARK    1  A    between atoms: C_1  and  O_2
REMARK    2  A    between atoms: O_2  and  C_3
REMARK    3  A    between atoms: C_3  and  C_4
REMARK    4  A    between atoms: C_4  and  O_5
REMARK    5  A    between atoms: O_5  and  C_6
REMARK    6  A    between atoms: C_6  and  C_8
REMARK                            x       y       z     vdW  Elec       q    Type
REMARK                         _______ _______ _______ _____ _____    ______ ____
ROOT
ATOM      1  C   UNL     1       4.594   3.773  17.687  0.00  0.00    +0.000 A 
ATOM      2  C   UNL     1       4.677   3.487  16.365  0.00  0.00    +0.000 A 
ATOM      3  C   UNL     1       5.747   4.144  15.624  0.00  0.00    +0.000 A 
ATOM      4  C   UNL     1       6.074   4.094  14.332  0.00  0.00    +0.000 A 
ATOM      5  C   UNL     1       5.601   3.432  13.162  0.00  0.00    +0.000 A 
ATOM      6  C   UNL     1       6.231   3.659  11.996  0.00  0.00    +0.000 A 
ATOM      7  C   UNL     1       7.372   4.555  11.908  0.00  0.00    +0.000 A 
ATOM      8  C   UNL     1       7.868   5.222  12.966  0.00  0.00    +0.000 A 
ATOM      9  C   UNL     1       7.226   5.031  14.282  0.00  0.00    +0.000 A 
ATOM     10  N   UNL     1       7.560   5.596  15.402  0.00  0.00    +0.000 NA
ATOM     11  C   UNL     1       6.661   5.076  16.290  0.00  0.00    +0.000 A 
ATOM     12  C   UNL     1       6.501   5.293  17.603  0.00  0.00    +0.000 A 
ATOM     13  N   UNL     1       5.509   4.639  18.306  0.00  0.00    +0.000 N 
ATOM     14  H   UNL     1       5.321   4.892  19.272  0.00  0.00    +0.000 HD
ENDROOT
BRANCH   1  15
ATOM     15  C   UNL     1       3.424   3.256  18.473  0.00  0.00    +0.000 C 
ATOM     16  O   UNL     1       3.292   2.115  18.886  0.00  0.00    +0.000 OA
BRANCH  15  17
ATOM     17  O   UNL     1       2.470   4.229  18.495  0.00  0.00    +0.000 OA
BRANCH  17  18
ATOM     18  C   UNL     1       1.428   3.999  19.446  0.00  0.00    +0.000 C 
BRANCH  18  19
ATOM     19  C   UNL     1       1.591   4.798  20.729  0.00  0.00    +0.000 C 
BRANCH  19  21
ATOM     20  C   UNL     1       1.555   2.646  21.723  0.00  0.00    +0.000 C 
ATOM     21  O   UNL     1       2.175   3.921  21.697  0.00  0.00    +0.000 OA
ENDBRANCH  19  21
ENDBRANCH  18  19
ENDBRANCH  17  18
ENDBRANCH  15  17
ENDBRANCH   1  15
TORSDOF 5
ENDMDL
MODEL 7
REMARK VINA RESULT:      -7.2      2.995      6.530
REMARK  Name = 
REMARK  6 active torsions:
REMARK  status: ('A' for Active; 'I' for Inactive)
REMARK    1  A    between atoms: C_1  and  O_2
REMARK    2  A    between atoms: O_2  and  C_3
REMARK    3  A    between atoms: C_3  and  C_4
REMARK    4  A    between atoms: C_4  and  O_5
REMARK    5  A    between atoms: O_5  and  C_6
REMARK    6  A    between atoms: C_6  and  C_8
REMARK                            x       y       z     vdW  Elec       q    Type
REMARK                         _______ _______ _______ _____ _____    ______ ____
ROOT
ATOM      1  C   UNL     1       4.703   4.919  17.714  0.00  0.00    +0.000 A 
ATOM      2  C   UNL     1       4.590   4.363  16.483  0.00  0.00    +0.000 A 
ATOM      3  C   UNL     1       5.680   4.624  15.550  0.00  0.00    +0.000 A 
ATOM      4  C   UNL     1       5.852   4.251  14.282  0.00  0.00    +0.000 A 
ATOM      5  C   UNL     1       5.141   3.480  13.316  0.00  0.00    +0.000 A 
ATOM      6  C   UNL     1       5.675   3.334  12.090  0.00  0.00    +0.000 A 
ATOM      7  C   UNL     1       6.948   3.939  11.737  0.00  0.00    +0.000 A 
ATOM      8  C   UNL     1       7.670   4.687  12.591  0.00  0.00    +0.000 A 
ATOM      9  C   UNL     1       7.147   4.901  13.955  0.00  0.00    +0.000 A 
ATOM     10  N   UNL     1       7.699   5.596  14.902  0.00  0.00    +0.000 NA
ATOM     11  C   UNL     1       6.818   5.461  15.938  0.00  0.00    +0.000 A 
ATOM     12  C   UNL     1       6.842   5.964  17.179  0.00  0.00    +0.000 A 
ATOM     13  N   UNL     1       5.825   5.683  18.070  0.00  0.00    +0.000 N 
ATOM     14  H   UNL     1       5.792   6.157  18.968  0.00  0.00    +0.000 HD
ENDROOT
BRANCH   1  15
ATOM     15  C   UNL     1       3.548   4.822  18.667  0.00  0.00    +0.000 C 
ATOM     16  O   UNL     1       3.535   5.234  19.816  0.00  0.00    +0.000 OA
BRANCH  15  17
ATOM     17  O   UNL     1       2.587   4.049  18.086  0.00  0.00    +0.000 OA
BRANCH  17  18
ATOM     18  C   UNL     1       2.414   2.773  18.707  0.00  0.00    +0.000 C 
BRANCH  18  19
ATOM     19  C   UNL     1       0.985   2.505  19.151  0.00  0.00    +0.000 C 
BRANCH  19  21
ATOM     20  C   UNL     1       1.418   2.779  21.466  0.00  0.00    +0.000 C 
ATOM     21  O   UNL     1       0.756   3.293  20.323  0.00  0.00    +0.000 OA
ENDBRANCH  19  21
ENDBRANCH  18  19
ENDBRANCH  17  18
ENDBRANCH  15  17
ENDBRANCH   1  15
TORSDOF 5
ENDMDL
MODEL 8
REMARK VINA RESULT:      -7.2      1.631      1.974
REMARK  Name = 
REMARK  6 active torsions:
REMARK  status: ('A' for Active; 'I' for Inactive)
REMARK    1  A    between atoms: C_1  and  O_2
REMARK    2  A    between atoms: O_2  and  C_3
REMARK    3  A    between atoms: C_3  and  C_4
REMARK    4  A    between atoms: C_4  and  O_5
REMARK    5  A    between atoms: O_5  and  C_6
REMARK    6  A    between atoms: C_6  and  C_8
REMARK                            x       y       z     vdW  Elec       q    Type
REMARK                         _______ _______ _______ _____ _____    ______ ____
ROOT
ATOM      1  C   UNL     1       5.879   5.140  17.049  0.00  0.00    +0.000 A 
ATOM      2  C   UNL     1       5.340   4.238  17.905  0.00  0.00    +0.000 A 
ATOM      3  C   UNL     1       4.097   4.627  18.561  0.00  0.00    +0.000 A 
ATOM      4  C   UNL     1       3.345   3.989  19.458  0.00  0.00    +0.000 A 
ATOM      5  C   UNL     1       3.371   2.737  20.138  0.00  0.00    +0.000 A 
ATOM      6  C   UNL     1       2.384   2.457  21.008  0.00  0.00    +0.000 A 
ATOM      7  C   UNL     1       1.305   3.396  21.264  0.00  0.00    +0.000 A 
ATOM      8  C   UNL     1       1.219   4.599  20.668  0.00  0.00    +0.000 A 
ATOM      9  C   UNL     1       2.270   4.984  19.704  0.00  0.00    +0.000 A 
ATOM     10  N   UNL     1       2.354   6.100  19.048  0.00  0.00    +0.000 NA
ATOM     11  C   UNL     1       3.491   5.937  18.306  0.00  0.00    +0.000 A 
ATOM     12  C   UNL     1       4.097   6.760  17.440  0.00  0.00    +0.000 A 
ATOM     13  N   UNL     1       5.254   6.370  16.795  0.00  0.00    +0.000 N 
ATOM     14  H   UNL     1       5.769   7.038  16.229  0.00  0.00    +0.000 HD
ENDROOT
BRANCH   1  15
ATOM     15  C   UNL     1       7.235   4.869  16.464  0.00  0.00    +0.000 C 
ATOM     16  O   UNL     1       8.125   4.227  16.997  0.00  0.00    +0.000 OA
BRANCH  15  17
ATOM     17  O   UNL     1       7.354   5.603  15.322  0.00  0.00    +0.000 OA
BRANCH  17  18
ATOM     18  C   UNL     1       7.267   4.830  14.123  0.00  0.00    +0.000 C 
BRANCH  18  19
ATOM     19  C   UNL     1       6.012   3.974  14.043  0.00  0.00    +0.000 C 
BRANCH  19  21
ATOM     20  C   UNL     1       7.019   3.866  11.900  0.00  0.00    +0.000 C 
ATOM     21  O   UNL     1       6.012   3.353  12.754  0.00  0.00    +0.000 OA
ENDBRANCH  19  21
ENDBRANCH  18  19
ENDBRANCH  17  18
ENDBRANCH  15  17
ENDBRANCH   1  15
TORSDOF 5
ENDMDL
MODEL 9
REMARK VINA RESULT:      -7.2      2.738      6.116
REMARK  Name = 
REMARK  6 active torsions:
REMARK  status: ('A' for Active; 'I' for Inactive)
REMARK    1  A    between atoms: C_1  and  O_2
REMARK    2  A    between atoms: O_2  and  C_3
REMARK    3  A    between atoms: C_3  and  C_4
REMARK    4  A    between atoms: C_4  and  O_5
REMARK    5  A    between atoms: O_5  and  C_6
REMARK    6  A    between atoms: C_6  and  C_8
REMARK                            x       y       z     vdW  Elec       q    Type
REMARK                         _______ _______ _______ _____ _____    ______ ____
ROOT
ATOM      1  C   UNL     1       4.644   5.066  17.755  0.00  0.00    +0.000 A 
ATOM      2  C   UNL     1       4.533   4.485  16.535  0.00  0.00    +0.000 A 
ATOM      3  C   UNL     1       5.639   4.702  15.609  0.00  0.00    +0.000 A 
ATOM      4  C   UNL     1       5.818   4.298  14.352  0.00  0.00    +0.000 A 
ATOM      5  C   UNL     1       5.102   3.521  13.394  0.00  0.00    +0.000 A 
ATOM      6  C   UNL     1       5.647   3.337  12.179  0.00  0.00    +0.000 A 
ATOM      7  C   UNL     1       6.937   3.907  11.828  0.00  0.00    +0.000 A 
ATOM      8  C   UNL     1       7.664   4.659  12.674  0.00  0.00    +0.000 A 
ATOM      9  C   UNL     1       7.130   4.913  14.027  0.00  0.00    +0.000 A 
ATOM     10  N   UNL     1       7.685   5.618  14.964  0.00  0.00    +0.000 NA
ATOM     11  C   UNL     1       6.790   5.524  15.993  0.00  0.00    +0.000 A 
ATOM     12  C   UNL     1       6.810   6.054  17.223  0.00  0.00    +0.000 A 
ATOM     13  N   UNL     1       5.777   5.814  18.107  0.00  0.00    +0.000 N 
ATOM     14  H   UNL     1       5.743   6.308  18.994  0.00  0.00    +0.000 HD
ENDROOT
BRANCH   1  15
ATOM     15  C   UNL     1       3.475   5.014  18.695  0.00  0.00    +0.000 C 
ATOM     16  O   UNL     1       3.520   5.214  19.898  0.00  0.00    +0.000 OA
BRANCH  15  17
ATOM     17  O   UNL     1       2.400   4.540  18.004  0.00  0.00    +0.000 OA
BRANCH  17  18
ATOM     18  C   UNL     1       1.404   3.929  18.827  0.00  0.00    +0.000 C 
BRANCH  18  19
ATOM     19  C   UNL     1       1.371   2.412  18.713  0.00  0.00    +0.000 C 
BRANCH  19  21
ATOM     20  C   UNL     1       3.493   1.386  18.460  0.00  0.00    +0.000 C 
ATOM     21  O   UNL     1       2.415   2.038  17.810  0.00  0.00    +0.000 OA
ENDBRANCH  19  21
ENDBRANCH  18  19
ENDBRANCH  17  18
ENDBRANCH  15  17
ENDBRANCH   1  15
TORSDOF 5
ENDMDL
