MODEL 1
REMARK VINA RESULT:      -7.1      0.000      0.000
REMARK  Name = 
REMARK  8 active torsions:
REMARK  status: ('A' for Active; 'I' for Inactive)
REMARK    1  A    between atoms: C_1  and  O_2
REMARK    2  A    between atoms: O_2  and  C_3
REMARK    3  A    between atoms: C_3  and  C_4
REMARK    4  A    between atoms: C_4  and  C_5
REMARK    5  A    between atoms: C_4  and  N_6
REMARK    6  A    between atoms: N_6  and  C_7
REMARK    7  A    between atoms: C_12  and  C_13
REMARK    8  A    between atoms: C_13  and  N_14
REMARK                            x       y       z     vdW  Elec       q    Type
REMARK                         _______ _______ _______ _____ _____    ______ ____
ROOT
ATOM      1  C   UNL     1       2.466   6.073  19.846  0.00  0.00    +0.000 A 
ATOM      2  C   UNL     1       1.782   7.073  20.560  0.00  0.00    +0.000 A 
ATOM      3  C   UNL     1       1.507   8.342  20.022  0.00  0.00    +0.000 A 
ATOM      4  C   UNL     1       1.886   8.649  18.729  0.00  0.00    +0.000 A 
ATOM      5  C   UNL     1       2.561   7.691  17.989  0.00  0.00    +0.000 A 
ATOM      6  C   UNL     1       2.866   6.414  18.523  0.00  0.00    +0.000 A 
ENDROOT
BRANCH   1   7
ATOM      7  N   UNL     1       2.561   4.757  20.314  0.00  0.00    +0.000 N 
ATOM      8  H   UNL     1       3.063   4.741  21.197  0.00  0.00    +0.000 HD
BRANCH   7   9
ATOM      9  C   UNL     1       1.499   3.722  20.427  0.00  0.00    +0.000 C 
ATOM     10  C   UNL     1       1.526   2.797  21.637  0.00  0.00    +0.000 C 
BRANCH   9  11
ATOM     11  C   UNL     1       1.229   3.012  19.079  0.00  0.00    +0.000 C 
BRANCH  11  13
ATOM     12  C   UNL     1       3.074   1.916  18.048  0.00  0.00    +0.000 C 
ATOM     13  O   UNL     1       1.970   1.804  18.929  0.00  0.00    +0.000 OA
ENDBRANCH  11  13
ENDBRANCH   9  11
ENDBRANCH   7   9
ENDBRANCH   1   7
BRANCH   6  14
ATOM     14  C   UNL     1       3.651   5.499  17.597  0.00  0.00    +0.000 C 
BRANCH  14  15
ATOM     15  N   UNL     1       5.092   5.691  17.691  0.00  0.00    +0.000 N 
ATOM     16  C   UNL     1       5.872   4.989  18.565  0.00  0.00    +0.000 C 
ATOM     17  O   UNL     1       5.490   4.184  19.398  0.00  0.00    +0.000 OA
ATOM     18  C   UNL     1       7.318   5.270  18.272  0.00  0.00    +0.000 C 
ATOM     19  C   UNL     1       7.278   6.340  17.203  0.00  0.00    +0.000 C 
ATOM     20  C   UNL     1       5.842   6.360  16.770  0.00  0.00    +0.000 C 
ATOM     21  O   UNL     1       5.459   6.880  15.732  0.00  0.00    +0.000 OA
ENDBRANCH  14  15
ENDBRANCH   6  14
TORSDOF 6
ENDMDL
MODEL 2
REMARK VINA RESULT:      -6.8      1.052      1.267
REMARK  Name = 
REMARK  8 active torsions:
REMARK  status: ('A' for Active; 'I' for Inactive)
REMARK    1  A    between atoms: C_1  and  O_2
REMARK    2  A    between atoms: O_2  and  C_3
REMARK    3  A    between atoms: C_3  and  C_4
REMARK    4  A    between atoms: C_4  and  C_5
REMARK    5  A    between atoms: C_4  and  N_6
REMARK    6  A    between atoms: N_6  and  C_7
REMARK    7  A    between atoms: C_12  and  C_13
REMARK    8  A    between atoms: C_13  and  N_14
REMARK                            x       y       z     vdW  Elec       q    Type
REMARK                         _______ _______ _______ _____ _____    ______ ____
ROOT
ATOM      1  C   UNL     1       2.597   6.543  19.813  0.00  0.00    +0.000 A 
ATOM      2  C   UNL     1       1.770   7.587  20.264  0.00  0.00    +0.000 A 
ATOM      3  C   UNL     1       1.402   8.673  19.451  0.00  0.00    +0.000 A 
ATOM      4  C   UNL     1       1.830   8.740  18.139  0.00  0.00    +0.000 A 
ATOM      5  C   UNL     1       2.646   7.730  17.654  0.00  0.00    +0.000 A 
ATOM      6  C   UNL     1       3.045   6.639  18.465  0.00  0.00    +0.000 A 
ENDROOT
BRANCH   1   7
ATOM      7  N   UNL     1       2.796   5.375  20.559  0.00  0.00    +0.000 N 
ATOM      8  H   UNL     1       2.592   5.554  21.538  0.00  0.00    +0.000 HD
BRANCH   7   9
ATOM      9  C   UNL     1       2.318   3.994  20.285  0.00  0.00    +0.000 C 
ATOM     10  C   UNL     1       0.904   3.819  19.743  0.00  0.00    +0.000 C 
BRANCH   9  11
ATOM     11  C   UNL     1       2.701   3.008  21.414  0.00  0.00    +0.000 C 
BRANCH  11  13
ATOM     12  C   UNL     1       4.164   2.000  19.829  0.00  0.00    +0.000 C 
ATOM     13  O   UNL     1       3.946   2.354  21.183  0.00  0.00    +0.000 OA
ENDBRANCH  11  13
ENDBRANCH   9  11
ENDBRANCH   7   9
ENDBRANCH   1   7
BRANCH   6  14
ATOM     14  C   UNL     1       3.978   5.644  17.794  0.00  0.00    +0.000 C 
BRANCH  14  15
ATOM     15  N   UNL     1       5.383   6.014  17.902  0.00  0.00    +0.000 N 
ATOM     16  C   UNL     1       6.190   5.556  18.904  0.00  0.00    +0.000 C 
ATOM     17  O   UNL     1       5.856   4.854  19.843  0.00  0.00    +0.000 OA
ATOM     18  C   UNL     1       7.609   5.954  18.615  0.00  0.00    +0.000 C 
ATOM     19  C   UNL     1       7.507   6.829  17.385  0.00  0.00    +0.000 C 
ATOM     20  C   UNL     1       6.100   6.613  16.909  0.00  0.00    +0.000 C 
ATOM     21  O   UNL     1       5.716   6.913  15.788  0.00  0.00    +0.000 OA
ENDBRANCH  14  15
ENDBRANCH   6  14
TORSDOF 6
ENDMDL
MODEL 3
REMARK VINA RESULT:      -6.6      1.797      5.220
REMARK  Name = 
REMARK  8 active torsions:
REMARK  status: ('A' for Active; 'I' for Inactive)
REMARK    1  A    between atoms: C_1  and  O_2
REMARK    2  A    between atoms: O_2  and  C_3
REMARK    3  A    between atoms: C_3  and  C_4
REMARK    4  A    between atoms: C_4  and  C_5
REMARK    5  A    between atoms: C_4  and  N_6
REMARK    6  A    between atoms: N_6  and  C_7
REMARK    7  A    between atoms: C_12  and  C_13
REMARK    8  A    between atoms: C_13  and  N_14
REMARK                            x       y       z     vdW  Elec       q    Type
REMARK                         _______ _______ _______ _____ _____    ______ ____
ROOT
ATOM      1  C   UNL     1       4.220   5.553  17.229  0.00  0.00    +0.000 A 
ATOM      2  C   UNL     1       4.438   6.939  17.127  0.00  0.00    +0.000 A 
ATOM      3  C   UNL     1       3.500   7.892  17.560  0.00  0.00    +0.000 A 
ATOM      4  C   UNL     1       2.313   7.490  18.140  0.00  0.00    +0.000 A 
ATOM      5  C   UNL     1       2.058   6.133  18.261  0.00  0.00    +0.000 A 
ATOM      6  C   UNL     1       2.982   5.158  17.810  0.00  0.00    +0.000 A 
ENDROOT
BRANCH   1   7
ATOM      7  N   UNL     1       5.232   4.619  16.979  0.00  0.00    +0.000 N 
ATOM      8  H   UNL     1       4.837   3.793  16.539  0.00  0.00    +0.000 HD
BRANCH   7   9
ATOM      9  C   UNL     1       6.563   4.825  16.347  0.00  0.00    +0.000 C 
ATOM     10  C   UNL     1       6.752   4.357  14.908  0.00  0.00    +0.000 C 
BRANCH   9  11
ATOM     11  C   UNL     1       7.726   4.463  17.300  0.00  0.00    +0.000 C 
BRANCH  11  13
ATOM     12  C   UNL     1       7.761   5.869  19.221  0.00  0.00    +0.000 C 
ATOM     13  O   UNL     1       7.386   4.616  18.675  0.00  0.00    +0.000 OA
ENDBRANCH  11  13
ENDBRANCH   9  11
ENDBRANCH   7   9
ENDBRANCH   1   7
BRANCH   6  14
ATOM     14  C   UNL     1       2.529   3.716  17.975  0.00  0.00    +0.000 C 
BRANCH  14  15
ATOM     15  N   UNL     1       2.471   3.290  19.367  0.00  0.00    +0.000 N 
ATOM     16  C   UNL     1       1.299   2.971  19.991  0.00  0.00    +0.000 C 
ATOM     17  O   UNL     1       0.178   3.052  19.518  0.00  0.00    +0.000 OA
ATOM     18  C   UNL     1       1.601   2.383  21.339  0.00  0.00    +0.000 C 
ATOM     19  C   UNL     1       3.101   2.531  21.481  0.00  0.00    +0.000 C 
ATOM     20  C   UNL     1       3.555   2.908  20.101  0.00  0.00    +0.000 C 
ATOM     21  O   UNL     1       4.718   2.836  19.733  0.00  0.00    +0.000 OA
ENDBRANCH  14  15
ENDBRANCH   6  14
TORSDOF 6
ENDMDL
MODEL 4
REMARK VINA RESULT:      -6.6      0.691      1.804
REMARK  Name = 
REMARK  8 active torsions:
REMARK  status: ('A' for Active; 'I' for Inactive)
REMARK    1  A    between atoms: C_1  and  O_2
REMARK    2  A    between atoms: O_2  and  C_3
REMARK    3  A    between atoms: C_3  and  C_4
REMARK    4  A    between atoms: C_4  and  C_5
REMARK    5  A    between atoms: C_4  and  N_6
REMARK    6  A    between atoms: N_6  and  C_7
REMARK    7  A    between atoms: C_12  and  C_13
REMARK    8  A    between atoms: C_13  and  N_14
REMARK                            x       y       z     vdW  Elec       q    Type
REMARK                         _______ _______ _______ _____ _____    ______ ____
ROOT
ATOM      1  C   UNL     1       2.883   6.172  19.590  0.00  0.00    +0.000 A 
ATOM      2  C   UNL     1       2.057   7.146  20.179  0.00  0.00    +0.000 A 
ATOM      3  C   UNL     1       1.746   8.364  19.550  0.00  0.00    +0.000 A 
ATOM      4  C   UNL     1       2.233   8.642  18.288  0.00  0.00    +0.000 A 
ATOM      5  C   UNL     1       3.051   7.709  17.670  0.00  0.00    +0.000 A 
ATOM      6  C   UNL     1       3.393   6.486  18.297  0.00  0.00    +0.000 A 
ENDROOT
BRANCH   1   7
ATOM      7  N   UNL     1       3.028   4.890  20.132  0.00  0.00    +0.000 N 
ATOM      8  H   UNL     1       3.605   4.933  20.967  0.00  0.00    +0.000 HD
BRANCH   7   9
ATOM      9  C   UNL     1       1.985   3.865  20.405  0.00  0.00    +0.000 C 
ATOM     10  C   UNL     1       2.060   3.099  21.721  0.00  0.00    +0.000 C 
BRANCH   9  11
ATOM     11  C   UNL     1       1.690   2.987  19.166  0.00  0.00    +0.000 C 
BRANCH  11  13
ATOM     12  C   UNL     1       3.465   1.877  18.031  0.00  0.00    +0.000 C 
ATOM     13  O   UNL     1       2.524   1.834  19.090  0.00  0.00    +0.000 OA
ENDBRANCH  11  13
ENDBRANCH   9  11
ENDBRANCH   7   9
ENDBRANCH   1   7
BRANCH   6  14
ATOM     14  C   UNL     1       4.336   5.595  17.504  0.00  0.00    +0.000 C 
BRANCH  14  15
ATOM     15  N   UNL     1       5.735   5.776  17.868  0.00  0.00    +0.000 N 
ATOM     16  C   UNL     1       6.502   6.786  17.361  0.00  0.00    +0.000 C 
ATOM     17  O   UNL     1       6.164   7.606  16.524  0.00  0.00    +0.000 OA
ATOM     18  C   UNL     1       7.818   6.816  18.083  0.00  0.00    +0.000 C 
ATOM     19  C   UNL     1       7.776   5.599  18.981  0.00  0.00    +0.000 C 
ATOM     20  C   UNL     1       6.343   5.158  18.919  0.00  0.00    +0.000 C 
ATOM     21  O   UNL     1       5.840   4.390  19.725  0.00  0.00    +0.000 OA
ENDBRANCH  14  15
ENDBRANCH   6  14
TORSDOF 6
ENDMDL
MODEL 5
REMARK VINA RESULT:      -6.6      1.792      5.234
REMARK  Name = 
REMARK  8 active torsions:
REMARK  status: ('A' for Active; 'I' for Inactive)
REMARK    1  A    between atoms: C_1  and  O_2
REMARK    2  A    between atoms: O_2  and  C_3
REMARK    3  A    between atoms: C_3  and  C_4
REMARK    4  A    between atoms: C_4  and  C_5
REMARK    5  A    between atoms: C_4  and  N_6
REMARK    6  A    between atoms: N_6  and  C_7
REMARK    7  A    between atoms: C_12  and  C_13
REMARK    8  A    between atoms: C_13  and  N_14
REMARK                            x       y       z     vdW  Elec       q    Type
REMARK                         _______ _______ _______ _____ _____    ______ ____
ROOT
ATOM      1  C   UNL     1       4.247   5.486  17.179  0.00  0.00    +0.000 A 
ATOM      2  C   UNL     1       4.416   6.882  17.164  0.00  0.00    +0.000 A 
ATOM      3  C   UNL     1       3.450   7.772  17.664  0.00  0.00    +0.000 A 
ATOM      4  C   UNL     1       2.283   7.292  18.226  0.00  0.00    +0.000 A 
ATOM      5  C   UNL     1       2.077   5.922  18.262  0.00  0.00    +0.000 A 
ATOM      6  C   UNL     1       3.030   5.011  17.743  0.00  0.00    +0.000 A 
ENDROOT
BRANCH   1   7
ATOM      7  N   UNL     1       5.289   4.606  16.862  0.00  0.00    +0.000 N 
ATOM      8  H   UNL     1       4.955   3.895  16.217  0.00  0.00    +0.000 HD
BRANCH   7   9
ATOM      9  C   UNL     1       6.683   4.915  16.446  0.00  0.00    +0.000 C 
ATOM     10  C   UNL     1       7.064   4.683  14.988  0.00  0.00    +0.000 C 
BRANCH   9  11
ATOM     11  C   UNL     1       7.725   4.408  17.472  0.00  0.00    +0.000 C 
BRANCH  11  13
ATOM     12  C   UNL     1       7.853   6.422  18.734  0.00  0.00    +0.000 C 
ATOM     13  O   UNL     1       7.596   5.029  18.748  0.00  0.00    +0.000 OA
ENDBRANCH  11  13
ENDBRANCH   9  11
ENDBRANCH   7   9
ENDBRANCH   1   7
BRANCH   6  14
ATOM     14  C   UNL     1       2.629   3.546  17.819  0.00  0.00    +0.000 C 
BRANCH  14  15
ATOM     15  N   UNL     1       2.546   3.046  19.185  0.00  0.00    +0.000 N 
ATOM     16  C   UNL     1       3.648   2.868  19.971  0.00  0.00    +0.000 C 
ATOM     17  O   UNL     1       4.810   3.034  19.643  0.00  0.00    +0.000 OA
ATOM     18  C   UNL     1       3.209   2.541  21.370  0.00  0.00    +0.000 C 
ATOM     19  C   UNL     1       1.705   2.411  21.265  0.00  0.00    +0.000 C 
ATOM     20  C   UNL     1       1.391   2.962  19.905  0.00  0.00    +0.000 C 
ATOM     21  O   UNL     1       0.269   3.297  19.557  0.00  0.00    +0.000 OA
ENDBRANCH  14  15
ENDBRANCH   6  14
TORSDOF 6
ENDMDL
MODEL 6
REMARK VINA RESULT:      -6.6      2.085      5.115
REMARK  Name = 
REMARK  8 active torsions:
REMARK  status: ('A' for Active; 'I' for Inactive)
REMARK    1  A    between atoms: C_1  and  O_2
REMARK    2  A    between atoms: O_2  and  C_3
REMARK    3  A    between atoms: C_3  and  C_4
REMARK    4  A    between atoms: C_4  and  C_5
REMARK    5  A    between atoms: C_4  and  N_6
REMARK    6  A    between atoms: N_6  and  C_7
REMARK    7  A    between atoms: C_12  and  C_13
REMARK    8  A    between atoms: C_13  and  N_14
REMARK                            x       y       z     vdW  Elec       q    Type
REMARK                         _______ _______ _______ _____ _____    ______ ____
ROOT
ATOM      1  C   UNL     1       3.997   3.504  18.492  0.00  0.00    +0.000 A 
ATOM      2  C   UNL     1       3.434   2.322  17.980  0.00  0.00    +0.000 A 
ATOM      3  C   UNL     1       2.053   2.061  18.010  0.00  0.00    +0.000 A 
ATOM      4  C   UNL     1       1.177   2.992  18.532  0.00  0.00    +0.000 A 
ATOM      5  C   UNL     1       1.690   4.172  19.047  0.00  0.00    +0.000 A 
ATOM      6  C   UNL     1       3.082   4.443  19.046  0.00  0.00    +0.000 A 
ENDROOT
BRANCH   1   7
ATOM      7  N   UNL     1       5.340   3.841  18.283  0.00  0.00    +0.000 N 
ATOM      8  H   UNL     1       5.935   3.059  18.541  0.00  0.00    +0.000 HD
BRANCH   7   9
ATOM      9  C   UNL     1       5.976   4.465  17.092  0.00  0.00    +0.000 C 
ATOM     10  C   UNL     1       5.615   3.915  15.717  0.00  0.00    +0.000 C 
BRANCH   9  11
ATOM     11  C   UNL     1       7.485   4.727  17.305  0.00  0.00    +0.000 C 
BRANCH  11  13
ATOM     12  C   UNL     1       7.950   5.873  19.339  0.00  0.00    +0.000 C 
ATOM     13  O   UNL     1       7.881   4.626  18.670  0.00  0.00    +0.000 OA
ENDBRANCH  11  13
ENDBRANCH   9  11
ENDBRANCH   7   9
ENDBRANCH   1   7
BRANCH   6  14
ATOM     14  C   UNL     1       3.482   5.761  19.689  0.00  0.00    +0.000 C 
BRANCH  14  15
ATOM     15  N   UNL     1       2.795   6.911  19.115  0.00  0.00    +0.000 N 
ATOM     16  C   UNL     1       1.921   7.678  19.830  0.00  0.00    +0.000 C 
ATOM     17  O   UNL     1       1.557   7.488  20.978  0.00  0.00    +0.000 OA
ATOM     18  C   UNL     1       1.549   8.887  19.020  0.00  0.00    +0.000 C 
ATOM     19  C   UNL     1       2.210   8.653  17.679  0.00  0.00    +0.000 C 
ATOM     20  C   UNL     1       3.135   7.499  17.933  0.00  0.00    +0.000 C 
ATOM     21  O   UNL     1       4.051   7.194  17.184  0.00  0.00    +0.000 OA
ENDBRANCH  14  15
ENDBRANCH   6  14
TORSDOF 6
ENDMDL
MODEL 7
REMARK VINA RESULT:      -6.6      2.011      5.033
REMARK  Name = 
REMARK  8 active torsions:
REMARK  status: ('A' for Active; 'I' for Inactive)
REMARK    1  A    between atoms: C_1  and  O_2
REMARK    2  A    between atoms: O_2  and  C_3
REMARK    3  A    between atoms: C_3  and  C_4
REMARK    4  A    between atoms: C_4  and  C_5
REMARK    5  A    between atoms: C_4  and  N_6
REMARK    6  A    between atoms: N_6  and  C_7
REMARK    7  A    between atoms: C_12  and  C_13
REMARK    8  A    between atoms: C_13  and  N_14
REMARK                            x       y       z     vdW  Elec       q    Type
REMARK                         _______ _______ _______ _____ _____    ______ ____
ROOT
ATOM      1  C   UNL     1       2.715   4.287  18.285  0.00  0.00    +0.000 A 
ATOM      2  C   UNL     1       2.046   3.071  18.062  0.00  0.00    +0.000 A 
ATOM      3  C   UNL     1       1.048   2.581  18.923  0.00  0.00    +0.000 A 
ATOM      4  C   UNL     1       0.662   3.309  20.031  0.00  0.00    +0.000 A 
ATOM      5  C   UNL     1       1.295   4.515  20.287  0.00  0.00    +0.000 A 
ATOM      6  C   UNL     1       2.318   5.015  19.443  0.00  0.00    +0.000 A 
ENDROOT
BRANCH   1   7
ATOM      7  N   UNL     1       3.560   4.859  17.327  0.00  0.00    +0.000 N 
ATOM      8  H   UNL     1       3.363   5.852  17.242  0.00  0.00    +0.000 HD
BRANCH   7   9
ATOM      9  C   UNL     1       5.033   4.718  17.172  0.00  0.00    +0.000 C 
ATOM     10  C   UNL     1       5.558   3.999  15.935  0.00  0.00    +0.000 C 
BRANCH   9  11
ATOM     11  C   UNL     1       5.723   4.309  18.495  0.00  0.00    +0.000 C 
BRANCH  11  13
ATOM     12  C   UNL     1       7.524   5.856  18.677  0.00  0.00    +0.000 C 
ATOM     13  O   UNL     1       6.281   5.417  19.197  0.00  0.00    +0.000 OA
ENDBRANCH  11  13
ENDBRANCH   9  11
ENDBRANCH   7   9
ENDBRANCH   1   7
BRANCH   6  14
ATOM     14  C   UNL     1       2.941   6.327  19.891  0.00  0.00    +0.000 C 
BRANCH  14  15
ATOM     15  N   UNL     1       2.216   7.497  19.411  0.00  0.00    +0.000 N 
ATOM     16  C   UNL     1       1.440   8.268  20.228  0.00  0.00    +0.000 C 
ATOM     17  O   UNL     1       1.201   8.067  21.407  0.00  0.00    +0.000 OA
ATOM     18  C   UNL     1       1.003   9.495  19.481  0.00  0.00    +0.000 C 
ATOM     19  C   UNL     1       1.509   9.271  18.072  0.00  0.00    +0.000 C 
ATOM     20  C   UNL     1       2.435   8.098  18.207  0.00  0.00    +0.000 C 
ATOM     21  O   UNL     1       3.258   7.789  17.358  0.00  0.00    +0.000 OA
ENDBRANCH  14  15
ENDBRANCH   6  14
TORSDOF 6
ENDMDL
MODEL 8
REMARK VINA RESULT:      -6.5      2.195      5.154
REMARK  Name = 
REMARK  8 active torsions:
REMARK  status: ('A' for Active; 'I' for Inactive)
REMARK    1  A    between atoms: C_1  and  O_2
REMARK    2  A    between atoms: O_2  and  C_3
REMARK    3  A    between atoms: C_3  and  C_4
REMARK    4  A    between atoms: C_4  and  C_5
REMARK    5  A    between atoms: C_4  and  N_6
REMARK    6  A    between atoms: N_6  and  C_7
REMARK    7  A    between atoms: C_12  and  C_13
REMARK    8  A    between atoms: C_13  and  N_14
REMARK                            x       y       z     vdW  Elec       q    Type
REMARK                         _______ _______ _______ _____ _____    ______ ____
ROOT
ATOM      1  C   UNL     1       2.911   4.290  18.095  0.00  0.00    +0.000 A 
ATOM      2  C   UNL     1       2.281   3.066  17.807  0.00  0.00    +0.000 A 
ATOM      3  C   UNL     1       1.269   2.522  18.615  0.00  0.00    +0.000 A 
ATOM      4  C   UNL     1       0.827   3.201  19.734  0.00  0.00    +0.000 A 
ATOM      5  C   UNL     1       1.420   4.412  20.053  0.00  0.00    +0.000 A 
ATOM      6  C   UNL     1       2.458   4.966  19.263  0.00  0.00    +0.000 A 
ENDROOT
BRANCH   1   7
ATOM      7  N   UNL     1       3.773   4.916  17.187  0.00  0.00    +0.000 N 
ATOM      8  H   UNL     1       3.580   5.913  17.160  0.00  0.00    +0.000 HD
BRANCH   7   9
ATOM      9  C   UNL     1       5.248   4.780  17.048  0.00  0.00    +0.000 C 
ATOM     10  C   UNL     1       6.078   4.636  18.318  0.00  0.00    +0.000 C 
BRANCH   9  11
ATOM     11  C   UNL     1       5.831   5.767  16.008  0.00  0.00    +0.000 C 
BRANCH  11  13
ATOM     12  C   UNL     1       7.144   4.886  14.227  0.00  0.00    +0.000 C 
ATOM     13  O   UNL     1       7.128   5.392  15.551  0.00  0.00    +0.000 OA
ENDBRANCH  11  13
ENDBRANCH   9  11
ENDBRANCH   7   9
ENDBRANCH   1   7
BRANCH   6  14
ATOM     14  C   UNL     1       3.031   6.277  19.778  0.00  0.00    +0.000 C 
BRANCH  14  15
ATOM     15  N   UNL     1       2.274   7.442  19.340  0.00  0.00    +0.000 N 
ATOM     16  C   UNL     1       1.504   8.182  20.191  0.00  0.00    +0.000 C 
ATOM     17  O   UNL     1       1.295   7.951  21.370  0.00  0.00    +0.000 OA
ATOM     18  C   UNL     1       1.028   9.416  19.480  0.00  0.00    +0.000 C 
ATOM     19  C   UNL     1       1.505   9.231  18.056  0.00  0.00    +0.000 C 
ATOM     20  C   UNL     1       2.455   8.073  18.144  0.00  0.00    +0.000 C 
ATOM     21  O   UNL     1       3.264   7.798  17.271  0.00  0.00    +0.000 OA
ENDBRANCH  14  15
ENDBRANCH   6  14
TORSDOF 6
ENDMDL
MODEL 9
REMARK VINA RESULT:      -6.4      1.262      2.486
REMARK  Name = 
REMARK  8 active torsions:
REMARK  status: ('A' for Active; 'I' for Inactive)
REMARK    1  A    between atoms: C_1  and  O_2
REMARK    2  A    between atoms: O_2  and  C_3
REMARK    3  A    between atoms: C_3  and  C_4
REMARK    4  A    between atoms: C_4  and  C_5
REMARK    5  A    between atoms: C_4  and  N_6
REMARK    6  A    between atoms: N_6  and  C_7
REMARK    7  A    between atoms: C_12  and  C_13
REMARK    8  A    between atoms: C_13  and  N_14
REMARK                            x       y       z     vdW  Elec       q    Type
REMARK                         _______ _______ _______ _____ _____    ______ ____
ROOT
ATOM      1  C   UNL     1       3.066   5.999  18.988  0.00  0.00    +0.000 A 
ATOM      2  C   UNL     1       2.093   6.836  19.564  0.00  0.00    +0.000 A 
ATOM      3  C   UNL     1       1.821   8.129  19.087  0.00  0.00    +0.000 A 
ATOM      4  C   UNL     1       2.498   8.626  17.990  0.00  0.00    +0.000 A 
ATOM      5  C   UNL     1       3.464   7.833  17.391  0.00  0.00    +0.000 A 
ATOM      6  C   UNL     1       3.768   6.535  17.872  0.00  0.00    +0.000 A 
ENDROOT
BRANCH   1   7
ATOM      7  N   UNL     1       3.193   4.651  19.342  0.00  0.00    +0.000 N 
ATOM      8  H   UNL     1       3.201   4.560  20.354  0.00  0.00    +0.000 HD
BRANCH   7   9
ATOM      9  C   UNL     1       2.444   3.472  18.830  0.00  0.00    +0.000 C 
ATOM     10  C   UNL     1       2.412   3.243  17.324  0.00  0.00    +0.000 C 
BRANCH   9  11
ATOM     11  C   UNL     1       1.079   3.294  19.537  0.00  0.00    +0.000 C 
BRANCH  11  13
ATOM     12  C   UNL     1       1.573   2.615  21.765  0.00  0.00    +0.000 C 
ATOM     13  O   UNL     1       1.116   3.653  20.916  0.00  0.00    +0.000 OA
ENDBRANCH  11  13
ENDBRANCH   9  11
ENDBRANCH   7   9
ENDBRANCH   1   7
BRANCH   6  14
ATOM     14  C   UNL     1       4.884   5.818  17.131  0.00  0.00    +0.000 C 
BRANCH  14  15
ATOM     15  N   UNL     1       6.182   5.956  17.779  0.00  0.00    +0.000 N 
ATOM     16  C   UNL     1       6.997   7.031  17.572  0.00  0.00    +0.000 C 
ATOM     17  O   UNL     1       6.799   7.957  16.804  0.00  0.00    +0.000 OA
ATOM     18  C   UNL     1       8.151   6.968  18.531  0.00  0.00    +0.000 C 
ATOM     19  C   UNL     1       7.978   5.638  19.232  0.00  0.00    +0.000 C 
ATOM     20  C   UNL     1       6.599   5.201  18.835  0.00  0.00    +0.000 C 
ATOM     21  O   UNL     1       5.978   4.324  19.417  0.00  0.00    +0.000 OA
ENDBRANCH  14  15
ENDBRANCH   6  14
TORSDOF 6
ENDMDL
