MODEL 1
REMARK VINA RESULT:      -6.8      0.000      0.000
REMARK  Name = 
REMARK  10 active torsions:
REMARK  status: ('A' for Active; 'I' for Inactive)
REMARK    1  A    between atoms: C_1  and  C_2
REMARK    2  A    between atoms: C_2  and  O_3
REMARK    3  A    between atoms: O_3  and  C_4
REMARK    4  A    between atoms: C_9  and  C_10
REMARK    5  A    between atoms: N_12  and  C_13
REMARK    6  A    between atoms: N_12  and  C_14
REMARK    7  A    between atoms: C_14  and  C_15
REMARK    8  A    between atoms: N_17  and  C_18
REMARK    9  A    between atoms: C_23  and  S_24
REMARK   10  A    between atoms: S_24  and  C_25
REMARK                            x       y       z     vdW  Elec       q    Type
REMARK                         _______ _______ _______ _____ _____    ______ ____
ROOT
ATOM      1  C   UNL     1       4.278   3.928  17.967  0.00  0.00    +0.000 C 
ATOM      2  O   UNL     1       4.241   3.089  17.069  0.00  0.00    +0.000 OA
ATOM      3  N   UNL     1       3.254   3.952  18.961  0.00  0.00    +0.000 N 
ATOM      4  C   UNL     1       2.254   2.877  18.978  0.00  0.00    +0.000 C 
ENDROOT
BRANCH   1  10
ATOM      5  C   UNL     1       5.832   5.617  16.857  0.00  0.00    +0.000 A 
ATOM      6  N   UNL     1       6.936   6.422  16.797  0.00  0.00    +0.000 NA
ATOM      7  C   UNL     1       7.714   6.535  17.881  0.00  0.00    +0.000 A 
ATOM      8  C   UNL     1       7.389   5.944  19.077  0.00  0.00    +0.000 A 
ATOM      9  C   UNL     1       6.212   5.193  19.141  0.00  0.00    +0.000 A 
ATOM     10  C   UNL     1       5.438   4.917  18.003  0.00  0.00    +0.000 A 
BRANCH   5  11
ATOM     11  O   UNL     1       5.088   5.542  15.705  0.00  0.00    +0.000 OA
BRANCH  11  13
ATOM     12  C   UNL     1       5.971   3.900  14.216  0.00  0.00    +0.000 C 
ATOM     13  C   UNL     1       5.910   5.373  14.549  0.00  0.00    +0.000 C 
ENDBRANCH  11  13
ENDBRANCH   5  11
ENDBRANCH   1  10
BRANCH   3  14
ATOM     14  C   UNL     1       3.244   4.889  20.080  0.00  0.00    +0.000 C 
BRANCH  14  15
ATOM     15  C   UNL     1       2.079   5.842  20.318  0.00  0.00    +0.000 C 
ATOM     16  O   UNL     1       0.941   5.401  20.535  0.00  0.00    +0.000 OA
ATOM     17  N   UNL     1       2.395   7.189  20.223  0.00  0.00    +0.000 N 
ATOM     18  H   UNL     1       3.117   7.450  19.551  0.00  0.00    +0.000 HD
BRANCH  17  19
ATOM     19  C   UNL     1       1.436   8.186  20.523  0.00  0.00    +0.000 A 
ATOM     20  C   UNL     1       0.798   8.155  21.774  0.00  0.00    +0.000 A 
ATOM     21  C   UNL     1      -0.150   9.119  22.106  0.00  0.00    +0.000 A 
ATOM     22  C   UNL     1      -0.458  10.126  21.200  0.00  0.00    +0.000 A 
ATOM     23  C   UNL     1       0.186  10.169  19.959  0.00  0.00    +0.000 A 
ATOM     24  C   UNL     1       1.139   9.202  19.603  0.00  0.00    +0.000 A 
BRANCH  24  25
ATOM     25  S   UNL     1       1.898   9.332  17.984  0.00  0.00    +0.000 S 
ATOM     26  C   UNL     1       2.237  11.122  17.903  0.00  0.00    +0.000 C 
ENDBRANCH  24  25
ENDBRANCH  17  19
ENDBRANCH  14  15
ENDBRANCH   3  14
TORSDOF 7
ENDMDL
MODEL 2
REMARK VINA RESULT:      -6.8      1.338      1.482
REMARK  Name = 
REMARK  10 active torsions:
REMARK  status: ('A' for Active; 'I' for Inactive)
REMARK    1  A    between atoms: C_1  and  C_2
REMARK    2  A    between atoms: C_2  and  O_3
REMARK    3  A    between atoms: O_3  and  C_4
REMARK    4  A    between atoms: C_9  and  C_10
REMARK    5  A    between atoms: N_12  and  C_13
REMARK    6  A    between atoms: N_12  and  C_14
REMARK    7  A    between atoms: C_14  and  C_15
REMARK    8  A    between atoms: N_17  and  C_18
REMARK    9  A    between atoms: C_23  and  S_24
REMARK   10  A    between atoms: S_24  and  C_25
REMARK                            x       y       z     vdW  Elec       q    Type
REMARK                         _______ _______ _______ _____ _____    ______ ____
ROOT
ATOM      1  C   UNL     1       4.155   4.491  18.226  0.00  0.00    +0.000 C 
ATOM      2  O   UNL     1       4.174   3.276  18.038  0.00  0.00    +0.000 OA
ATOM      3  N   UNL     1       2.913   5.160  18.441  0.00  0.00    +0.000 N 
ATOM      4  C   UNL     1       1.689   4.359  18.582  0.00  0.00    +0.000 C 
ENDROOT
BRANCH   1  10
ATOM      5  C   UNL     1       5.969   5.877  17.092  0.00  0.00    +0.000 A 
ATOM      6  N   UNL     1       7.200   6.469  17.013  0.00  0.00    +0.000 NA
ATOM      7  C   UNL     1       8.006   6.430  18.082  0.00  0.00    +0.000 A 
ATOM      8  C   UNL     1       7.602   5.900  19.281  0.00  0.00    +0.000 A 
ATOM      9  C   UNL     1       6.310   5.375  19.367  0.00  0.00    +0.000 A 
ATOM     10  C   UNL     1       5.477   5.252  18.243  0.00  0.00    +0.000 A 
BRANCH   5  11
ATOM     11  O   UNL     1       5.203   5.947  15.955  0.00  0.00    +0.000 OA
BRANCH  11  13
ATOM     12  C   UNL     1       5.863   3.878  14.966  0.00  0.00    +0.000 C 
ATOM     13  C   UNL     1       5.870   5.383  14.825  0.00  0.00    +0.000 C 
ENDBRANCH  11  13
ENDBRANCH   5  11
ENDBRANCH   1  10
BRANCH   3  14
ATOM     14  C   UNL     1       2.809   6.591  18.709  0.00  0.00    +0.000 C 
BRANCH  14  15
ATOM     15  C   UNL     1       1.937   7.134  19.836  0.00  0.00    +0.000 C 
ATOM     16  O   UNL     1       1.581   6.396  20.767  0.00  0.00    +0.000 OA
ATOM     17  N   UNL     1       1.560   8.461  19.696  0.00  0.00    +0.000 N 
ATOM     18  H   UNL     1       1.410   8.803  18.746  0.00  0.00    +0.000 HD
BRANCH  17  19
ATOM     19  C   UNL     1       0.839   9.126  20.716  0.00  0.00    +0.000 A 
ATOM     20  C   UNL     1       1.142   8.836  22.056  0.00  0.00    +0.000 A 
ATOM     21  C   UNL     1       0.455   9.469  23.088  0.00  0.00    +0.000 A 
ATOM     22  C   UNL     1      -0.527  10.405  22.791  0.00  0.00    +0.000 A 
ATOM     23  C   UNL     1      -0.822  10.708  21.458  0.00  0.00    +0.000 A 
ATOM     24  C   UNL     1      -0.146  10.074  20.404  0.00  0.00    +0.000 A 
BRANCH  24  25
ATOM     25  S   UNL     1      -0.605  10.517  18.729  0.00  0.00    +0.000 S 
ATOM     26  C   UNL     1      -1.423  12.124  19.007  0.00  0.00    +0.000 C 
ENDBRANCH  24  25
ENDBRANCH  17  19
ENDBRANCH  14  15
ENDBRANCH   3  14
TORSDOF 7
ENDMDL
MODEL 3
REMARK VINA RESULT:      -6.7      2.384      4.351
REMARK  Name = 
REMARK  10 active torsions:
REMARK  status: ('A' for Active; 'I' for Inactive)
REMARK    1  A    between atoms: C_1  and  C_2
REMARK    2  A    between atoms: C_2  and  O_3
REMARK    3  A    between atoms: O_3  and  C_4
REMARK    4  A    between atoms: C_9  and  C_10
REMARK    5  A    between atoms: N_12  and  C_13
REMARK    6  A    between atoms: N_12  and  C_14
REMARK    7  A    between atoms: C_14  and  C_15
REMARK    8  A    between atoms: N_17  and  C_18
REMARK    9  A    between atoms: C_23  and  S_24
REMARK   10  A    between atoms: S_24  and  C_25
REMARK                            x       y       z     vdW  Elec       q    Type
REMARK                         _______ _______ _______ _____ _____    ______ ____
ROOT
ATOM      1  C   UNL     1       2.362   6.511  18.910  0.00  0.00    +0.000 C 
ATOM      2  O   UNL     1       2.682   6.442  17.725  0.00  0.00    +0.000 OA
ATOM      3  N   UNL     1       2.011   7.772  19.481  0.00  0.00    +0.000 N 
ATOM      4  C   UNL     1       1.894   8.942  18.601  0.00  0.00    +0.000 C 
ENDROOT
BRANCH   1  10
ATOM      5  C   UNL     1       3.494   4.485  19.964  0.00  0.00    +0.000 A 
ATOM      6  N   UNL     1       3.510   3.271  20.595  0.00  0.00    +0.000 NA
ATOM      7  C   UNL     1       2.350   2.738  21.001  0.00  0.00    +0.000 A 
ATOM      8  C   UNL     1       1.159   3.411  20.890  0.00  0.00    +0.000 A 
ATOM      9  C   UNL     1       1.175   4.686  20.318  0.00  0.00    +0.000 A 
ATOM     10  C   UNL     1       2.333   5.232  19.741  0.00  0.00    +0.000 A 
BRANCH   5  11
ATOM     11  O   UNL     1       4.718   4.963  19.568  0.00  0.00    +0.000 OA
BRANCH  11  13
ATOM     12  C   UNL     1       6.354   4.950  17.830  0.00  0.00    +0.000 C 
ATOM     13  C   UNL     1       5.318   4.134  18.572  0.00  0.00    +0.000 C 
ENDBRANCH  11  13
ENDBRANCH   5  11
ENDBRANCH   1  10
BRANCH   3  14
ATOM     14  C   UNL     1       1.585   7.934  20.867  0.00  0.00    +0.000 C 
BRANCH  14  15
ATOM     15  C   UNL     1       0.320   8.701  21.233  0.00  0.00    +0.000 C 
ATOM     16  O   UNL     1      -0.713   8.094  21.553  0.00  0.00    +0.000 OA
ATOM     17  N   UNL     1       0.421  10.080  21.128  0.00  0.00    +0.000 N 
ATOM     18  H   UNL     1       1.025  10.447  20.392  0.00  0.00    +0.000 HD
BRANCH  17  19
ATOM     19  C   UNL     1      -0.642  10.922  21.535  0.00  0.00    +0.000 A 
ATOM     20  C   UNL     1      -0.950  11.008  22.902  0.00  0.00    +0.000 A 
ATOM     21  C   UNL     1      -1.988  11.825  23.342  0.00  0.00    +0.000 A 
ATOM     22  C   UNL     1      -2.714  12.572  22.424  0.00  0.00    +0.000 A 
ATOM     23  C   UNL     1      -2.401  12.501  21.063  0.00  0.00    +0.000 A 
ATOM     24  C   UNL     1      -1.364  11.677  20.600  0.00  0.00    +0.000 A 
BRANCH  24  25
ATOM     25  S   UNL     1      -1.049  11.641  18.835  0.00  0.00    +0.000 S 
ATOM     26  C   UNL     1      -0.452  13.341  18.555  0.00  0.00    +0.000 C 
ENDBRANCH  24  25
ENDBRANCH  17  19
ENDBRANCH  14  15
ENDBRANCH   3  14
TORSDOF 7
ENDMDL
MODEL 4
REMARK VINA RESULT:      -6.6      1.323      2.133
REMARK  Name = 
REMARK  10 active torsions:
REMARK  status: ('A' for Active; 'I' for Inactive)
REMARK    1  A    between atoms: C_1  and  C_2
REMARK    2  A    between atoms: C_2  and  O_3
REMARK    3  A    between atoms: O_3  and  C_4
REMARK    4  A    between atoms: C_9  and  C_10
REMARK    5  A    between atoms: N_12  and  C_13
REMARK    6  A    between atoms: N_12  and  C_14
REMARK    7  A    between atoms: C_14  and  C_15
REMARK    8  A    between atoms: N_17  and  C_18
REMARK    9  A    between atoms: C_23  and  S_24
REMARK   10  A    between atoms: S_24  and  C_25
REMARK                            x       y       z     vdW  Elec       q    Type
REMARK                         _______ _______ _______ _____ _____    ______ ____
ROOT
ATOM      1  C   UNL     1       4.315   3.993  18.190  0.00  0.00    +0.000 C 
ATOM      2  O   UNL     1       4.422   2.951  17.545  0.00  0.00    +0.000 OA
ATOM      3  N   UNL     1       3.129   4.246  18.944  0.00  0.00    +0.000 N 
ATOM      4  C   UNL     1       2.118   3.187  19.055  0.00  0.00    +0.000 C 
ENDROOT
BRANCH   1  10
ATOM      5  C   UNL     1       5.867   5.628  17.001  0.00  0.00    +0.000 A 
ATOM      6  N   UNL     1       6.970   6.433  16.904  0.00  0.00    +0.000 NA
ATOM      7  C   UNL     1       7.744   6.601  17.983  0.00  0.00    +0.000 A 
ATOM      8  C   UNL     1       7.418   6.070  19.205  0.00  0.00    +0.000 A 
ATOM      9  C   UNL     1       6.243   5.320  19.305  0.00  0.00    +0.000 A 
ATOM     10  C   UNL     1       5.473   4.986  18.179  0.00  0.00    +0.000 A 
BRANCH   5  11
ATOM     11  O   UNL     1       5.127   5.494  15.853  0.00  0.00    +0.000 OA
BRANCH  11  13
ATOM     12  C   UNL     1       5.422   3.949  14.058  0.00  0.00    +0.000 C 
ATOM     13  C   UNL     1       5.947   5.204  14.720  0.00  0.00    +0.000 C 
ENDBRANCH  11  13
ENDBRANCH   5  11
ENDBRANCH   1  10
BRANCH   3  14
ATOM     14  C   UNL     1       2.941   5.438  19.764  0.00  0.00    +0.000 C 
BRANCH  14  15
ATOM     15  C   UNL     1       2.377   6.730  19.183  0.00  0.00    +0.000 C 
ATOM     16  O   UNL     1       2.256   6.867  17.957  0.00  0.00    +0.000 OA
ATOM     17  N   UNL     1       2.075   7.709  20.117  0.00  0.00    +0.000 N 
ATOM     18  H   UNL     1       2.667   7.757  20.948  0.00  0.00    +0.000 HD
BRANCH  17  19
ATOM     19  C   UNL     1       1.448   8.918  19.731  0.00  0.00    +0.000 A 
ATOM     20  C   UNL     1       1.986   9.644  18.656  0.00  0.00    +0.000 A 
ATOM     21  C   UNL     1       1.398  10.837  18.246  0.00  0.00    +0.000 A 
ATOM     22  C   UNL     1       0.262  11.306  18.894  0.00  0.00    +0.000 A 
ATOM     23  C   UNL     1      -0.286  10.578  19.955  0.00  0.00    +0.000 A 
ATOM     24  C   UNL     1       0.298   9.378  20.389  0.00  0.00    +0.000 A 
BRANCH  24  25
ATOM     25  S   UNL     1      -0.467   8.525  21.768  0.00  0.00    +0.000 S 
ATOM     26  C   UNL     1       0.095   9.553  23.166  0.00  0.00    +0.000 C 
ENDBRANCH  24  25
ENDBRANCH  17  19
ENDBRANCH  14  15
ENDBRANCH   3  14
TORSDOF 7
ENDMDL
MODEL 5
REMARK VINA RESULT:      -6.6      2.258      3.636
REMARK  Name = 
REMARK  10 active torsions:
REMARK  status: ('A' for Active; 'I' for Inactive)
REMARK    1  A    between atoms: C_1  and  C_2
REMARK    2  A    between atoms: C_2  and  O_3
REMARK    3  A    between atoms: O_3  and  C_4
REMARK    4  A    between atoms: C_9  and  C_10
REMARK    5  A    between atoms: N_12  and  C_13
REMARK    6  A    between atoms: N_12  and  C_14
REMARK    7  A    between atoms: C_14  and  C_15
REMARK    8  A    between atoms: N_17  and  C_18
REMARK    9  A    between atoms: C_23  and  S_24
REMARK   10  A    between atoms: S_24  and  C_25
REMARK                            x       y       z     vdW  Elec       q    Type
REMARK                         _______ _______ _______ _____ _____    ______ ____
ROOT
ATOM      1  C   UNL     1       3.535   6.619  17.923  0.00  0.00    +0.000 C 
ATOM      2  O   UNL     1       4.120   6.957  16.896  0.00  0.00    +0.000 OA
ATOM      3  N   UNL     1       2.730   7.563  18.629  0.00  0.00    +0.000 N 
ATOM      4  C   UNL     1       2.494   8.883  18.031  0.00  0.00    +0.000 C 
ENDROOT
BRANCH   1  10
ATOM      5  C   UNL     1       4.784   4.770  19.156  0.00  0.00    +0.000 A 
ATOM      6  N   UNL     1       5.024   3.471  19.515  0.00  0.00    +0.000 NA
ATOM      7  C   UNL     1       4.173   2.521  19.108  0.00  0.00    +0.000 A 
ATOM      8  C   UNL     1       3.020   2.816  18.426  0.00  0.00    +0.000 A 
ATOM      9  C   UNL     1       2.750   4.157  18.141  0.00  0.00    +0.000 A 
ATOM     10  C   UNL     1       3.675   5.180  18.409  0.00  0.00    +0.000 A 
BRANCH   5  11
ATOM     11  O   UNL     1       5.703   5.687  19.599  0.00  0.00    +0.000 OA
BRANCH  11  13
ATOM     12  C   UNL     1       7.328   5.874  17.861  0.00  0.00    +0.000 C 
ATOM     13  C   UNL     1       7.037   5.325  19.239  0.00  0.00    +0.000 C 
ENDBRANCH  11  13
ENDBRANCH   5  11
ENDBRANCH   1  10
BRANCH   3  14
ATOM     14  C   UNL     1       1.974   7.231  19.833  0.00  0.00    +0.000 C 
BRANCH  14  15
ATOM     15  C   UNL     1       1.460   8.309  20.780  0.00  0.00    +0.000 C 
ATOM     16  O   UNL     1       2.107   8.617  21.792  0.00  0.00    +0.000 OA
ATOM     17  N   UNL     1       0.231   8.850  20.438  0.00  0.00    +0.000 N 
ATOM     18  H   UNL     1      -0.441   8.229  19.986  0.00  0.00    +0.000 HD
BRANCH  17  19
ATOM     19  C   UNL     1      -0.318   9.932  21.168  0.00  0.00    +0.000 A 
ATOM     20  C   UNL     1      -0.659   9.734  22.515  0.00  0.00    +0.000 A 
ATOM     21  C   UNL     1      -1.201  10.774  23.266  0.00  0.00    +0.000 A 
ATOM     22  C   UNL     1      -1.393  12.019  22.683  0.00  0.00    +0.000 A 
ATOM     23  C   UNL     1      -1.041  12.225  21.345  0.00  0.00    +0.000 A 
ATOM     24  C   UNL     1      -0.502  11.188  20.570  0.00  0.00    +0.000 A 
BRANCH  24  25
ATOM     25  S   UNL     1      -0.098  11.544  18.860  0.00  0.00    +0.000 S 
ATOM     26  C   UNL     1      -0.395  13.342  18.801  0.00  0.00    +0.000 C 
ENDBRANCH  24  25
ENDBRANCH  17  19
ENDBRANCH  14  15
ENDBRANCH   3  14
TORSDOF 7
ENDMDL
MODEL 6
REMARK VINA RESULT:      -6.5      2.536      4.494
REMARK  Name = 
REMARK  10 active torsions:
REMARK  status: ('A' for Active; 'I' for Inactive)
REMARK    1  A    between atoms: C_1  and  C_2
REMARK    2  A    between atoms: C_2  and  O_3
REMARK    3  A    between atoms: O_3  and  C_4
REMARK    4  A    between atoms: C_9  and  C_10
REMARK    5  A    between atoms: N_12  and  C_13
REMARK    6  A    between atoms: N_12  and  C_14
REMARK    7  A    between atoms: C_14  and  C_15
REMARK    8  A    between atoms: N_17  and  C_18
REMARK    9  A    between atoms: C_23  and  S_24
REMARK   10  A    between atoms: S_24  and  C_25
REMARK                            x       y       z     vdW  Elec       q    Type
REMARK                         _______ _______ _______ _____ _____    ______ ____
ROOT
ATOM      1  C   UNL     1       2.331   6.771  19.039  0.00  0.00    +0.000 C 
ATOM      2  O   UNL     1       2.747   6.830  17.884  0.00  0.00    +0.000 OA
ATOM      3  N   UNL     1       1.857   7.952  19.687  0.00  0.00    +0.000 N 
ATOM      4  C   UNL     1       1.736   9.191  18.907  0.00  0.00    +0.000 C 
ENDROOT
BRANCH   1  10
ATOM      5  C   UNL     1       3.474   4.641  19.848  0.00  0.00    +0.000 A 
ATOM      6  N   UNL     1       3.497   3.373  20.362  0.00  0.00    +0.000 NA
ATOM      7  C   UNL     1       2.348   2.820  20.769  0.00  0.00    +0.000 A 
ATOM      8  C   UNL     1       1.165   3.515  20.775  0.00  0.00    +0.000 A 
ATOM      9  C   UNL     1       1.177   4.838  20.324  0.00  0.00    +0.000 A 
ATOM     10  C   UNL     1       2.317   5.421  19.747  0.00  0.00    +0.000 A 
BRANCH   5  11
ATOM     11  O   UNL     1       4.687   5.139  19.442  0.00  0.00    +0.000 OA
BRANCH  11  13
ATOM     12  C   UNL     1       4.822   4.287  17.217  0.00  0.00    +0.000 C 
ATOM     13  C   UNL     1       5.394   4.215  18.615  0.00  0.00    +0.000 C 
ENDBRANCH  11  13
ENDBRANCH   5  11
ENDBRANCH   1  10
BRANCH   3  14
ATOM     14  C   UNL     1       1.313   7.959  21.041  0.00  0.00    +0.000 C 
BRANCH  14  15
ATOM     15  C   UNL     1       1.000   9.260  21.772  0.00  0.00    +0.000 C 
ATOM     16  O   UNL     1       1.729   9.652  22.696  0.00  0.00    +0.000 OA
ATOM     17  N   UNL     1      -0.153   9.904  21.354  0.00  0.00    +0.000 N 
ATOM     18  H   UNL     1      -0.927   9.316  21.041  0.00  0.00    +0.000 HD
BRANCH  17  19
ATOM     19  C   UNL     1      -0.509  11.172  21.872  0.00  0.00    +0.000 A 
ATOM     20  C   UNL     1      -1.404  11.234  22.952  0.00  0.00    +0.000 A 
ATOM     21  C   UNL     1      -1.778  12.463  23.490  0.00  0.00    +0.000 A 
ATOM     22  C   UNL     1      -1.252  13.635  22.963  0.00  0.00    +0.000 A 
ATOM     23  C   UNL     1      -0.349  13.578  21.897  0.00  0.00    +0.000 A 
ATOM     24  C   UNL     1       0.033  12.350  21.336  0.00  0.00    +0.000 A 
BRANCH  24  25
ATOM     25  S   UNL     1       1.183  12.379  19.960  0.00  0.00    +0.000 S 
ATOM     26  C   UNL     1       2.535  13.383  20.661  0.00  0.00    +0.000 C 
ENDBRANCH  24  25
ENDBRANCH  17  19
ENDBRANCH  14  15
ENDBRANCH   3  14
TORSDOF 7
ENDMDL
MODEL 7
REMARK VINA RESULT:      -6.5      3.424      7.206
REMARK  Name = 
REMARK  10 active torsions:
REMARK  status: ('A' for Active; 'I' for Inactive)
REMARK    1  A    between atoms: C_1  and  C_2
REMARK    2  A    between atoms: C_2  and  O_3
REMARK    3  A    between atoms: O_3  and  C_4
REMARK    4  A    between atoms: C_9  and  C_10
REMARK    5  A    between atoms: N_12  and  C_13
REMARK    6  A    between atoms: N_12  and  C_14
REMARK    7  A    between atoms: C_14  and  C_15
REMARK    8  A    between atoms: N_17  and  C_18
REMARK    9  A    between atoms: C_23  and  S_24
REMARK   10  A    between atoms: S_24  and  C_25
REMARK                            x       y       z     vdW  Elec       q    Type
REMARK                         _______ _______ _______ _____ _____    ______ ____
ROOT
ATOM      1  C   UNL     1      -0.096  11.659  21.612  0.00  0.00    +0.000 C 
ATOM      2  O   UNL     1      -1.038  12.374  21.947  0.00  0.00    +0.000 OA
ATOM      3  N   UNL     1       0.159  10.442  22.314  0.00  0.00    +0.000 N 
ATOM      4  C   UNL     1      -0.802   9.992  23.329  0.00  0.00    +0.000 C 
ENDROOT
BRANCH   1  10
ATOM      5  C   UNL     1       0.667  11.459  19.189  0.00  0.00    +0.000 A 
ATOM      6  N   UNL     1       1.498  11.716  18.132  0.00  0.00    +0.000 NA
ATOM      7  C   UNL     1       2.493  12.598  18.292  0.00  0.00    +0.000 A 
ATOM      8  C   UNL     1       2.649  13.320  19.449  0.00  0.00    +0.000 A 
ATOM      9  C   UNL     1       1.739  13.104  20.487  0.00  0.00    +0.000 A 
ATOM     10  C   UNL     1       0.770  12.089  20.433  0.00  0.00    +0.000 A 
BRANCH   5  11
ATOM     11  O   UNL     1      -0.323  10.537  18.954  0.00  0.00    +0.000 OA
BRANCH  11  13
ATOM     12  C   UNL     1      -2.458  10.082  17.990  0.00  0.00    +0.000 C 
ATOM     13  C   UNL     1      -1.247  10.986  17.961  0.00  0.00    +0.000 C 
ENDBRANCH  11  13
ENDBRANCH   5  11
ENDBRANCH   1  10
BRANCH   3  14
ATOM     14  C   UNL     1       1.232   9.520  21.955  0.00  0.00    +0.000 C 
BRANCH  14  15
ATOM     15  C   UNL     1       0.952   8.202  21.242  0.00  0.00    +0.000 C 
ATOM     16  O   UNL     1      -0.215   7.821  21.061  0.00  0.00    +0.000 OA
ATOM     17  N   UNL     1       2.079   7.482  20.878  0.00  0.00    +0.000 N 
ATOM     18  H   UNL     1       2.891   7.548  21.494  0.00  0.00    +0.000 HD
BRANCH  17  19
ATOM     19  C   UNL     1       1.972   6.292  20.119  0.00  0.00    +0.000 A 
ATOM     20  C   UNL     1       1.487   5.133  20.745  0.00  0.00    +0.000 A 
ATOM     21  C   UNL     1       1.367   3.943  20.031  0.00  0.00    +0.000 A 
ATOM     22  C   UNL     1       1.714   3.907  18.687  0.00  0.00    +0.000 A 
ATOM     23  C   UNL     1       2.182   5.063  18.055  0.00  0.00    +0.000 A 
ATOM     24  C   UNL     1       2.319   6.269  18.760  0.00  0.00    +0.000 A 
BRANCH  24  25
ATOM     25  S   UNL     1       2.944   7.693  17.868  0.00  0.00    +0.000 S 
ATOM     26  C   UNL     1       4.470   7.007  17.144  0.00  0.00    +0.000 C 
ENDBRANCH  24  25
ENDBRANCH  17  19
ENDBRANCH  14  15
ENDBRANCH   3  14
TORSDOF 7
ENDMDL
MODEL 8
REMARK VINA RESULT:      -6.5      1.826      3.235
REMARK  Name = 
REMARK  10 active torsions:
REMARK  status: ('A' for Active; 'I' for Inactive)
REMARK    1  A    between atoms: C_1  and  C_2
REMARK    2  A    between atoms: C_2  and  O_3
REMARK    3  A    between atoms: O_3  and  C_4
REMARK    4  A    between atoms: C_9  and  C_10
REMARK    5  A    between atoms: N_12  and  C_13
REMARK    6  A    between atoms: N_12  and  C_14
REMARK    7  A    between atoms: C_14  and  C_15
REMARK    8  A    between atoms: N_17  and  C_18
REMARK    9  A    between atoms: C_23  and  S_24
REMARK   10  A    between atoms: S_24  and  C_25
REMARK                            x       y       z     vdW  Elec       q    Type
REMARK                         _______ _______ _______ _____ _____    ______ ____
ROOT
ATOM      1  C   UNL     1       3.945   3.813  18.150  0.00  0.00    +0.000 C 
ATOM      2  O   UNL     1       3.686   2.622  18.311  0.00  0.00    +0.000 OA
ATOM      3  N   UNL     1       3.292   4.799  18.950  0.00  0.00    +0.000 N 
ATOM      4  C   UNL     1       2.431   4.360  20.056  0.00  0.00    +0.000 C 
ENDROOT
BRANCH   1  10
ATOM      5  C   UNL     1       6.290   4.540  17.465  0.00  0.00    +0.000 A 
ATOM      6  N   UNL     1       7.227   5.015  16.587  0.00  0.00    +0.000 NA
ATOM      7  C   UNL     1       6.877   5.204  15.309  0.00  0.00    +0.000 A 
ATOM      8  C   UNL     1       5.641   4.850  14.830  0.00  0.00    +0.000 A 
ATOM      9  C   UNL     1       4.725   4.289  15.724  0.00  0.00    +0.000 A 
ATOM     10  C   UNL     1       4.981   4.205  17.102  0.00  0.00    +0.000 A 
BRANCH   5  11
ATOM     11  O   UNL     1       6.717   4.381  18.759  0.00  0.00    +0.000 OA
BRANCH  11  13
ATOM     12  C   UNL     1       8.365   5.425  20.133  0.00  0.00    +0.000 C 
ATOM     13  C   UNL     1       7.082   5.625  19.359  0.00  0.00    +0.000 C 
ENDBRANCH  11  13
ENDBRANCH   5  11
ENDBRANCH   1  10
BRANCH   3  14
ATOM     14  C   UNL     1       3.572   6.227  18.848  0.00  0.00    +0.000 C 
BRANCH  14  15
ATOM     15  C   UNL     1       2.477   7.238  18.528  0.00  0.00    +0.000 C 
ATOM     16  O   UNL     1       1.923   7.234  17.419  0.00  0.00    +0.000 OA
ATOM     17  N   UNL     1       2.208   8.149  19.538  0.00  0.00    +0.000 N 
ATOM     18  H   UNL     1       2.994   8.440  20.122  0.00  0.00    +0.000 HD
BRANCH  17  19
ATOM     19  C   UNL     1       1.146   9.077  19.419  0.00  0.00    +0.000 A 
ATOM     20  C   UNL     1       0.716   9.451  18.137  0.00  0.00    +0.000 A 
ATOM     21  C   UNL     1      -0.326  10.361  17.979  0.00  0.00    +0.000 A 
ATOM     22  C   UNL     1      -0.954  10.892  19.098  0.00  0.00    +0.000 A 
ATOM     23  C   UNL     1      -0.539  10.511  20.378  0.00  0.00    +0.000 A 
ATOM     24  C   UNL     1       0.515   9.602  20.557  0.00  0.00    +0.000 A 
BRANCH  24  25
ATOM     25  S   UNL     1       0.986   9.188  22.237  0.00  0.00    +0.000 S 
ATOM     26  C   UNL     1      -0.454   9.812  23.165  0.00  0.00    +0.000 C 
ENDBRANCH  24  25
ENDBRANCH  17  19
ENDBRANCH  14  15
ENDBRANCH   3  14
TORSDOF 7
ENDMDL
MODEL 9
REMARK VINA RESULT:      -6.4      1.889      3.278
REMARK  Name = 
REMARK  10 active torsions:
REMARK  status: ('A' for Active; 'I' for Inactive)
REMARK    1  A    between atoms: C_1  and  C_2
REMARK    2  A    between atoms: C_2  and  O_3
REMARK    3  A    between atoms: O_3  and  C_4
REMARK    4  A    between atoms: C_9  and  C_10
REMARK    5  A    between atoms: N_12  and  C_13
REMARK    6  A    between atoms: N_12  and  C_14
REMARK    7  A    between atoms: C_14  and  C_15
REMARK    8  A    between atoms: N_17  and  C_18
REMARK    9  A    between atoms: C_23  and  S_24
REMARK   10  A    between atoms: S_24  and  C_25
REMARK                            x       y       z     vdW  Elec       q    Type
REMARK                         _______ _______ _______ _____ _____    ______ ____
ROOT
ATOM      1  C   UNL     1       4.591   3.922  18.695  0.00  0.00    +0.000 C 
ATOM      2  O   UNL     1       4.969   3.143  19.567  0.00  0.00    +0.000 OA
ATOM      3  N   UNL     1       3.386   4.665  18.877  0.00  0.00    +0.000 N 
ATOM      4  C   UNL     1       2.696   4.595  20.172  0.00  0.00    +0.000 C 
ENDROOT
BRANCH   1  10
ATOM      5  C   UNL     1       6.716   4.656  17.494  0.00  0.00    +0.000 A 
ATOM      6  N   UNL     1       7.473   4.941  16.390  0.00  0.00    +0.000 NA
ATOM      7  C   UNL     1       6.964   4.695  15.177  0.00  0.00    +0.000 A 
ATOM      8  C   UNL     1       5.749   4.081  15.006  0.00  0.00    +0.000 A 
ATOM      9  C   UNL     1       5.027   3.721  16.147  0.00  0.00    +0.000 A 
ATOM     10  C   UNL     1       5.440   4.087  17.439  0.00  0.00    +0.000 A 
BRANCH   5  11
ATOM     11  O   UNL     1       7.299   4.944  18.703  0.00  0.00    +0.000 OA
BRANCH  11  13
ATOM     12  C   UNL     1       7.246   7.220  17.987  0.00  0.00    +0.000 C 
ATOM     13  C   UNL     1       8.074   6.143  18.651  0.00  0.00    +0.000 C 
ENDBRANCH  11  13
ENDBRANCH   5  11
ENDBRANCH   1  10
BRANCH   3  14
ATOM     14  C   UNL     1       2.889   5.636  17.908  0.00  0.00    +0.000 C 
BRANCH  14  15
ATOM     15  C   UNL     1       2.921   7.135  18.186  0.00  0.00    +0.000 C 
ATOM     16  O   UNL     1       3.952   7.791  17.976  0.00  0.00    +0.000 OA
ATOM     17  N   UNL     1       1.751   7.656  18.718  0.00  0.00    +0.000 N 
ATOM     18  H   UNL     1       1.213   7.050  19.338  0.00  0.00    +0.000 HD
BRANCH  17  19
ATOM     19  C   UNL     1       1.603   9.048  18.928  0.00  0.00    +0.000 A 
ATOM     20  C   UNL     1       1.989   9.930  17.907  0.00  0.00    +0.000 A 
ATOM     21  C   UNL     1       1.858  11.306  18.075  0.00  0.00    +0.000 A 
ATOM     22  C   UNL     1       1.329  11.809  19.257  0.00  0.00    +0.000 A 
ATOM     23  C   UNL     1       0.928  10.933  20.271  0.00  0.00    +0.000 A 
ATOM     24  C   UNL     1       1.060   9.544  20.123  0.00  0.00    +0.000 A 
BRANCH  24  25
ATOM     25  S   UNL     1       0.535   8.504  21.485  0.00  0.00    +0.000 S 
ATOM     26  C   UNL     1      -0.297   9.725  22.553  0.00  0.00    +0.000 C 
ENDBRANCH  24  25
ENDBRANCH  17  19
ENDBRANCH  14  15
ENDBRANCH   3  14
TORSDOF 7
ENDMDL
