MODEL 1
REMARK VINA RESULT:      -8.6      0.000      0.000
REMARK  Name = 
REMARK  8 active torsions:
REMARK  status: ('A' for Active; 'I' for Inactive)
REMARK    1  A    between atoms: C_1  and  C_2
REMARK    2  A    between atoms: C_5  and  O_6
REMARK    3  A    between atoms: C_8  and  N_9
REMARK    4  A    between atoms: N_9  and  C_10
REMARK    5  A    between atoms: C_17  and  C_18
REMARK    6  A    between atoms: N_20  and  C_21
REMARK    7  A    between atoms: C_21  and  C_22
REMARK    8  A    between atoms: C_21  and  C_23
REMARK                            x       y       z     vdW  Elec       q    Type
REMARK                         _______ _______ _______ _____ _____    ______ ____
ROOT
ATOM      1  C   UNL     1       3.872   3.483  17.808  0.00  0.00    +0.000 A 
ATOM      2  C   UNL     1       3.994   2.090  17.756  0.00  0.00    +0.000 A 
ATOM      3  C   UNL     1       3.223   1.316  18.597  0.00  0.00    +0.000 A 
ATOM      4  N   UNL     1       2.348   1.825  19.484  0.00  0.00    +0.000 NA
ATOM      5  C   UNL     1       2.225   3.155  19.551  0.00  0.00    +0.000 A 
ATOM      6  C   UNL     1       1.369   3.671  20.521  0.00  0.00    +0.000 A 
ATOM      7  C   UNL     1       1.206   5.047  20.709  0.00  0.00    +0.000 A 
ATOM      8  C   UNL     1       1.894   5.935  19.888  0.00  0.00    +0.000 A 
ATOM      9  C   UNL     1       2.734   5.438  18.881  0.00  0.00    +0.000 A 
ATOM     10  C   UNL     1       2.941   4.047  18.717  0.00  0.00    +0.000 A 
ENDROOT
BRANCH   8  11
ATOM     11  C   UNL     1       1.803   7.407  20.054  0.00  0.00    +0.000 C 
ATOM     12  O   UNL     1       2.308   8.145  19.211  0.00  0.00    +0.000 OA
ATOM     13  N   UNL     1       1.201   7.860  21.210  0.00  0.00    +0.000 N 
ATOM     14  H   UNL     1       0.819   7.196  21.871  0.00  0.00    +0.000 HD
BRANCH  13  15
ATOM     15  C   UNL     1       1.136   9.277  21.540  0.00  0.00    +0.000 C 
ATOM     16  C   UNL     1       0.284  10.031  20.522  0.00  0.00    +0.000 C 
ATOM     17  C   UNL     1       0.588   9.469  22.952  0.00  0.00    +0.000 C 
ENDBRANCH  13  15
ENDBRANCH   8  11
BRANCH   1  18
ATOM     18  N   UNL     1       4.776   4.281  17.055  0.00  0.00    +0.000 N 
ATOM     19  H   UNL     1       4.769   4.128  16.056  0.00  0.00    +0.000 HD
BRANCH  18  26
ATOM     20  C   UNL     1       5.304   6.862  15.637  0.00  0.00    +0.000 C 
ATOM     21  C   UNL     1       6.046   6.396  16.859  0.00  0.00    +0.000 A 
ATOM     22  C   UNL     1       7.139   7.174  17.300  0.00  0.00    +0.000 A 
ATOM     23  C   UNL     1       7.854   6.836  18.450  0.00  0.00    +0.000 A 
ATOM     24  C   UNL     1       7.463   5.729  19.180  0.00  0.00    +0.000 A 
ATOM     25  C   UNL     1       6.412   4.933  18.745  0.00  0.00    +0.000 A 
ATOM     26  C   UNL     1       5.709   5.219  17.558  0.00  0.00    +0.000 A 
BRANCH  24  27
ATOM     27  O   UNL     1       8.097   5.365  20.331  0.00  0.00    +0.000 OA
ATOM     28  H   UNL     1       8.545   6.143  20.698  0.00  0.00    +0.000 HD
ENDBRANCH  24  27
ENDBRANCH  18  26
ENDBRANCH   1  18
TORSDOF 5
ENDMDL
MODEL 2
REMARK VINA RESULT:      -8.5      1.114      1.349
REMARK  Name = 
REMARK  8 active torsions:
REMARK  status: ('A' for Active; 'I' for Inactive)
REMARK    1  A    between atoms: C_1  and  C_2
REMARK    2  A    between atoms: C_5  and  O_6
REMARK    3  A    between atoms: C_8  and  N_9
REMARK    4  A    between atoms: N_9  and  C_10
REMARK    5  A    between atoms: C_17  and  C_18
REMARK    6  A    between atoms: N_20  and  C_21
REMARK    7  A    between atoms: C_21  and  C_22
REMARK    8  A    between atoms: C_21  and  C_23
REMARK                            x       y       z     vdW  Elec       q    Type
REMARK                         _______ _______ _______ _____ _____    ______ ____
ROOT
ATOM      1  C   UNL     1       3.738   3.676  17.882  0.00  0.00    +0.000 A 
ATOM      2  C   UNL     1       3.845   2.281  17.837  0.00  0.00    +0.000 A 
ATOM      3  C   UNL     1       3.082   1.520  18.697  0.00  0.00    +0.000 A 
ATOM      4  N   UNL     1       2.231   2.044  19.598  0.00  0.00    +0.000 NA
ATOM      5  C   UNL     1       2.124   3.376  19.660  0.00  0.00    +0.000 A 
ATOM      6  C   UNL     1       1.293   3.907  20.643  0.00  0.00    +0.000 A 
ATOM      7  C   UNL     1       1.148   5.286  20.825  0.00  0.00    +0.000 A 
ATOM      8  C   UNL     1       1.829   6.161  19.985  0.00  0.00    +0.000 A 
ATOM      9  C   UNL     1       2.643   5.650  18.965  0.00  0.00    +0.000 A 
ATOM     10  C   UNL     1       2.831   4.255  18.806  0.00  0.00    +0.000 A 
ENDROOT
BRANCH   8  11
ATOM     11  C   UNL     1       1.756   7.635  20.143  0.00  0.00    +0.000 C 
ATOM     12  O   UNL     1       1.751   8.125  21.270  0.00  0.00    +0.000 OA
ATOM     13  N   UNL     1       1.626   8.372  18.984  0.00  0.00    +0.000 N 
ATOM     14  H   UNL     1       1.621   7.903  18.088  0.00  0.00    +0.000 HD
BRANCH  13  15
ATOM     15  C   UNL     1       1.445   9.818  19.007  0.00  0.00    +0.000 C 
ATOM     16  C   UNL     1       2.199  10.475  17.855  0.00  0.00    +0.000 C 
ATOM     17  C   UNL     1      -0.040  10.168  18.952  0.00  0.00    +0.000 C 
ENDBRANCH  13  15
ENDBRANCH   8  11
BRANCH   1  18
ATOM     18  N   UNL     1       4.636   4.459  17.106  0.00  0.00    +0.000 N 
ATOM     19  H   UNL     1       4.573   4.335  16.105  0.00  0.00    +0.000 HD
BRANCH  18  26
ATOM     20  C   UNL     1       5.314   6.977  15.639  0.00  0.00    +0.000 C 
ATOM     21  C   UNL     1       6.034   6.487  16.865  0.00  0.00    +0.000 A 
ATOM     22  C   UNL     1       7.177   7.202  17.284  0.00  0.00    +0.000 A 
ATOM     23  C   UNL     1       7.878   6.839  18.435  0.00  0.00    +0.000 A 
ATOM     24  C   UNL     1       7.424   5.772  19.187  0.00  0.00    +0.000 A 
ATOM     25  C   UNL     1       6.322   5.036  18.774  0.00  0.00    +0.000 A 
ATOM     26  C   UNL     1       5.630   5.346  17.586  0.00  0.00    +0.000 A 
BRANCH  24  27
ATOM     27  O   UNL     1       8.043   5.389  20.340  0.00  0.00    +0.000 OA
ATOM     28  H   UNL     1       8.742   4.752  20.122  0.00  0.00    +0.000 HD
ENDBRANCH  24  27
ENDBRANCH  18  26
ENDBRANCH   1  18
TORSDOF 5
ENDMDL
MODEL 3
REMARK VINA RESULT:      -8.2      2.336      6.606
REMARK  Name = 
REMARK  8 active torsions:
REMARK  status: ('A' for Active; 'I' for Inactive)
REMARK    1  A    between atoms: C_1  and  C_2
REMARK    2  A    between atoms: C_5  and  O_6
REMARK    3  A    between atoms: C_8  and  N_9
REMARK    4  A    between atoms: N_9  and  C_10
REMARK    5  A    between atoms: C_17  and  C_18
REMARK    6  A    between atoms: N_20  and  C_21
REMARK    7  A    between atoms: C_21  and  C_22
REMARK    8  A    between atoms: C_21  and  C_23
REMARK                            x       y       z     vdW  Elec       q    Type
REMARK                         _______ _______ _______ _____ _____    ______ ____
ROOT
ATOM      1  C   UNL     1       2.563   5.457  20.148  0.00  0.00    +0.000 A 
ATOM      2  C   UNL     1       1.763   4.853  21.125  0.00  0.00    +0.000 A 
ATOM      3  C   UNL     1       1.495   3.504  21.034  0.00  0.00    +0.000 A 
ATOM      4  N   UNL     1       1.957   2.718  20.044  0.00  0.00    +0.000 NA
ATOM      5  C   UNL     1       2.716   3.282  19.098  0.00  0.00    +0.000 A 
ATOM      6  C   UNL     1       3.130   2.474  18.042  0.00  0.00    +0.000 A 
ATOM      7  C   UNL     1       3.884   2.975  16.977  0.00  0.00    +0.000 A 
ATOM      8  C   UNL     1       4.262   4.314  16.978  0.00  0.00    +0.000 A 
ATOM      9  C   UNL     1       3.888   5.139  18.048  0.00  0.00    +0.000 A 
ATOM     10  C   UNL     1       3.083   4.649  19.105  0.00  0.00    +0.000 A 
ENDROOT
BRANCH   8  11
ATOM     11  C   UNL     1       5.028   4.926  15.863  0.00  0.00    +0.000 C 
ATOM     12  O   UNL     1       5.148   6.148  15.809  0.00  0.00    +0.000 OA
ATOM     13  N   UNL     1       5.507   4.064  14.899  0.00  0.00    +0.000 N 
ATOM     14  H   UNL     1       5.359   3.067  14.998  0.00  0.00    +0.000 HD
BRANCH  13  15
ATOM     15  C   UNL     1       6.188   4.545  13.705  0.00  0.00    +0.000 C 
ATOM     16  C   UNL     1       7.636   4.912  14.018  0.00  0.00    +0.000 C 
ATOM     17  C   UNL     1       6.123   3.496  12.597  0.00  0.00    +0.000 C 
ENDBRANCH  13  15
ENDBRANCH   8  11
BRANCH   1  18
ATOM     18  N   UNL     1       2.708   6.872  20.158  0.00  0.00    +0.000 N 
ATOM     19  H   UNL     1       3.659   7.214  20.157  0.00  0.00    +0.000 HD
BRANCH  18  26
ATOM     20  C   UNL     1       2.106   8.651  17.830  0.00  0.00    +0.000 C 
ATOM     21  C   UNL     1       1.434   8.750  19.172  0.00  0.00    +0.000 A 
ATOM     22  C   UNL     1       0.543   9.825  19.383  0.00  0.00    +0.000 A 
ATOM     23  C   UNL     1      -0.154   9.965  20.584  0.00  0.00    +0.000 A 
ATOM     24  C   UNL     1       0.020   9.015  21.573  0.00  0.00    +0.000 A 
ATOM     25  C   UNL     1       0.916   7.970  21.398  0.00  0.00    +0.000 A 
ATOM     26  C   UNL     1       1.674   7.836  20.218  0.00  0.00    +0.000 A 
BRANCH  24  27
ATOM     27  O   UNL     1      -0.657   9.076  22.755  0.00  0.00    +0.000 OA
ATOM     28  H   UNL     1      -0.040   8.877  23.478  0.00  0.00    +0.000 HD
ENDBRANCH  24  27
ENDBRANCH  18  26
ENDBRANCH   1  18
TORSDOF 5
ENDMDL
MODEL 4
REMARK VINA RESULT:      -7.9      3.972      7.718
REMARK  Name = 
REMARK  8 active torsions:
REMARK  status: ('A' for Active; 'I' for Inactive)
REMARK    1  A    between atoms: C_1  and  C_2
REMARK    2  A    between atoms: C_5  and  O_6
REMARK    3  A    between atoms: C_8  and  N_9
REMARK    4  A    between atoms: N_9  and  C_10
REMARK    5  A    between atoms: C_17  and  C_18
REMARK    6  A    between atoms: N_20  and  C_21
REMARK    7  A    between atoms: C_21  and  C_22
REMARK    8  A    between atoms: C_21  and  C_23
REMARK                            x       y       z     vdW  Elec       q    Type
REMARK                         _______ _______ _______ _____ _____    ______ ____
ROOT
ATOM      1  C   UNL     1       5.224   4.089  17.205  0.00  0.00    +0.000 A 
ATOM      2  C   UNL     1       5.852   4.688  18.303  0.00  0.00    +0.000 A 
ATOM      3  C   UNL     1       6.975   5.461  18.097  0.00  0.00    +0.000 A 
ATOM      4  N   UNL     1       7.519   5.674  16.885  0.00  0.00    +0.000 NA
ATOM      5  C   UNL     1       6.936   5.103  15.826  0.00  0.00    +0.000 A 
ATOM      6  C   UNL     1       7.548   5.273  14.587  0.00  0.00    +0.000 A 
ATOM      7  C   UNL     1       7.049   4.677  13.425  0.00  0.00    +0.000 A 
ATOM      8  C   UNL     1       5.889   3.912  13.494  0.00  0.00    +0.000 A 
ATOM      9  C   UNL     1       5.235   3.755  14.724  0.00  0.00    +0.000 A 
ATOM     10  C   UNL     1       5.762   4.316  15.912  0.00  0.00    +0.000 A 
ENDROOT
BRANCH   8  11
ATOM     11  C   UNL     1       5.322   3.216  12.311  0.00  0.00    +0.000 C 
ATOM     12  O   UNL     1       5.883   2.217  11.869  0.00  0.00    +0.000 OA
ATOM     13  N   UNL     1       4.212   3.795  11.731  0.00  0.00    +0.000 N 
ATOM     14  H   UNL     1       3.809   4.628  12.138  0.00  0.00    +0.000 HD
BRANCH  13  15
ATOM     15  C   UNL     1       3.619   3.268  10.509  0.00  0.00    +0.000 C 
ATOM     16  C   UNL     1       2.574   2.203  10.831  0.00  0.00    +0.000 C 
ATOM     17  C   UNL     1       3.005   4.398   9.687  0.00  0.00    +0.000 C 
ENDBRANCH  13  15
ENDBRANCH   8  11
BRANCH   1  18
ATOM     18  N   UNL     1       4.164   3.170  17.436  0.00  0.00    +0.000 N 
ATOM     19  H   UNL     1       4.021   2.476  16.715  0.00  0.00    +0.000 HD
BRANCH  18  26
ATOM     20  C   UNL     1       1.476   4.471  17.260  0.00  0.00    +0.000 C 
ATOM     21  C   UNL     1       2.038   3.845  18.507  0.00  0.00    +0.000 A 
ATOM     22  C   UNL     1       1.296   3.980  19.701  0.00  0.00    +0.000 A 
ATOM     23  C   UNL     1       1.725   3.393  20.892  0.00  0.00    +0.000 A 
ATOM     24  C   UNL     1       2.889   2.646  20.889  0.00  0.00    +0.000 A 
ATOM     25  C   UNL     1       3.649   2.529  19.734  0.00  0.00    +0.000 A 
ATOM     26  C   UNL     1       3.268   3.158  18.532  0.00  0.00    +0.000 A 
BRANCH  24  27
ATOM     27  O   UNL     1       3.344   2.019  22.011  0.00  0.00    +0.000 OA
ATOM     28  H   UNL     1       2.730   2.201  22.741  0.00  0.00    +0.000 HD
ENDBRANCH  24  27
ENDBRANCH  18  26
ENDBRANCH   1  18
TORSDOF 5
ENDMDL
MODEL 5
REMARK VINA RESULT:      -7.9      2.220      4.473
REMARK  Name = 
REMARK  8 active torsions:
REMARK  status: ('A' for Active; 'I' for Inactive)
REMARK    1  A    between atoms: C_1  and  C_2
REMARK    2  A    between atoms: C_5  and  O_6
REMARK    3  A    between atoms: C_8  and  N_9
REMARK    4  A    between atoms: N_9  and  C_10
REMARK    5  A    between atoms: C_17  and  C_18
REMARK    6  A    between atoms: N_20  and  C_21
REMARK    7  A    between atoms: C_21  and  C_22
REMARK    8  A    between atoms: C_21  and  C_23
REMARK                            x       y       z     vdW  Elec       q    Type
REMARK                         _______ _______ _______ _____ _____    ______ ____
ROOT
ATOM      1  C   UNL     1       5.199   4.342  17.648  0.00  0.00    +0.000 A 
ATOM      2  C   UNL     1       6.017   4.157  16.528  0.00  0.00    +0.000 A 
ATOM      3  C   UNL     1       6.125   5.170  15.599  0.00  0.00    +0.000 A 
ATOM      4  N   UNL     1       5.476   6.345  15.700  0.00  0.00    +0.000 NA
ATOM      5  C   UNL     1       4.684   6.535  16.761  0.00  0.00    +0.000 A 
ATOM      6  C   UNL     1       3.964   7.725  16.819  0.00  0.00    +0.000 A 
ATOM      7  C   UNL     1       3.070   8.002  17.858  0.00  0.00    +0.000 A 
ATOM      8  C   UNL     1       2.910   7.077  18.884  0.00  0.00    +0.000 A 
ATOM      9  C   UNL     1       3.650   5.887  18.867  0.00  0.00    +0.000 A 
ATOM     10  C   UNL     1       4.521   5.580  17.793  0.00  0.00    +0.000 A 
ENDROOT
BRANCH   8  11
ATOM     11  C   UNL     1       1.950   7.282  19.999  0.00  0.00    +0.000 C 
ATOM     12  O   UNL     1       1.599   6.323  20.680  0.00  0.00    +0.000 OA
ATOM     13  N   UNL     1       1.451   8.559  20.153  0.00  0.00    +0.000 N 
ATOM     14  H   UNL     1       1.773   9.302  19.546  0.00  0.00    +0.000 HD
BRANCH  13  15
ATOM     15  C   UNL     1       0.430   8.872  21.144  0.00  0.00    +0.000 C 
ATOM     16  C   UNL     1       1.068   9.239  22.481  0.00  0.00    +0.000 C 
ATOM     17  C   UNL     1      -0.466  10.002  20.643  0.00  0.00    +0.000 C 
ENDBRANCH  13  15
ENDBRANCH   8  11
BRANCH   1  18
ATOM     18  N   UNL     1       4.967   3.243  18.519  0.00  0.00    +0.000 N 
ATOM     19  H   UNL     1       5.766   2.650  18.698  0.00  0.00    +0.000 HD
BRANCH  18  26
ATOM     20  C   UNL     1       2.701   2.187  16.876  0.00  0.00    +0.000 C 
ATOM     21  C   UNL     1       2.626   2.461  18.353  0.00  0.00    +0.000 A 
ATOM     22  C   UNL     1       1.370   2.318  18.983  0.00  0.00    +0.000 A 
ATOM     23  C   UNL     1       1.222   2.511  20.357  0.00  0.00    +0.000 A 
ATOM     24  C   UNL     1       2.336   2.825  21.113  0.00  0.00    +0.000 A 
ATOM     25  C   UNL     1       3.572   3.003  20.507  0.00  0.00    +0.000 A 
ATOM     26  C   UNL     1       3.739   2.869  19.114  0.00  0.00    +0.000 A 
BRANCH  24  27
ATOM     27  O   UNL     1       2.264   2.993  22.464  0.00  0.00    +0.000 OA
ATOM     28  H   UNL     1       1.352   3.222  22.702  0.00  0.00    +0.000 HD
ENDBRANCH  24  27
ENDBRANCH  18  26
ENDBRANCH   1  18
TORSDOF 5
ENDMDL
MODEL 6
REMARK VINA RESULT:      -7.7      1.814      5.939
REMARK  Name = 
REMARK  8 active torsions:
REMARK  status: ('A' for Active; 'I' for Inactive)
REMARK    1  A    between atoms: C_1  and  C_2
REMARK    2  A    between atoms: C_5  and  O_6
REMARK    3  A    between atoms: C_8  and  N_9
REMARK    4  A    between atoms: N_9  and  C_10
REMARK    5  A    between atoms: C_17  and  C_18
REMARK    6  A    between atoms: N_20  and  C_21
REMARK    7  A    between atoms: C_21  and  C_22
REMARK    8  A    between atoms: C_21  and  C_23
REMARK                            x       y       z     vdW  Elec       q    Type
REMARK                         _______ _______ _______ _____ _____    ______ ____
ROOT
ATOM      1  C   UNL     1       2.051   5.009  20.145  0.00  0.00    +0.000 A 
ATOM      2  C   UNL     1       0.825   4.381  20.391  0.00  0.00    +0.000 A 
ATOM      3  C   UNL     1       0.508   3.232  19.699  0.00  0.00    +0.000 A 
ATOM      4  N   UNL     1       1.315   2.668  18.781  0.00  0.00    +0.000 NA
ATOM      5  C   UNL     1       2.487   3.261  18.528  0.00  0.00    +0.000 A 
ATOM      6  C   UNL     1       3.282   2.709  17.527  0.00  0.00    +0.000 A 
ATOM      7  C   UNL     1       4.501   3.278  17.150  0.00  0.00    +0.000 A 
ATOM      8  C   UNL     1       4.957   4.415  17.810  0.00  0.00    +0.000 A 
ATOM      9  C   UNL     1       4.191   4.969  18.845  0.00  0.00    +0.000 A 
ATOM     10  C   UNL     1       2.932   4.425  19.199  0.00  0.00    +0.000 A 
ENDROOT
BRANCH   8  11
ATOM     11  C   UNL     1       6.221   5.099  17.438  0.00  0.00    +0.000 C 
ATOM     12  O   UNL     1       7.037   4.520  16.726  0.00  0.00    +0.000 OA
ATOM     13  N   UNL     1       6.431   6.346  17.990  0.00  0.00    +0.000 N 
ATOM     14  H   UNL     1       5.723   6.759  18.583  0.00  0.00    +0.000 HD
BRANCH  13  15
ATOM     15  C   UNL     1       7.673   7.079  17.786  0.00  0.00    +0.000 C 
ATOM     16  C   UNL     1       7.388   8.521  17.373  0.00  0.00    +0.000 C 
ATOM     17  C   UNL     1       8.528   7.037  19.050  0.00  0.00    +0.000 C 
ENDBRANCH  13  15
ENDBRANCH   8  11
BRANCH   1  18
ATOM     18  N   UNL     1       2.308   6.274  20.741  0.00  0.00    +0.000 N 
ATOM     19  H   UNL     1       3.139   6.327  21.314  0.00  0.00    +0.000 HD
BRANCH  18  26
ATOM     20  C   UNL     1       2.371   8.040  18.328  0.00  0.00    +0.000 C 
ATOM     21  C   UNL     1       1.586   8.334  19.577  0.00  0.00    +0.000 A 
ATOM     22  C   UNL     1       0.927   9.580  19.659  0.00  0.00    +0.000 A 
ATOM     23  C   UNL     1       0.143   9.915  20.764  0.00  0.00    +0.000 A 
ATOM     24  C   UNL     1      -0.004   8.993  21.784  0.00  0.00    +0.000 A 
ATOM     25  C   UNL     1       0.662   7.777  21.736  0.00  0.00    +0.000 A 
ATOM     26  C   UNL     1       1.504   7.436  20.659  0.00  0.00    +0.000 A 
BRANCH  24  27
ATOM     27  O   UNL     1      -0.784   9.245  22.874  0.00  0.00    +0.000 OA
ATOM     28  H   UNL     1      -1.208   8.418  23.151  0.00  0.00    +0.000 HD
ENDBRANCH  24  27
ENDBRANCH  18  26
ENDBRANCH   1  18
TORSDOF 5
ENDMDL
MODEL 7
REMARK VINA RESULT:      -7.7      2.025      6.017
REMARK  Name = 
REMARK  8 active torsions:
REMARK  status: ('A' for Active; 'I' for Inactive)
REMARK    1  A    between atoms: C_1  and  C_2
REMARK    2  A    between atoms: C_5  and  O_6
REMARK    3  A    between atoms: C_8  and  N_9
REMARK    4  A    between atoms: N_9  and  C_10
REMARK    5  A    between atoms: C_17  and  C_18
REMARK    6  A    between atoms: N_20  and  C_21
REMARK    7  A    between atoms: C_21  and  C_22
REMARK    8  A    between atoms: C_21  and  C_23
REMARK                            x       y       z     vdW  Elec       q    Type
REMARK                         _______ _______ _______ _____ _____    ______ ____
ROOT
ATOM      1  C   UNL     1       2.546   5.485  19.548  0.00  0.00    +0.000 A 
ATOM      2  C   UNL     1       1.414   4.678  19.705  0.00  0.00    +0.000 A 
ATOM      3  C   UNL     1       1.259   3.573  18.895  0.00  0.00    +0.000 A 
ATOM      4  N   UNL     1       2.140   3.219  17.941  0.00  0.00    +0.000 NA
ATOM      5  C   UNL     1       3.223   3.985  17.773  0.00  0.00    +0.000 A 
ATOM      6  C   UNL     1       4.091   3.648  16.738  0.00  0.00    +0.000 A 
ATOM      7  C   UNL     1       5.226   4.410  16.444  0.00  0.00    +0.000 A 
ATOM      8  C   UNL     1       5.520   5.524  17.223  0.00  0.00    +0.000 A 
ATOM      9  C   UNL     1       4.681   5.862  18.294  0.00  0.00    +0.000 A 
ATOM     10  C   UNL     1       3.504   5.123  18.566  0.00  0.00    +0.000 A 
ENDROOT
BRANCH   8  11
ATOM     11  C   UNL     1       6.684   6.404  16.948  0.00  0.00    +0.000 C 
ATOM     12  O   UNL     1       7.458   6.119  16.038  0.00  0.00    +0.000 OA
ATOM     13  N   UNL     1       6.861   7.475  17.800  0.00  0.00    +0.000 N 
ATOM     14  H   UNL     1       6.192   7.644  18.541  0.00  0.00    +0.000 HD
BRANCH  13  15
ATOM     15  C   UNL     1       8.017   8.356  17.700  0.00  0.00    +0.000 C 
ATOM     16  C   UNL     1       7.582   9.785  17.386  0.00  0.00    +0.000 C 
ATOM     17  C   UNL     1       8.833   8.309  18.990  0.00  0.00    +0.000 C 
ENDBRANCH  13  15
ENDBRANCH   8  11
BRANCH   1  18
ATOM     18  N   UNL     1       2.627   6.705  20.274  0.00  0.00    +0.000 N 
ATOM     19  H   UNL     1       3.459   6.827  20.835  0.00  0.00    +0.000 HD
BRANCH  18  26
ATOM     20  C   UNL     1       2.228   8.597  17.991  0.00  0.00    +0.000 C 
ATOM     21  C   UNL     1       1.512   8.693  19.311  0.00  0.00    +0.000 A 
ATOM     22  C   UNL     1       0.682   9.815  19.527  0.00  0.00    +0.000 A 
ATOM     23  C   UNL     1      -0.051   9.958  20.706  0.00  0.00    +0.000 A 
ATOM     24  C   UNL     1       0.025   8.966  21.666  0.00  0.00    +0.000 A 
ATOM     25  C   UNL     1       0.860   7.873  21.486  0.00  0.00    +0.000 A 
ATOM     26  C   UNL     1       1.654   7.731  20.330  0.00  0.00    +0.000 A 
BRANCH  24  27
ATOM     27  O   UNL     1      -0.692   9.030  22.824  0.00  0.00    +0.000 OA
ATOM     28  H   UNL     1      -0.766   9.959  23.094  0.00  0.00    +0.000 HD
ENDBRANCH  24  27
ENDBRANCH  18  26
ENDBRANCH   1  18
TORSDOF 5
ENDMDL
MODEL 8
REMARK VINA RESULT:      -7.7      3.920      8.013
REMARK  Name = 
REMARK  8 active torsions:
REMARK  status: ('A' for Active; 'I' for Inactive)
REMARK    1  A    between atoms: C_1  and  C_2
REMARK    2  A    between atoms: C_5  and  O_6
REMARK    3  A    between atoms: C_8  and  N_9
REMARK    4  A    between atoms: N_9  and  C_10
REMARK    5  A    between atoms: C_17  and  C_18
REMARK    6  A    between atoms: N_20  and  C_21
REMARK    7  A    between atoms: C_21  and  C_22
REMARK    8  A    between atoms: C_21  and  C_23
REMARK                            x       y       z     vdW  Elec       q    Type
REMARK                         _______ _______ _______ _____ _____    ______ ____
ROOT
ATOM      1  C   UNL     1       5.274   4.178  17.732  0.00  0.00    +0.000 A 
ATOM      2  C   UNL     1       5.793   4.810  18.867  0.00  0.00    +0.000 A 
ATOM      3  C   UNL     1       6.858   5.674  18.728  0.00  0.00    +0.000 A 
ATOM      4  N   UNL     1       7.445   5.948  17.549  0.00  0.00    +0.000 NA
ATOM      5  C   UNL     1       6.966   5.346  16.455  0.00  0.00    +0.000 A 
ATOM      6  C   UNL     1       7.626   5.583  15.251  0.00  0.00    +0.000 A 
ATOM      7  C   UNL     1       7.238   4.965  14.059  0.00  0.00    +0.000 A 
ATOM      8  C   UNL     1       6.143   4.107  14.059  0.00  0.00    +0.000 A 
ATOM      9  C   UNL     1       5.440   3.881  15.251  0.00  0.00    +0.000 A 
ATOM     10  C   UNL     1       5.858   4.466  16.471  0.00  0.00    +0.000 A 
ENDROOT
BRANCH   8  11
ATOM     11  C   UNL     1       5.697   3.384  12.842  0.00  0.00    +0.000 C 
ATOM     12  O   UNL     1       4.528   3.476  12.476  0.00  0.00    +0.000 OA
ATOM     13  N   UNL     1       6.634   2.579  12.226  0.00  0.00    +0.000 N 
ATOM     14  H   UNL     1       7.577   2.537  12.590  0.00  0.00    +0.000 HD
BRANCH  13  15
ATOM     15  C   UNL     1       6.297   1.741  11.083  0.00  0.00    +0.000 C 
ATOM     16  C   UNL     1       7.383   1.823  10.015  0.00  0.00    +0.000 C 
ATOM     17  C   UNL     1       6.083   0.297  11.529  0.00  0.00    +0.000 C 
ENDBRANCH  13  15
ENDBRANCH   8  11
BRANCH   1  18
ATOM     18  N   UNL     1       4.282   3.173  17.897  0.00  0.00    +0.000 N 
ATOM     19  H   UNL     1       4.320   2.407  17.239  0.00  0.00    +0.000 HD
BRANCH  18  26
ATOM     20  C   UNL     1       1.640   4.446  17.305  0.00  0.00    +0.000 C 
ATOM     21  C   UNL     1       2.012   3.833  18.627  0.00  0.00    +0.000 A 
ATOM     22  C   UNL     1       1.096   3.969  19.694  0.00  0.00    +0.000 A 
ATOM     23  C   UNL     1       1.344   3.394  20.941  0.00  0.00    +0.000 A 
ATOM     24  C   UNL     1       2.501   2.659  21.121  0.00  0.00    +0.000 A 
ATOM     25  C   UNL     1       3.428   2.542  20.095  0.00  0.00    +0.000 A 
ATOM     26  C   UNL     1       3.230   3.159  18.844  0.00  0.00    +0.000 A 
BRANCH  24  27
ATOM     27  O   UNL     1       2.785   2.043  22.304  0.00  0.00    +0.000 OA
ATOM     28  H   UNL     1       3.705   2.238  22.543  0.00  0.00    +0.000 HD
ENDBRANCH  24  27
ENDBRANCH  18  26
ENDBRANCH   1  18
TORSDOF 5
ENDMDL
MODEL 9
REMARK VINA RESULT:      -7.7      2.177      6.273
REMARK  Name = 
REMARK  8 active torsions:
REMARK  status: ('A' for Active; 'I' for Inactive)
REMARK    1  A    between atoms: C_1  and  C_2
REMARK    2  A    between atoms: C_5  and  O_6
REMARK    3  A    between atoms: C_8  and  N_9
REMARK    4  A    between atoms: N_9  and  C_10
REMARK    5  A    between atoms: C_17  and  C_18
REMARK    6  A    between atoms: N_20  and  C_21
REMARK    7  A    between atoms: C_21  and  C_22
REMARK    8  A    between atoms: C_21  and  C_23
REMARK                            x       y       z     vdW  Elec       q    Type
REMARK                         _______ _______ _______ _____ _____    ______ ____
ROOT
ATOM      1  C   UNL     1       2.535   5.058  20.070  0.00  0.00    +0.000 A 
ATOM      2  C   UNL     1       1.423   4.673  20.827  0.00  0.00    +0.000 A 
ATOM      3  C   UNL     1       0.920   3.397  20.681  0.00  0.00    +0.000 A 
ATOM      4  N   UNL     1       1.436   2.485  19.837  0.00  0.00    +0.000 NA
ATOM      5  C   UNL     1       2.495   2.841  19.101  0.00  0.00    +0.000 A 
ATOM      6  C   UNL     1       2.977   1.913  18.181  0.00  0.00    +0.000 A 
ATOM      7  C   UNL     1       4.046   2.201  17.328  0.00  0.00    +0.000 A 
ATOM      8  C   UNL     1       4.672   3.440  17.413  0.00  0.00    +0.000 A 
ATOM      9  C   UNL     1       4.228   4.378  18.355  0.00  0.00    +0.000 A 
ATOM     10  C   UNL     1       3.115   4.110  19.189  0.00  0.00    +0.000 A 
ENDROOT
BRANCH   8  11
ATOM     11  C   UNL     1       5.786   3.833  16.513  0.00  0.00    +0.000 C 
ATOM     12  O   UNL     1       6.771   4.400  16.980  0.00  0.00    +0.000 OA
ATOM     13  N   UNL     1       5.604   3.592  15.167  0.00  0.00    +0.000 N 
ATOM     14  H   UNL     1       4.760   3.135  14.848  0.00  0.00    +0.000 HD
BRANCH  13  15
ATOM     15  C   UNL     1       6.577   4.019  14.170  0.00  0.00    +0.000 C 
ATOM     16  C   UNL     1       6.127   3.617  12.768  0.00  0.00    +0.000 C 
ATOM     17  C   UNL     1       6.797   5.527  14.256  0.00  0.00    +0.000 C 
ENDBRANCH  13  15
ENDBRANCH   8  11
BRANCH   1  18
ATOM     18  N   UNL     1       2.954   6.416  20.106  0.00  0.00    +0.000 N 
ATOM     19  H   UNL     1       3.849   6.587  20.544  0.00  0.00    +0.000 HD
BRANCH  18  26
ATOM     20  C   UNL     1       3.298   7.446  17.319  0.00  0.00    +0.000 C 
ATOM     21  C   UNL     1       2.449   8.106  18.371  0.00  0.00    +0.000 A 
ATOM     22  C   UNL     1       1.867   9.354  18.057  0.00  0.00    +0.000 A 
ATOM     23  C   UNL     1       1.032  10.013  18.960  0.00  0.00    +0.000 A 
ATOM     24  C   UNL     1       0.755   9.414  20.175  0.00  0.00    +0.000 A 
ATOM     25  C   UNL     1       1.343   8.204  20.515  0.00  0.00    +0.000 A 
ATOM     26  C   UNL     1       2.234   7.544  19.645  0.00  0.00    +0.000 A 
BRANCH  24  27
ATOM     27  O   UNL     1      -0.081   9.989  21.086  0.00  0.00    +0.000 OA
ATOM     28  H   UNL     1      -0.877  10.300  20.627  0.00  0.00    +0.000 HD
ENDBRANCH  24  27
ENDBRANCH  18  26
ENDBRANCH   1  18
TORSDOF 5
ENDMDL
