MODEL 1
REMARK VINA RESULT:      -7.8      0.000      0.000
REMARK  Name = 
REMARK  11 active torsions:
REMARK  status: ('A' for Active; 'I' for Inactive)
REMARK    1  A    between atoms: C_1  and  O_2
REMARK    2  A    between atoms: O_2  and  C_3
REMARK    3  A    between atoms: C_11  and  O_12
REMARK    4  A    between atoms: O_12  and  C_13
REMARK    5  A    between atoms: C_14  and  O_15
REMARK    6  A    between atoms: O_15  and  C_16
REMARK    7  A    between atoms: C_20  and  O_21
REMARK    8  A    between atoms: O_21  and  C_22
REMARK    9  A    between atoms: N_25  and  C_26
REMARK   10  A    between atoms: C_26  and  C_27
REMARK   11  A    between atoms: C_27  and  N_28
REMARK                            x       y       z     vdW  Elec       q    Type
REMARK                         _______ _______ _______ _____ _____    ______ ____
ROOT
ATOM      1  C   UNL     1      -3.522  10.696  16.133  0.00  0.00    +0.000 A 
ATOM      2  C   UNL     1      -2.291  10.217  16.595  0.00  0.00    +0.000 A 
ATOM      3  C   UNL     1      -1.837  10.478  17.891  0.00  0.00    +0.000 A 
ATOM      4  C   UNL     1      -0.663   9.844  18.308  0.00  0.00    +0.000 A 
ATOM      5  C   UNL     1      -0.238  10.097  19.593  0.00  0.00    +0.000 A 
ATOM      6  C   UNL     1      -0.948  10.920  20.438  0.00  0.00    +0.000 A 
ATOM      7  C   UNL     1      -0.322  10.919  21.674  0.00  0.00    +0.000 A 
ATOM      8  C   UNL     1      -0.880  11.645  22.733  0.00  0.00    +0.000 A 
ATOM      9  C   UNL     1      -2.066  12.365  22.476  0.00  0.00    +0.000 A 
ATOM     10  C   UNL     1      -2.677  12.335  21.190  0.00  0.00    +0.000 A 
ATOM     11  C   UNL     1      -2.106  11.562  20.118  0.00  0.00    +0.000 A 
ATOM     12  C   UNL     1      -2.573  11.335  18.759  0.00  0.00    +0.000 A 
ATOM     13  C   UNL     1      -3.753  11.884  18.218  0.00  0.00    +0.000 A 
ATOM     14  C   UNL     1      -4.243  11.573  16.940  0.00  0.00    +0.000 A 
ATOM     15  C   UNL     1       0.860  10.064  21.630  0.00  0.00    +0.000 C 
ATOM     16  O   UNL     1       1.655   9.753  22.502  0.00  0.00    +0.000 OA
ATOM     17  N   UNL     1       0.866   9.601  20.286  0.00  0.00    +0.000 N 
ENDROOT
BRANCH   1  19
ATOM     18  C   UNL     1      -3.029   9.926  13.954  0.00  0.00    +0.000 C 
ATOM     19  O   UNL     1      -4.012  10.322  14.911  0.00  0.00    +0.000 OA
ENDBRANCH   1  19
BRANCH   9  20
ATOM     20  O   UNL     1      -2.703  13.119  23.428  0.00  0.00    +0.000 OA
ATOM     21  C   UNL     1      -2.242  14.422  23.740  0.00  0.00    +0.000 C 
ENDBRANCH   9  20
BRANCH  10  22
ATOM     22  O   UNL     1      -3.829  12.989  20.837  0.00  0.00    +0.000 OA
ATOM     23  C   UNL     1      -5.095  12.678  21.383  0.00  0.00    +0.000 C 
ENDBRANCH  10  22
BRANCH  14  24
ATOM     24  O   UNL     1      -5.435  12.204  16.706  0.00  0.00    +0.000 OA
ATOM     25  C   UNL     1      -6.119  12.817  17.779  0.00  0.00    +0.000 C 
ENDBRANCH  14  24
BRANCH  17  26
ATOM     26  C   UNL     1       1.715   8.513  19.810  0.00  0.00    +0.000 C 
BRANCH  26  27
ATOM     27  C   UNL     1       1.738   7.226  20.682  0.00  0.00    +0.000 C 
BRANCH  27  28
ATOM     28  N   UNL     1       2.233   6.018  19.961  0.00  0.00    +0.000 NA
ATOM     29  C   UNL     1       1.332   4.868  20.178  0.00  0.00    +0.000 C 
ATOM     30  C   UNL     1       1.808   3.605  19.446  0.00  0.00    +0.000 C 
ATOM     31  C   UNL     1       2.008   3.864  17.959  0.00  0.00    +0.000 C 
ATOM     32  C   UNL     1       2.920   5.064  17.764  0.00  0.00    +0.000 C 
ATOM     33  C   UNL     1       2.402   6.284  18.525  0.00  0.00    +0.000 C 
ENDBRANCH  27  28
ENDBRANCH  26  27
ENDBRANCH  17  26
TORSDOF 7
ENDMDL
MODEL 2
REMARK VINA RESULT:      -7.6      0.824      1.373
REMARK  Name = 
REMARK  11 active torsions:
REMARK  status: ('A' for Active; 'I' for Inactive)
REMARK    1  A    between atoms: C_1  and  O_2
REMARK    2  A    between atoms: O_2  and  C_3
REMARK    3  A    between atoms: C_11  and  O_12
REMARK    4  A    between atoms: O_12  and  C_13
REMARK    5  A    between atoms: C_14  and  O_15
REMARK    6  A    between atoms: O_15  and  C_16
REMARK    7  A    between atoms: C_20  and  O_21
REMARK    8  A    between atoms: O_21  and  C_22
REMARK    9  A    between atoms: N_25  and  C_26
REMARK   10  A    between atoms: C_26  and  C_27
REMARK   11  A    between atoms: C_27  and  N_28
REMARK                            x       y       z     vdW  Elec       q    Type
REMARK                         _______ _______ _______ _____ _____    ______ ____
ROOT
ATOM      1  C   UNL     1      -3.457  10.656  16.101  0.00  0.00    +0.000 A 
ATOM      2  C   UNL     1      -2.243  10.127  16.555  0.00  0.00    +0.000 A 
ATOM      3  C   UNL     1      -1.761  10.384  17.841  0.00  0.00    +0.000 A 
ATOM      4  C   UNL     1      -0.612   9.701  18.252  0.00  0.00    +0.000 A 
ATOM      5  C   UNL     1      -0.160   9.951  19.527  0.00  0.00    +0.000 A 
ATOM      6  C   UNL     1      -0.819  10.817  20.370  0.00  0.00    +0.000 A 
ATOM      7  C   UNL     1      -0.178  10.803  21.598  0.00  0.00    +0.000 A 
ATOM      8  C   UNL     1      -0.687  11.569  22.654  0.00  0.00    +0.000 A 
ATOM      9  C   UNL     1      -1.842  12.340  22.402  0.00  0.00    +0.000 A 
ATOM     10  C   UNL     1      -2.471  12.321  21.124  0.00  0.00    +0.000 A 
ATOM     11  C   UNL     1      -1.950  11.508  20.056  0.00  0.00    +0.000 A 
ATOM     12  C   UNL     1      -2.445  11.285  18.706  0.00  0.00    +0.000 A 
ATOM     13  C   UNL     1      -3.605  11.882  18.172  0.00  0.00    +0.000 A 
ATOM     14  C   UNL     1      -4.126  11.577  16.905  0.00  0.00    +0.000 A 
ATOM     15  C   UNL     1       0.962   9.894  21.551  0.00  0.00    +0.000 C 
ATOM     16  O   UNL     1       1.753   9.558  22.417  0.00  0.00    +0.000 OA
ATOM     17  N   UNL     1       0.929   9.413  20.214  0.00  0.00    +0.000 N 
ENDROOT
BRANCH   1  19
ATOM     18  C   UNL     1      -3.021   9.929  13.895  0.00  0.00    +0.000 C 
ATOM     19  O   UNL     1      -3.980  10.290  14.890  0.00  0.00    +0.000 OA
ENDBRANCH   1  19
BRANCH   9  20
ATOM     20  O   UNL     1      -2.431  13.135  23.351  0.00  0.00    +0.000 OA
ATOM     21  C   UNL     1      -1.779  14.304  23.815  0.00  0.00    +0.000 C 
ENDBRANCH   9  20
BRANCH  10  22
ATOM     22  O   UNL     1      -3.595  13.024  20.776  0.00  0.00    +0.000 OA
ATOM     23  C   UNL     1      -4.868  12.779  21.342  0.00  0.00    +0.000 C 
ENDBRANCH  10  22
BRANCH  14  24
ATOM     24  O   UNL     1      -5.290  12.260  16.677  0.00  0.00    +0.000 OA
ATOM     25  C   UNL     1      -6.099  12.640  17.771  0.00  0.00    +0.000 C 
ENDBRANCH  14  24
BRANCH  17  26
ATOM     26  C   UNL     1       1.720   8.280  19.743  0.00  0.00    +0.000 C 
BRANCH  26  27
ATOM     27  C   UNL     1       2.440   8.463  18.377  0.00  0.00    +0.000 C 
BRANCH  27  28
ATOM     28  N   UNL     1       2.786   7.180  17.701  0.00  0.00    +0.000 NA
ATOM     29  C   UNL     1       4.233   7.110  17.413  0.00  0.00    +0.000 C 
ATOM     30  C   UNL     1       4.628   5.798  16.720  0.00  0.00    +0.000 C 
ATOM     31  C   UNL     1       4.175   4.585  17.521  0.00  0.00    +0.000 C 
ATOM     32  C   UNL     1       2.690   4.693  17.822  0.00  0.00    +0.000 C 
ATOM     33  C   UNL     1       2.356   6.022  18.499  0.00  0.00    +0.000 C 
ENDBRANCH  27  28
ENDBRANCH  26  27
ENDBRANCH  17  26
TORSDOF 7
ENDMDL
MODEL 3
REMARK VINA RESULT:      -7.6      0.751      1.145
REMARK  Name = 
REMARK  11 active torsions:
REMARK  status: ('A' for Active; 'I' for Inactive)
REMARK    1  A    between atoms: C_1  and  O_2
REMARK    2  A    between atoms: O_2  and  C_3
REMARK    3  A    between atoms: C_11  and  O_12
REMARK    4  A    between atoms: O_12  and  C_13
REMARK    5  A    between atoms: C_14  and  O_15
REMARK    6  A    between atoms: O_15  and  C_16
REMARK    7  A    between atoms: C_20  and  O_21
REMARK    8  A    between atoms: O_21  and  C_22
REMARK    9  A    between atoms: N_25  and  C_26
REMARK   10  A    between atoms: C_26  and  C_27
REMARK   11  A    between atoms: C_27  and  N_28
REMARK                            x       y       z     vdW  Elec       q    Type
REMARK                         _______ _______ _______ _____ _____    ______ ____
ROOT
ATOM      1  C   UNL     1      -3.543  10.792  16.147  0.00  0.00    +0.000 A 
ATOM      2  C   UNL     1      -2.301  10.332  16.599  0.00  0.00    +0.000 A 
ATOM      3  C   UNL     1      -1.852  10.575  17.900  0.00  0.00    +0.000 A 
ATOM      4  C   UNL     1      -0.663   9.958  18.302  0.00  0.00    +0.000 A 
ATOM      5  C   UNL     1      -0.243  10.192  19.591  0.00  0.00    +0.000 A 
ATOM      6  C   UNL     1      -0.970  10.980  20.455  0.00  0.00    +0.000 A 
ATOM      7  C   UNL     1      -0.343  10.966  21.690  0.00  0.00    +0.000 A 
ATOM      8  C   UNL     1      -0.916  11.655  22.765  0.00  0.00    +0.000 A 
ATOM      9  C   UNL     1      -2.118  12.354  22.525  0.00  0.00    +0.000 A 
ATOM     10  C   UNL     1      -2.730  12.338  21.239  0.00  0.00    +0.000 A 
ATOM     11  C   UNL     1      -2.143  11.602  20.150  0.00  0.00    +0.000 A 
ATOM     12  C   UNL     1      -2.606  11.395  18.787  0.00  0.00    +0.000 A 
ATOM     13  C   UNL     1      -3.799  11.929  18.258  0.00  0.00    +0.000 A 
ATOM     14  C   UNL     1      -4.283  11.636  16.974  0.00  0.00    +0.000 A 
ATOM     15  C   UNL     1       0.858  10.139  21.627  0.00  0.00    +0.000 C 
ATOM     16  O   UNL     1       1.660   9.827  22.491  0.00  0.00    +0.000 OA
ATOM     17  N   UNL     1       0.873   9.706  20.273  0.00  0.00    +0.000 N 
ENDROOT
BRANCH   1  19
ATOM     18  C   UNL     1      -3.047   9.965  13.991  0.00  0.00    +0.000 C 
ATOM     19  O   UNL     1      -4.026  10.435  14.918  0.00  0.00    +0.000 OA
ENDBRANCH   1  19
BRANCH   9  20
ATOM     20  O   UNL     1      -2.771  13.072  23.494  0.00  0.00    +0.000 OA
ATOM     21  C   UNL     1      -3.835  12.490  24.226  0.00  0.00    +0.000 C 
ENDBRANCH   9  20
BRANCH  10  22
ATOM     22  O   UNL     1      -3.897  12.974  20.901  0.00  0.00    +0.000 OA
ATOM     23  C   UNL     1      -4.020  14.381  20.831  0.00  0.00    +0.000 C 
ENDBRANCH  10  22
BRANCH  14  24
ATOM     24  O   UNL     1      -5.489  12.244  16.755  0.00  0.00    +0.000 OA
ATOM     25  C   UNL     1      -6.545  12.046  17.672  0.00  0.00    +0.000 C 
ENDBRANCH  14  24
BRANCH  17  26
ATOM     26  C   UNL     1       1.746   8.648  19.773  0.00  0.00    +0.000 C 
BRANCH  26  27
ATOM     27  C   UNL     1       1.640   7.272  20.488  0.00  0.00    +0.000 C 
BRANCH  27  28
ATOM     28  N   UNL     1       2.026   6.115  19.631  0.00  0.00    +0.000 NA
ATOM     29  C   UNL     1       2.990   6.529  18.590  0.00  0.00    +0.000 C 
ATOM     30  C   UNL     1       3.415   5.360  17.690  0.00  0.00    +0.000 C 
ATOM     31  C   UNL     1       3.963   4.197  18.505  0.00  0.00    +0.000 C 
ATOM     32  C   UNL     1       2.964   3.807  19.581  0.00  0.00    +0.000 C 
ATOM     33  C   UNL     1       2.570   5.011  20.436  0.00  0.00    +0.000 C 
ENDBRANCH  27  28
ENDBRANCH  26  27
ENDBRANCH  17  26
TORSDOF 7
ENDMDL
MODEL 4
REMARK VINA RESULT:      -6.4      2.282      5.964
REMARK  Name = 
REMARK  11 active torsions:
REMARK  status: ('A' for Active; 'I' for Inactive)
REMARK    1  A    between atoms: C_1  and  O_2
REMARK    2  A    between atoms: O_2  and  C_3
REMARK    3  A    between atoms: C_11  and  O_12
REMARK    4  A    between atoms: O_12  and  C_13
REMARK    5  A    between atoms: C_14  and  O_15
REMARK    6  A    between atoms: O_15  and  C_16
REMARK    7  A    between atoms: C_20  and  O_21
REMARK    8  A    between atoms: O_21  and  C_22
REMARK    9  A    between atoms: N_25  and  C_26
REMARK   10  A    between atoms: C_26  and  C_27
REMARK   11  A    between atoms: C_27  and  N_28
REMARK                            x       y       z     vdW  Elec       q    Type
REMARK                         _______ _______ _______ _____ _____    ______ ____
ROOT
ATOM      1  C   UNL     1      -3.649  14.895  24.241  0.00  0.00    +0.000 A 
ATOM      2  C   UNL     1      -2.726  14.072  23.584  0.00  0.00    +0.000 A 
ATOM      3  C   UNL     1      -3.012  13.480  22.351  0.00  0.00    +0.000 A 
ATOM      4  C   UNL     1      -1.980  12.790  21.708  0.00  0.00    +0.000 A 
ATOM      5  C   UNL     1      -2.271  12.228  20.486  0.00  0.00    +0.000 A 
ATOM      6  C   UNL     1      -3.515  12.357  19.910  0.00  0.00    +0.000 A 
ATOM      7  C   UNL     1      -3.482  11.758  18.661  0.00  0.00    +0.000 A 
ATOM      8  C   UNL     1      -4.618  11.797  17.845  0.00  0.00    +0.000 A 
ATOM      9  C   UNL     1      -5.765  12.444  18.353  0.00  0.00    +0.000 A 
ATOM     10  C   UNL     1      -5.753  13.049  19.642  0.00  0.00    +0.000 A 
ATOM     11  C   UNL     1      -4.568  13.024  20.460  0.00  0.00    +0.000 A 
ATOM     12  C   UNL     1      -4.303  13.613  21.763  0.00  0.00    +0.000 A 
ATOM     13  C   UNL     1      -5.238  14.359  22.508  0.00  0.00    +0.000 A 
ATOM     14  C   UNL     1      -4.935  15.007  23.716  0.00  0.00    +0.000 A 
ATOM     15  C   UNL     1      -2.156  11.201  18.414  0.00  0.00    +0.000 C 
ATOM     16  O   UNL     1      -1.694  10.640  17.434  0.00  0.00    +0.000 OA
ATOM     17  N   UNL     1      -1.454  11.510  19.611  0.00  0.00    +0.000 N 
ENDROOT
BRANCH   1  19
ATOM     18  C   UNL     1      -1.919  15.546  25.713  0.00  0.00    +0.000 C 
ATOM     19  O   UNL     1      -3.308  15.573  25.379  0.00  0.00    +0.000 OA
ENDBRANCH   1  19
BRANCH   9  20
ATOM     20  O   UNL     1      -6.940  12.541  17.653  0.00  0.00    +0.000 OA
ATOM     21  C   UNL     1      -7.095  13.521  16.642  0.00  0.00    +0.000 C 
ENDBRANCH   9  20
BRANCH  10  22
ATOM     22  O   UNL     1      -6.805  13.706  20.227  0.00  0.00    +0.000 OA
ATOM     23  C   UNL     1      -7.201  15.013  19.860  0.00  0.00    +0.000 C 
ENDBRANCH  10  22
BRANCH  14  24
ATOM     24  O   UNL     1      -6.016  15.704  24.182  0.00  0.00    +0.000 OA
ATOM     25  C   UNL     1      -7.290  15.473  23.616  0.00  0.00    +0.000 C 
ENDBRANCH  14  24
BRANCH  17  26
ATOM     26  C   UNL     1      -0.007  11.381  19.756  0.00  0.00    +0.000 C 
BRANCH  26  27
ATOM     27  C   UNL     1       0.496  10.163  20.579  0.00  0.00    +0.000 C 
BRANCH  27  28
ATOM     28  N   UNL     1       0.918   9.003  19.742  0.00  0.00    +0.000 NA
ATOM     29  C   UNL     1       1.632   9.458  18.531  0.00  0.00    +0.000 C 
ATOM     30  C   UNL     1       2.088   8.289  17.647  0.00  0.00    +0.000 C 
ATOM     31  C   UNL     1       2.930   7.291  18.430  0.00  0.00    +0.000 C 
ATOM     32  C   UNL     1       2.183   6.857  19.679  0.00  0.00    +0.000 C 
ATOM     33  C   UNL     1       1.746   8.061  20.512  0.00  0.00    +0.000 C 
ENDBRANCH  27  28
ENDBRANCH  26  27
ENDBRANCH  17  26
TORSDOF 7
ENDMDL
MODEL 5
REMARK VINA RESULT:      -6.4      3.307      6.888
REMARK  Name = 
REMARK  11 active torsions:
REMARK  status: ('A' for Active; 'I' for Inactive)
REMARK    1  A    between atoms: C_1  and  O_2
REMARK    2  A    between atoms: O_2  and  C_3
REMARK    3  A    between atoms: C_11  and  O_12
REMARK    4  A    between atoms: O_12  and  C_13
REMARK    5  A    between atoms: C_14  and  O_15
REMARK    6  A    between atoms: O_15  and  C_16
REMARK    7  A    between atoms: C_20  and  O_21
REMARK    8  A    between atoms: O_21  and  C_22
REMARK    9  A    between atoms: N_25  and  C_26
REMARK   10  A    between atoms: C_26  and  C_27
REMARK   11  A    between atoms: C_27  and  N_28
REMARK                            x       y       z     vdW  Elec       q    Type
REMARK                         _______ _______ _______ _____ _____    ______ ____
ROOT
ATOM      1  C   UNL     1      -4.784  14.660  22.295  0.00  0.00    +0.000 A 
ATOM      2  C   UNL     1      -3.510  14.080  22.324  0.00  0.00    +0.000 A 
ATOM      3  C   UNL     1      -3.051  13.254  21.294  0.00  0.00    +0.000 A 
ATOM      4  C   UNL     1      -1.718  12.834  21.344  0.00  0.00    +0.000 A 
ATOM      5  C   UNL     1      -1.276  12.036  20.314  0.00  0.00    +0.000 A 
ATOM      6  C   UNL     1      -2.100  11.685  19.269  0.00  0.00    +0.000 A 
ATOM      7  C   UNL     1      -1.359  10.950  18.358  0.00  0.00    +0.000 A 
ATOM      8  C   UNL     1      -1.958  10.511  17.171  0.00  0.00    +0.000 A 
ATOM      9  C   UNL     1      -3.317  10.835  16.969  0.00  0.00    +0.000 A 
ATOM     10  C   UNL     1      -4.040  11.595  17.932  0.00  0.00    +0.000 A 
ATOM     11  C   UNL     1      -3.402  12.062  19.135  0.00  0.00    +0.000 A 
ATOM     12  C   UNL     1      -3.911  12.889  20.219  0.00  0.00    +0.000 A 
ATOM     13  C   UNL     1      -5.220  13.406  20.282  0.00  0.00    +0.000 A 
ATOM     14  C   UNL     1      -5.664  14.286  21.281  0.00  0.00    +0.000 A 
ATOM     15  C   UNL     1       0.012  10.805  18.836  0.00  0.00    +0.000 C 
ATOM     16  O   UNL     1       0.987  10.279  18.324  0.00  0.00    +0.000 OA
ATOM     17  N   UNL     1      -0.013  11.490  20.082  0.00  0.00    +0.000 N 
ENDROOT
BRANCH   1  19
ATOM     18  C   UNL     1      -4.245  15.764  24.313  0.00  0.00    +0.000 C 
ATOM     19  O   UNL     1      -5.169  15.570  23.242  0.00  0.00    +0.000 OA
ENDBRANCH   1  19
BRANCH   9  20
ATOM     20  O   UNL     1      -4.017  10.457  15.852  0.00  0.00    +0.000 OA
ATOM     21  C   UNL     1      -3.343  10.214  14.630  0.00  0.00    +0.000 C 
ENDBRANCH   9  20
BRANCH  10  22
ATOM     22  O   UNL     1      -5.355  11.969  17.832  0.00  0.00    +0.000 OA
ATOM     23  C   UNL     1      -6.432  11.089  18.087  0.00  0.00    +0.000 C 
ENDBRANCH  10  22
BRANCH  14  24
ATOM     24  O   UNL     1      -6.958  14.671  21.055  0.00  0.00    +0.000 OA
ATOM     25  C   UNL     1      -7.767  13.911  20.181  0.00  0.00    +0.000 C 
ENDBRANCH  14  24
BRANCH  17  26
ATOM     26  C   UNL     1       1.187  11.842  20.835  0.00  0.00    +0.000 C 
BRANCH  26  27
ATOM     27  C   UNL     1       2.127  12.892  20.179  0.00  0.00    +0.000 C 
BRANCH  27  28
ATOM     28  N   UNL     1       1.476  14.208  19.922  0.00  0.00    +0.000 NA
ATOM     29  C   UNL     1       1.331  14.978  21.175  0.00  0.00    +0.000 C 
ATOM     30  C   UNL     1       0.668  16.344  20.948  0.00  0.00    +0.000 C 
ATOM     31  C   UNL     1       1.409  17.157  19.895  0.00  0.00    +0.000 C 
ATOM     32  C   UNL     1       1.563  16.335  18.627  0.00  0.00    +0.000 C 
ATOM     33  C   UNL     1       2.217  14.984  18.916  0.00  0.00    +0.000 C 
ENDBRANCH  27  28
ENDBRANCH  26  27
ENDBRANCH  17  26
TORSDOF 7
ENDMDL
MODEL 6
REMARK VINA RESULT:      -6.1      3.702      4.655
REMARK  Name = 
REMARK  11 active torsions:
REMARK  status: ('A' for Active; 'I' for Inactive)
REMARK    1  A    between atoms: C_1  and  O_2
REMARK    2  A    between atoms: O_2  and  C_3
REMARK    3  A    between atoms: C_11  and  O_12
REMARK    4  A    between atoms: O_12  and  C_13
REMARK    5  A    between atoms: C_14  and  O_15
REMARK    6  A    between atoms: O_15  and  C_16
REMARK    7  A    between atoms: C_20  and  O_21
REMARK    8  A    between atoms: O_21  and  C_22
REMARK    9  A    between atoms: N_25  and  C_26
REMARK   10  A    between atoms: C_26  and  C_27
REMARK   11  A    between atoms: C_27  and  N_28
REMARK                            x       y       z     vdW  Elec       q    Type
REMARK                         _______ _______ _______ _____ _____    ______ ____
ROOT
ATOM      1  C   UNL     1       2.015  15.589  18.731  0.00  0.00    +0.000 A 
ATOM      2  C   UNL     1       2.164  14.206  18.895  0.00  0.00    +0.000 A 
ATOM      3  C   UNL     1       1.392  13.484  19.810  0.00  0.00    +0.000 A 
ATOM      4  C   UNL     1       1.513  12.091  19.804  0.00  0.00    +0.000 A 
ATOM      5  C   UNL     1       0.734  11.392  20.698  0.00  0.00    +0.000 A 
ATOM      6  C   UNL     1      -0.143  12.033  21.545  0.00  0.00    +0.000 A 
ATOM      7  C   UNL     1      -0.835  11.071  22.263  0.00  0.00    +0.000 A 
ATOM      8  C   UNL     1      -1.831  11.465  23.165  0.00  0.00    +0.000 A 
ATOM      9  C   UNL     1      -2.071  12.849  23.308  0.00  0.00    +0.000 A 
ATOM     10  C   UNL     1      -1.336  13.802  22.547  0.00  0.00    +0.000 A 
ATOM     11  C   UNL     1      -0.334  13.380  21.603  0.00  0.00    +0.000 A 
ATOM     12  C   UNL     1       0.491  14.153  20.687  0.00  0.00    +0.000 A 
ATOM     13  C   UNL     1       0.450  15.556  20.565  0.00  0.00    +0.000 A 
ATOM     14  C   UNL     1       1.176  16.278  19.605  0.00  0.00    +0.000 A 
ATOM     15  C   UNL     1      -0.381   9.740  21.875  0.00  0.00    +0.000 C 
ATOM     16  O   UNL     1      -0.757   8.633  22.224  0.00  0.00    +0.000 OA
ATOM     17  N   UNL     1       0.623  10.018  20.907  0.00  0.00    +0.000 N 
ENDROOT
BRANCH   1  19
ATOM     18  C   UNL     1       3.963  15.730  17.402  0.00  0.00    +0.000 C 
ATOM     19  O   UNL     1       2.681  16.260  17.742  0.00  0.00    +0.000 OA
ENDBRANCH   1  19
BRANCH   9  20
ATOM     20  O   UNL     1      -3.013  13.358  24.164  0.00  0.00    +0.000 OA
ATOM     21  C   UNL     1      -4.152  12.594  24.517  0.00  0.00    +0.000 C 
ENDBRANCH   9  20
BRANCH  10  22
ATOM     22  O   UNL     1      -1.493  15.163  22.604  0.00  0.00    +0.000 OA
ATOM     23  C   UNL     1      -1.030  15.951  23.682  0.00  0.00    +0.000 C 
ENDBRANCH  10  22
BRANCH  14  24
ATOM     24  O   UNL     1       0.894  17.615  19.681  0.00  0.00    +0.000 OA
ATOM     25  C   UNL     1       0.638  18.201  20.940  0.00  0.00    +0.000 C 
ENDBRANCH  14  24
BRANCH  17  26
ATOM     26  C   UNL     1       1.207   9.003  20.035  0.00  0.00    +0.000 C 
BRANCH  26  27
ATOM     27  C   UNL     1       1.806   7.754  20.738  0.00  0.00    +0.000 C 
BRANCH  27  28
ATOM     28  N   UNL     1       1.750   6.512  19.914  0.00  0.00    +0.000 NA
ATOM     29  C   UNL     1       2.703   6.583  18.787  0.00  0.00    +0.000 C 
ATOM     30  C   UNL     1       2.676   5.318  17.918  0.00  0.00    +0.000 C 
ATOM     31  C   UNL     1       2.912   4.064  18.749  0.00  0.00    +0.000 C 
ATOM     32  C   UNL     1       1.935   4.027  19.912  0.00  0.00    +0.000 C 
ATOM     33  C   UNL     1       1.998   5.315  20.732  0.00  0.00    +0.000 C 
ENDBRANCH  27  28
ENDBRANCH  26  27
ENDBRANCH  17  26
TORSDOF 7
ENDMDL
MODEL 7
REMARK VINA RESULT:      -6.1      3.898      7.290
REMARK  Name = 
REMARK  11 active torsions:
REMARK  status: ('A' for Active; 'I' for Inactive)
REMARK    1  A    between atoms: C_1  and  O_2
REMARK    2  A    between atoms: O_2  and  C_3
REMARK    3  A    between atoms: C_11  and  O_12
REMARK    4  A    between atoms: O_12  and  C_13
REMARK    5  A    between atoms: C_14  and  O_15
REMARK    6  A    between atoms: O_15  and  C_16
REMARK    7  A    between atoms: C_20  and  O_21
REMARK    8  A    between atoms: O_21  and  C_22
REMARK    9  A    between atoms: N_25  and  C_26
REMARK   10  A    between atoms: C_26  and  C_27
REMARK   11  A    between atoms: C_27  and  N_28
REMARK                            x       y       z     vdW  Elec       q    Type
REMARK                         _______ _______ _______ _____ _____    ______ ____
ROOT
ATOM      1  C   UNL     1       0.380  11.040  19.143  0.00  0.00    +0.000 A 
ATOM      2  C   UNL     1      -0.579  11.033  20.163  0.00  0.00    +0.000 A 
ATOM      3  C   UNL     1      -0.673  12.070  21.095  0.00  0.00    +0.000 A 
ATOM      4  C   UNL     1      -1.748  12.044  21.988  0.00  0.00    +0.000 A 
ATOM      5  C   UNL     1      -1.838  13.080  22.889  0.00  0.00    +0.000 A 
ATOM      6  C   UNL     1      -0.923  14.109  22.897  0.00  0.00    +0.000 A 
ATOM      7  C   UNL     1      -1.315  15.033  23.853  0.00  0.00    +0.000 A 
ATOM      8  C   UNL     1      -0.573  16.207  24.026  0.00  0.00    +0.000 A 
ATOM      9  C   UNL     1       0.566  16.385  23.211  0.00  0.00    +0.000 A 
ATOM     10  C   UNL     1       0.930  15.410  22.239  0.00  0.00    +0.000 A 
ATOM     11  C   UNL     1       0.141  14.219  22.054  0.00  0.00    +0.000 A 
ATOM     12  C   UNL     1       0.280  13.128  21.102  0.00  0.00    +0.000 A 
ATOM     13  C   UNL     1       1.295  13.042  20.128  0.00  0.00    +0.000 A 
ATOM     14  C   UNL     1       1.354  12.036  19.151  0.00  0.00    +0.000 A 
ATOM     15  C   UNL     1      -2.537  14.579  24.509  0.00  0.00    +0.000 C 
ATOM     16  O   UNL     1      -3.231  15.108  25.361  0.00  0.00    +0.000 OA
ATOM     17  N   UNL     1      -2.795  13.335  23.871  0.00  0.00    +0.000 N 
ENDROOT
BRANCH   1  19
ATOM     18  C   UNL     1       1.435   9.132  18.232  0.00  0.00    +0.000 C 
ATOM     19  O   UNL     1       0.376  10.088  18.161  0.00  0.00    +0.000 OA
ENDBRANCH   1  19
BRANCH   9  20
ATOM     20  O   UNL     1       1.377  17.487  23.291  0.00  0.00    +0.000 OA
ATOM     21  C   UNL     1       2.405  17.555  24.263  0.00  0.00    +0.000 C 
ENDBRANCH   9  20
BRANCH  10  22
ATOM     22  O   UNL     1       2.007  15.486  21.394  0.00  0.00    +0.000 OA
ATOM     23  C   UNL     1       2.122  16.455  20.371  0.00  0.00    +0.000 C 
ENDBRANCH  10  22
BRANCH  14  24
ATOM     24  O   UNL     1       2.410  12.239  18.304  0.00  0.00    +0.000 OA
ATOM     25  C   UNL     1       3.021  13.512  18.246  0.00  0.00    +0.000 C 
ENDBRANCH  14  24
BRANCH  17  26
ATOM     26  C   UNL     1      -4.052  12.605  24.003  0.00  0.00    +0.000 C 
BRANCH  26  27
ATOM     27  C   UNL     1      -5.260  13.164  23.201  0.00  0.00    +0.000 C 
BRANCH  27  28
ATOM     28  N   UNL     1      -5.649  12.323  22.032  0.00  0.00    +0.000 NA
ATOM     29  C   UNL     1      -7.118  12.183  21.949  0.00  0.00    +0.000 C 
ATOM     30  C   UNL     1      -7.556  11.326  20.753  0.00  0.00    +0.000 C 
ATOM     31  C   UNL     1      -6.987  11.860  19.445  0.00  0.00    +0.000 C 
ATOM     32  C   UNL     1      -5.481  12.015  19.565  0.00  0.00    +0.000 C 
ATOM     33  C   UNL     1      -5.106  12.866  20.778  0.00  0.00    +0.000 C 
ENDBRANCH  27  28
ENDBRANCH  26  27
ENDBRANCH  17  26
TORSDOF 7
ENDMDL
MODEL 8
REMARK VINA RESULT:      -6.1      4.194      5.539
REMARK  Name = 
REMARK  11 active torsions:
REMARK  status: ('A' for Active; 'I' for Inactive)
REMARK    1  A    between atoms: C_1  and  O_2
REMARK    2  A    between atoms: O_2  and  C_3
REMARK    3  A    between atoms: C_11  and  O_12
REMARK    4  A    between atoms: O_12  and  C_13
REMARK    5  A    between atoms: C_14  and  O_15
REMARK    6  A    between atoms: O_15  and  C_16
REMARK    7  A    between atoms: C_20  and  O_21
REMARK    8  A    between atoms: O_21  and  C_22
REMARK    9  A    between atoms: N_25  and  C_26
REMARK   10  A    between atoms: C_26  and  C_27
REMARK   11  A    between atoms: C_27  and  N_28
REMARK                            x       y       z     vdW  Elec       q    Type
REMARK                         _______ _______ _______ _____ _____    ______ ____
ROOT
ATOM      1  C   UNL     1      -3.564  11.057  17.089  0.00  0.00    +0.000 A 
ATOM      2  C   UNL     1      -2.298  11.632  17.255  0.00  0.00    +0.000 A 
ATOM      3  C   UNL     1      -1.903  12.210  18.465  0.00  0.00    +0.000 A 
ATOM      4  C   UNL     1      -0.576  12.633  18.579  0.00  0.00    +0.000 A 
ATOM      5  C   UNL     1      -0.196  13.184  19.782  0.00  0.00    +0.000 A 
ATOM      6  C   UNL     1      -1.078  13.294  20.834  0.00  0.00    +0.000 A 
ATOM      7  C   UNL     1      -0.393  13.811  21.923  0.00  0.00    +0.000 A 
ATOM      8  C   UNL     1      -1.058  13.974  23.144  0.00  0.00    +0.000 A 
ATOM      9  C   UNL     1      -2.421  13.611  23.198  0.00  0.00    +0.000 A 
ATOM     10  C   UNL     1      -3.084  13.082  22.054  0.00  0.00    +0.000 A 
ATOM     11  C   UNL     1      -2.379  12.894  20.813  0.00  0.00    +0.000 A 
ATOM     12  C   UNL     1      -2.821  12.327  19.548  0.00  0.00    +0.000 A 
ATOM     13  C   UNL     1      -4.119  11.833  19.303  0.00  0.00    +0.000 A 
ATOM     14  C   UNL     1      -4.499  11.196  18.112  0.00  0.00    +0.000 A 
ATOM     15  C   UNL     1       0.998  14.060  21.561  0.00  0.00    +0.000 C 
ATOM     16  O   UNL     1       1.938  14.461  22.227  0.00  0.00    +0.000 OA
ATOM     17  N   UNL     1       1.045  13.668  20.195  0.00  0.00    +0.000 N 
ENDROOT
BRANCH   1  19
ATOM     18  C   UNL     1      -2.861  10.327  14.955  0.00  0.00    +0.000 C 
ATOM     19  O   UNL     1      -3.888  10.379  15.946  0.00  0.00    +0.000 OA
ENDBRANCH   1  19
BRANCH   9  20
ATOM     20  O   UNL     1      -3.182  13.732  24.332  0.00  0.00    +0.000 OA
ATOM     21  C   UNL     1      -3.367  14.997  24.943  0.00  0.00    +0.000 C 
ENDBRANCH   9  20
BRANCH  10  22
ATOM     22  O   UNL     1      -4.397  12.692  22.000  0.00  0.00    +0.000 OA
ATOM     23  C   UNL     1      -5.477  13.606  22.010  0.00  0.00    +0.000 C 
ENDBRANCH  10  22
BRANCH  14  24
ATOM     24  O   UNL     1      -5.798  10.768  18.180  0.00  0.00    +0.000 OA
ATOM     25  C   UNL     1      -6.847  11.704  18.041  0.00  0.00    +0.000 C 
ENDBRANCH  14  24
BRANCH  17  26
ATOM     26  C   UNL     1       2.286  13.494  19.447  0.00  0.00    +0.000 C 
BRANCH  26  27
ATOM     27  C   UNL     1       2.776  14.722  18.631  0.00  0.00    +0.000 C 
BRANCH  27  28
ATOM     28  N   UNL     1       3.798  15.547  19.337  0.00  0.00    +0.000 NA
ATOM     29  C   UNL     1       4.601  14.717  20.258  0.00  0.00    +0.000 C 
ATOM     30  C   UNL     1       5.669  15.534  21.000  0.00  0.00    +0.000 C 
ATOM     31  C   UNL     1       6.566  16.292  20.031  0.00  0.00    +0.000 C 
ATOM     32  C   UNL     1       5.715  17.119  19.083  0.00  0.00    +0.000 C 
ATOM     33  C   UNL     1       4.665  16.257  18.384  0.00  0.00    +0.000 C 
ENDBRANCH  27  28
ENDBRANCH  26  27
ENDBRANCH  17  26
TORSDOF 7
ENDMDL
MODEL 9
REMARK VINA RESULT:      -6.1      3.815      7.815
REMARK  Name = 
REMARK  11 active torsions:
REMARK  status: ('A' for Active; 'I' for Inactive)
REMARK    1  A    between atoms: C_1  and  O_2
REMARK    2  A    between atoms: O_2  and  C_3
REMARK    3  A    between atoms: C_11  and  O_12
REMARK    4  A    between atoms: O_12  and  C_13
REMARK    5  A    between atoms: C_14  and  O_15
REMARK    6  A    between atoms: O_15  and  C_16
REMARK    7  A    between atoms: C_20  and  O_21
REMARK    8  A    between atoms: O_21  and  C_22
REMARK    9  A    between atoms: N_25  and  C_26
REMARK   10  A    between atoms: C_26  and  C_27
REMARK   11  A    between atoms: C_27  and  N_28
REMARK                            x       y       z     vdW  Elec       q    Type
REMARK                         _______ _______ _______ _____ _____    ______ ____
ROOT
ATOM      1  C   UNL     1      -1.983  11.229  18.126  0.00  0.00    +0.000 A 
ATOM      2  C   UNL     1      -3.203  11.572  18.721  0.00  0.00    +0.000 A 
ATOM      3  C   UNL     1      -3.263  12.308  19.908  0.00  0.00    +0.000 A 
ATOM      4  C   UNL     1      -4.523  12.721  20.352  0.00  0.00    +0.000 A 
ATOM      5  C   UNL     1      -4.567  13.460  21.512  0.00  0.00    +0.000 A 
ATOM      6  C   UNL     1      -3.419  13.798  22.194  0.00  0.00    +0.000 A 
ATOM      7  C   UNL     1      -3.772  14.601  23.267  0.00  0.00    +0.000 A 
ATOM      8  C   UNL     1      -2.773  15.123  24.097  0.00  0.00    +0.000 A 
ATOM      9  C   UNL     1      -1.435  14.786  23.800  0.00  0.00    +0.000 A 
ATOM     10  C   UNL     1      -1.119  13.960  22.684  0.00  0.00    +0.000 A 
ATOM     11  C   UNL     1      -2.155  13.451  21.824  0.00  0.00    +0.000 A 
ATOM     12  C   UNL     1      -2.074  12.650  20.613  0.00  0.00    +0.000 A 
ATOM     13  C   UNL     1      -0.871  12.192  20.036  0.00  0.00    +0.000 A 
ATOM     14  C   UNL     1      -0.803  11.508  18.813  0.00  0.00    +0.000 A 
ATOM     15  C   UNL     1      -5.219  14.786  23.293  0.00  0.00    +0.000 C 
ATOM     16  O   UNL     1      -5.926  15.451  24.032  0.00  0.00    +0.000 OA
ATOM     17  N   UNL     1      -5.656  14.022  22.177  0.00  0.00    +0.000 N 
ENDROOT
BRANCH   1  19
ATOM     18  C   UNL     1      -2.864  11.133  15.936  0.00  0.00    +0.000 C 
ATOM     19  O   UNL     1      -1.939  10.625  16.899  0.00  0.00    +0.000 OA
ENDBRANCH   1  19
BRANCH   9  20
ATOM     20  O   UNL     1      -0.370  15.229  24.542  0.00  0.00    +0.000 OA
ATOM     21  C   UNL     1      -0.108  16.616  24.666  0.00  0.00    +0.000 C 
ENDBRANCH   9  20
BRANCH  10  22
ATOM     22  O   UNL     1       0.142  13.578  22.303  0.00  0.00    +0.000 OA
ATOM     23  C   UNL     1       1.078  14.467  21.726  0.00  0.00    +0.000 C 
ENDBRANCH  10  22
BRANCH  14  24
ATOM     24  O   UNL     1       0.496  11.243  18.473  0.00  0.00    +0.000 OA
ATOM     25  C   UNL     1       1.034   9.962  18.728  0.00  0.00    +0.000 C 
ENDBRANCH  14  24
BRANCH  17  26
ATOM     26  C   UNL     1      -7.007  14.092  21.630  0.00  0.00    +0.000 C 
BRANCH  26  27
ATOM     27  C   UNL     1      -7.384  15.408  20.894  0.00  0.00    +0.000 C 
BRANCH  27  28
ATOM     28  N   UNL     1      -7.630  15.233  19.433  0.00  0.00    +0.000 NA
ATOM     29  C   UNL     1      -6.623  15.966  18.638  0.00  0.00    +0.000 C 
ATOM     30  C   UNL     1      -6.841  15.804  17.127  0.00  0.00    +0.000 C 
ATOM     31  C   UNL     1      -6.887  14.337  16.723  0.00  0.00    +0.000 C 
ATOM     32  C   UNL     1      -7.912  13.602  17.570  0.00  0.00    +0.000 C 
ATOM     33  C   UNL     1      -7.652  13.810  19.061  0.00  0.00    +0.000 C 
ENDBRANCH  27  28
ENDBRANCH  26  27
ENDBRANCH  17  26
TORSDOF 7
ENDMDL
