MODEL 1
REMARK VINA RESULT:      -8.0      0.000      0.000
REMARK  Name = 
REMARK  2 active torsions:
REMARK  status: ('A' for Active; 'I' for Inactive)
REMARK    1  A    between atoms: N_4  and  C_5
REMARK    2  A    between atoms: C_10  and  C_11
REMARK                            x       y       z     vdW  Elec       q    Type
REMARK                         _______ _______ _______ _____ _____    ______ ____
ROOT
ATOM      1  C   UNL     1       6.915   4.463  15.535  0.00  0.00    +0.000 A 
ATOM      2  N   UNL     1       7.221   5.638  16.107  0.00  0.00    +0.000 NA
ATOM      3  C   UNL     1       6.336   6.194  16.967  0.00  0.00    +0.000 A 
ATOM      4  N   UNL     1       6.597   7.429  17.574  0.00  0.00    +0.000 N 
ATOM      5  C   UNL     1       5.139   5.500  17.233  0.00  0.00    +0.000 A 
ATOM      6  C   UNL     1       4.016   5.783  18.083  0.00  0.00    +0.000 A 
ATOM      7  C   UNL     1       3.041   4.804  18.061  0.00  0.00    +0.000 A 
ATOM      8  S   UNL     1       3.479   3.549  16.969  0.00  0.00    +0.000 S 
ATOM      9  C   UNL     1       4.959   4.297  16.574  0.00  0.00    +0.000 A 
ATOM     10  N   UNL     1       5.811   3.727  15.710  0.00  0.00    +0.000 NA
ATOM     11  H   UNL     1       5.920   7.729  18.258  0.00  0.00    +0.000 HD
ENDROOT
BRANCH   7  12
ATOM     12  C   UNL     1       1.733   4.715  18.829  0.00  0.00    +0.000 C 
ATOM     13  C   UNL     1       1.140   3.295  18.816  0.00  0.00    +0.000 C 
ATOM     14  C   UNL     1       1.732   2.348  19.860  0.00  0.00    +0.000 C 
ATOM     15  C   UNL     1       1.731   2.963  21.252  0.00  0.00    +0.000 C 
ATOM     16  C   UNL     1       2.430   4.318  21.279  0.00  0.00    +0.000 C 
ATOM     17  C   UNL     1       1.845   5.286  20.252  0.00  0.00    +0.000 C 
ENDBRANCH   7  12
BRANCH   4  18
ATOM     18  C   UNL     1       7.867   8.120  17.450  0.00  0.00    +0.000 C 
ATOM     19  C   UNL     1       8.019   9.559  17.852  0.00  0.00    +0.000 C 
ATOM     20  C   UNL     1       8.617   8.483  18.707  0.00  0.00    +0.000 C 
ENDBRANCH   4  18
TORSDOF 2
ENDMDL
MODEL 2
REMARK VINA RESULT:      -7.9      2.139      3.656
REMARK  Name = 
REMARK  2 active torsions:
REMARK  status: ('A' for Active; 'I' for Inactive)
REMARK    1  A    between atoms: N_4  and  C_5
REMARK    2  A    between atoms: C_10  and  C_11
REMARK                            x       y       z     vdW  Elec       q    Type
REMARK                         _______ _______ _______ _____ _____    ______ ____
ROOT
ATOM      1  C   UNL     1       7.739   4.576  17.121  0.00  0.00    +0.000 A 
ATOM      2  N   UNL     1       7.231   4.362  15.897  0.00  0.00    +0.000 NA
ATOM      3  C   UNL     1       5.889   4.266  15.756  0.00  0.00    +0.000 A 
ATOM      4  N   UNL     1       5.309   4.022  14.505  0.00  0.00    +0.000 N 
ATOM      5  C   UNL     1       5.086   4.413  16.905  0.00  0.00    +0.000 A 
ATOM      6  C   UNL     1       3.664   4.387  17.111  0.00  0.00    +0.000 A 
ATOM      7  C   UNL     1       3.288   4.598  18.423  0.00  0.00    +0.000 A 
ATOM      8  S   UNL     1       4.678   4.793  19.419  0.00  0.00    +0.000 S 
ATOM      9  C   UNL     1       5.746   4.634  18.100  0.00  0.00    +0.000 A 
ATOM     10  N   UNL     1       7.073   4.722  18.273  0.00  0.00    +0.000 NA
ATOM     11  H   UNL     1       4.302   4.044  14.481  0.00  0.00    +0.000 HD
ENDROOT
BRANCH   7  12
ATOM     12  C   UNL     1       1.901   4.674  19.039  0.00  0.00    +0.000 C 
ATOM     13  C   UNL     1       1.080   3.395  18.794  0.00  0.00    +0.000 C 
ATOM     14  C   UNL     1       1.370   2.254  19.769  0.00  0.00    +0.000 C 
ATOM     15  C   UNL     1       1.307   2.715  21.219  0.00  0.00    +0.000 C 
ATOM     16  C   UNL     1       2.218   3.908  21.480  0.00  0.00    +0.000 C 
ATOM     17  C   UNL     1       1.937   5.066  20.524  0.00  0.00    +0.000 C 
ENDBRANCH   7  12
BRANCH   4  18
ATOM     18  C   UNL     1       6.070   4.001  13.269  0.00  0.00    +0.000 C 
ATOM     19  C   UNL     1       6.307   2.725  12.515  0.00  0.00    +0.000 C 
ATOM     20  C   UNL     1       5.341   3.737  11.977  0.00  0.00    +0.000 C 
ENDBRANCH   4  18
TORSDOF 2
ENDMDL
MODEL 3
REMARK VINA RESULT:      -7.7      1.917      4.117
REMARK  Name = 
REMARK  2 active torsions:
REMARK  status: ('A' for Active; 'I' for Inactive)
REMARK    1  A    between atoms: N_4  and  C_5
REMARK    2  A    between atoms: C_10  and  C_11
REMARK                            x       y       z     vdW  Elec       q    Type
REMARK                         _______ _______ _______ _____ _____    ______ ____
ROOT
ATOM      1  C   UNL     1       7.025   6.271  16.471  0.00  0.00    +0.000 A 
ATOM      2  N   UNL     1       6.725   5.522  15.399  0.00  0.00    +0.000 NA
ATOM      3  C   UNL     1       5.904   4.458  15.557  0.00  0.00    +0.000 A 
ATOM      4  N   UNL     1       5.577   3.632  14.474  0.00  0.00    +0.000 N 
ATOM      5  C   UNL     1       5.389   4.198  16.842  0.00  0.00    +0.000 A 
ATOM      6  C   UNL     1       4.501   3.190  17.352  0.00  0.00    +0.000 A 
ATOM      7  C   UNL     1       4.235   3.314  18.702  0.00  0.00    +0.000 A 
ATOM      8  S   UNL     1       5.103   4.645  19.362  0.00  0.00    +0.000 S 
ATOM      9  C   UNL     1       5.782   5.056  17.854  0.00  0.00    +0.000 A 
ATOM     10  N   UNL     1       6.601   6.111  17.730  0.00  0.00    +0.000 NA
ATOM     11  H   UNL     1       4.899   2.911  14.667  0.00  0.00    +0.000 HD
ENDROOT
BRANCH   7  12
ATOM     12  C   UNL     1       3.337   2.478  19.598  0.00  0.00    +0.000 C 
ATOM     13  C   UNL     1       2.917   3.230  20.874  0.00  0.00    +0.000 C 
ATOM     14  C   UNL     1       1.731   4.178  20.694  0.00  0.00    +0.000 C 
ATOM     15  C   UNL     1       0.555   3.495  20.010  0.00  0.00    +0.000 C 
ATOM     16  C   UNL     1       0.956   2.857  18.685  0.00  0.00    +0.000 C 
ATOM     17  C   UNL     1       2.132   1.894  18.843  0.00  0.00    +0.000 C 
ENDBRANCH   7  12
BRANCH   4  18
ATOM     18  C   UNL     1       5.959   3.928  13.106  0.00  0.00    +0.000 C 
ATOM     19  C   UNL     1       6.374   2.843  12.155  0.00  0.00    +0.000 C 
ATOM     20  C   UNL     1       5.038   3.503  11.991  0.00  0.00    +0.000 C 
ENDBRANCH   4  18
TORSDOF 2
ENDMDL
MODEL 4
REMARK VINA RESULT:      -7.5      3.045      6.027
REMARK  Name = 
REMARK  2 active torsions:
REMARK  status: ('A' for Active; 'I' for Inactive)
REMARK    1  A    between atoms: N_4  and  C_5
REMARK    2  A    between atoms: C_10  and  C_11
REMARK                            x       y       z     vdW  Elec       q    Type
REMARK                         _______ _______ _______ _____ _____    ______ ____
ROOT
ATOM      1  C   UNL     1       1.023   3.673  20.325  0.00  0.00    +0.000 A 
ATOM      2  N   UNL     1       1.018   4.976  20.647  0.00  0.00    +0.000 NA
ATOM      3  C   UNL     1       2.042   5.755  20.227  0.00  0.00    +0.000 A 
ATOM      4  N   UNL     1       2.096   7.116  20.553  0.00  0.00    +0.000 N 
ATOM      5  C   UNL     1       3.059   5.160  19.454  0.00  0.00    +0.000 A 
ATOM      6  C   UNL     1       4.252   5.679  18.844  0.00  0.00    +0.000 A 
ATOM      7  C   UNL     1       4.976   4.734  18.144  0.00  0.00    +0.000 A 
ATOM      8  S   UNL     1       4.217   3.194  18.259  0.00  0.00    +0.000 S 
ATOM      9  C   UNL     1       2.932   3.807  19.196  0.00  0.00    +0.000 A 
ATOM     10  N   UNL     1       1.936   3.008  19.608  0.00  0.00    +0.000 NA
ATOM     11  H   UNL     1       2.852   7.634  20.134  0.00  0.00    +0.000 HD
ENDROOT
BRANCH   7  12
ATOM     12  C   UNL     1       6.260   4.886  17.346  0.00  0.00    +0.000 C 
ATOM     13  C   UNL     1       6.271   6.164  16.488  0.00  0.00    +0.000 C 
ATOM     14  C   UNL     1       6.675   7.433  17.239  0.00  0.00    +0.000 C 
ATOM     15  C   UNL     1       7.970   7.246  18.017  0.00  0.00    +0.000 C 
ATOM     16  C   UNL     1       7.905   6.047  18.956  0.00  0.00    +0.000 C 
ATOM     17  C   UNL     1       7.516   4.764  18.223  0.00  0.00    +0.000 C 
ENDBRANCH   7  12
BRANCH   4  18
ATOM     18  C   UNL     1       1.014   7.814  21.222  0.00  0.00    +0.000 C 
ATOM     19  C   UNL     1       1.272   9.007  22.096  0.00  0.00    +0.000 C 
ATOM     20  C   UNL     1       0.645   9.197  20.748  0.00  0.00    +0.000 C 
ENDBRANCH   4  18
TORSDOF 2
ENDMDL
MODEL 5
REMARK VINA RESULT:      -7.2      2.320      4.522
REMARK  Name = 
REMARK  2 active torsions:
REMARK  status: ('A' for Active; 'I' for Inactive)
REMARK    1  A    between atoms: N_4  and  C_5
REMARK    2  A    between atoms: C_10  and  C_11
REMARK                            x       y       z     vdW  Elec       q    Type
REMARK                         _______ _______ _______ _____ _____    ______ ____
ROOT
ATOM      1  C   UNL     1       7.732   5.949  15.018  0.00  0.00    +0.000 A 
ATOM      2  N   UNL     1       7.124   5.110  14.165  0.00  0.00    +0.000 NA
ATOM      3  C   UNL     1       6.133   4.314  14.629  0.00  0.00    +0.000 A 
ATOM      4  N   UNL     1       5.481   3.406  13.786  0.00  0.00    +0.000 N 
ATOM      5  C   UNL     1       5.776   4.418  15.989  0.00  0.00    +0.000 A 
ATOM      6  C   UNL     1       4.785   3.755  16.791  0.00  0.00    +0.000 A 
ATOM      7  C   UNL     1       4.758   4.178  18.105  0.00  0.00    +0.000 A 
ATOM      8  S   UNL     1       5.974   5.366  18.375  0.00  0.00    +0.000 S 
ATOM      9  C   UNL     1       6.487   5.328  16.750  0.00  0.00    +0.000 A 
ATOM     10  N   UNL     1       7.480   6.121  16.321  0.00  0.00    +0.000 NA
ATOM     11  H   UNL     1       4.705   2.911  14.197  0.00  0.00    +0.000 HD
ENDROOT
BRANCH   7  12
ATOM     12  C   UNL     1       3.852   3.752  19.247  0.00  0.00    +0.000 C 
ATOM     13  C   UNL     1       2.527   4.535  19.269  0.00  0.00    +0.000 C 
ATOM     14  C   UNL     1       1.455   4.002  18.317  0.00  0.00    +0.000 C 
ATOM     15  C   UNL     1       1.245   2.503  18.479  0.00  0.00    +0.000 C 
ATOM     16  C   UNL     1       2.547   1.724  18.335  0.00  0.00    +0.000 C 
ATOM     17  C   UNL     1       3.629   2.232  19.286  0.00  0.00    +0.000 C 
ENDBRANCH   7  12
BRANCH   4  18
ATOM     18  C   UNL     1       5.705   3.353  12.353  0.00  0.00    +0.000 C 
ATOM     19  C   UNL     1       5.499   2.087  11.573  0.00  0.00    +0.000 C 
ATOM     20  C   UNL     1       4.514   3.209  11.441  0.00  0.00    +0.000 C 
ENDBRANCH   4  18
TORSDOF 2
ENDMDL
MODEL 6
REMARK VINA RESULT:      -7.2      2.950      5.423
REMARK  Name = 
REMARK  2 active torsions:
REMARK  status: ('A' for Active; 'I' for Inactive)
REMARK    1  A    between atoms: N_4  and  C_5
REMARK    2  A    between atoms: C_10  and  C_11
REMARK                            x       y       z     vdW  Elec       q    Type
REMARK                         _______ _______ _______ _____ _____    ______ ____
ROOT
ATOM      1  C   UNL     1       8.023   5.293  13.028  0.00  0.00    +0.000 A 
ATOM      2  N   UNL     1       7.344   4.267  12.490  0.00  0.00    +0.000 NA
ATOM      3  C   UNL     1       6.447   3.606  13.258  0.00  0.00    +0.000 A 
ATOM      4  N   UNL     1       5.729   2.515  12.752  0.00  0.00    +0.000 N 
ATOM      5  C   UNL     1       6.257   4.039  14.585  0.00  0.00    +0.000 A 
ATOM      6  C   UNL     1       5.397   3.590  15.645  0.00  0.00    +0.000 A 
ATOM      7  C   UNL     1       5.517   4.324  16.808  0.00  0.00    +0.000 A 
ATOM      8  S   UNL     1       6.713   5.547  16.623  0.00  0.00    +0.000 S 
ATOM      9  C   UNL     1       7.023   5.112  15.004  0.00  0.00    +0.000 A 
ATOM     10  N   UNL     1       7.927   5.780  14.271  0.00  0.00    +0.000 NA
ATOM     11  H   UNL     1       5.028   2.133  13.368  0.00  0.00    +0.000 HD
ENDROOT
BRANCH   7  12
ATOM     12  C   UNL     1       4.774   4.189  18.127  0.00  0.00    +0.000 C 
ATOM     13  C   UNL     1       4.175   5.524  18.603  0.00  0.00    +0.000 C 
ATOM     14  C   UNL     1       2.831   5.883  17.968  0.00  0.00    +0.000 C 
ATOM     15  C   UNL     1       1.835   4.735  18.058  0.00  0.00    +0.000 C 
ATOM     16  C   UNL     1       2.394   3.445  17.471  0.00  0.00    +0.000 C 
ATOM     17  C   UNL     1       3.732   3.059  18.102  0.00  0.00    +0.000 C 
ENDBRANCH   7  12
BRANCH   4  18
ATOM     18  C   UNL     1       5.777   2.112  11.359  0.00  0.00    +0.000 C 
ATOM     19  C   UNL     1       7.042   1.600  10.733  0.00  0.00    +0.000 C 
ATOM     20  C   UNL     1       5.925   0.646  11.036  0.00  0.00    +0.000 C 
ENDBRANCH   4  18
TORSDOF 2
ENDMDL
MODEL 7
REMARK VINA RESULT:      -7.2      0.972      1.715
REMARK  Name = 
REMARK  2 active torsions:
REMARK  status: ('A' for Active; 'I' for Inactive)
REMARK    1  A    between atoms: N_4  and  C_5
REMARK    2  A    between atoms: C_10  and  C_11
REMARK                            x       y       z     vdW  Elec       q    Type
REMARK                         _______ _______ _______ _____ _____    ______ ____
ROOT
ATOM      1  C   UNL     1       6.592   5.014  15.139  0.00  0.00    +0.000 A 
ATOM      2  N   UNL     1       7.081   5.972  15.942  0.00  0.00    +0.000 NA
ATOM      3  C   UNL     1       6.661   6.022  17.228  0.00  0.00    +0.000 A 
ATOM      4  N   UNL     1       7.123   7.015  18.100  0.00  0.00    +0.000 N 
ATOM      5  C   UNL     1       5.740   5.050  17.666  0.00  0.00    +0.000 A 
ATOM      6  C   UNL     1       5.113   4.802  18.935  0.00  0.00    +0.000 A 
ATOM      7  C   UNL     1       4.269   3.709  18.935  0.00  0.00    +0.000 A 
ATOM      8  S   UNL     1       4.211   2.999  17.369  0.00  0.00    +0.000 S 
ATOM      9  C   UNL     1       5.325   4.120  16.730  0.00  0.00    +0.000 A 
ATOM     10  N   UNL     1       5.714   4.052  15.448  0.00  0.00    +0.000 NA
ATOM     11  H   UNL     1       6.818   6.928  19.057  0.00  0.00    +0.000 HD
ENDROOT
BRANCH   7  12
ATOM     12  C   UNL     1       3.454   3.107  20.068  0.00  0.00    +0.000 C 
ATOM     13  C   UNL     1       2.860   4.181  20.997  0.00  0.00    +0.000 C 
ATOM     14  C   UNL     1       1.561   4.811  20.495  0.00  0.00    +0.000 C 
ATOM     15  C   UNL     1       0.536   3.759  20.095  0.00  0.00    +0.000 C 
ATOM     16  C   UNL     1       1.097   2.771  19.080  0.00  0.00    +0.000 C 
ATOM     17  C   UNL     1       2.390   2.118  19.566  0.00  0.00    +0.000 C 
ENDBRANCH   7  12
BRANCH   4  18
ATOM     18  C   UNL     1       8.174   7.952  17.750  0.00  0.00    +0.000 C 
ATOM     19  C   UNL     1       7.915   9.429  17.679  0.00  0.00    +0.000 C 
ATOM     20  C   UNL     1       8.710   8.870  18.820  0.00  0.00    +0.000 C 
ENDBRANCH   4  18
TORSDOF 2
ENDMDL
MODEL 8
REMARK VINA RESULT:      -7.1      2.931      5.053
REMARK  Name = 
REMARK  2 active torsions:
REMARK  status: ('A' for Active; 'I' for Inactive)
REMARK    1  A    between atoms: N_4  and  C_5
REMARK    2  A    between atoms: C_10  and  C_11
REMARK                            x       y       z     vdW  Elec       q    Type
REMARK                         _______ _______ _______ _____ _____    ______ ____
ROOT
ATOM      1  C   UNL     1       7.739   5.109  13.398  0.00  0.00    +0.000 A 
ATOM      2  N   UNL     1       6.760   4.471  12.737  0.00  0.00    +0.000 NA
ATOM      3  C   UNL     1       5.678   4.043  13.430  0.00  0.00    +0.000 A 
ATOM      4  N   UNL     1       4.639   3.354  12.792  0.00  0.00    +0.000 N 
ATOM      5  C   UNL     1       5.626   4.306  14.813  0.00  0.00    +0.000 A 
ATOM      6  C   UNL     1       4.646   4.018  15.824  0.00  0.00    +0.000 A 
ATOM      7  C   UNL     1       4.991   4.479  17.080  0.00  0.00    +0.000 A 
ATOM      8  S   UNL     1       6.535   5.236  17.036  0.00  0.00    +0.000 S 
ATOM      9  C   UNL     1       6.705   4.976  15.360  0.00  0.00    +0.000 A 
ATOM     10  N   UNL     1       7.794   5.402  14.702  0.00  0.00    +0.000 NA
ATOM     11  H   UNL     1       3.840   3.142  13.369  0.00  0.00    +0.000 HD
ENDROOT
BRANCH   7  12
ATOM     12  C   UNL     1       4.224   4.402  18.390  0.00  0.00    +0.000 C 
ATOM     13  C   UNL     1       2.858   5.107  18.313  0.00  0.00    +0.000 C 
ATOM     14  C   UNL     1       1.741   4.267  17.695  0.00  0.00    +0.000 C 
ATOM     15  C   UNL     1       1.646   2.888  18.333  0.00  0.00    +0.000 C 
ATOM     16  C   UNL     1       2.977   2.147  18.295  0.00  0.00    +0.000 C 
ATOM     17  C   UNL     1       4.107   2.964  18.920  0.00  0.00    +0.000 C 
ENDBRANCH   7  12
BRANCH   4  18
ATOM     18  C   UNL     1       4.570   3.178  11.354  0.00  0.00    +0.000 C 
ATOM     19  C   UNL     1       3.336   2.640  10.688  0.00  0.00    +0.000 C 
ATOM     20  C   UNL     1       3.675   4.094  10.557  0.00  0.00    +0.000 C 
ENDBRANCH   4  18
TORSDOF 2
ENDMDL
MODEL 9
REMARK VINA RESULT:      -7.1      2.225      4.213
REMARK  Name = 
REMARK  2 active torsions:
REMARK  status: ('A' for Active; 'I' for Inactive)
REMARK    1  A    between atoms: N_4  and  C_5
REMARK    2  A    between atoms: C_10  and  C_11
REMARK                            x       y       z     vdW  Elec       q    Type
REMARK                         _______ _______ _______ _____ _____    ______ ____
ROOT
ATOM      1  C   UNL     1       7.635   5.640  15.305  0.00  0.00    +0.000 A 
ATOM      2  N   UNL     1       6.984   4.957  14.351  0.00  0.00    +0.000 NA
ATOM      3  C   UNL     1       5.740   4.493  14.616  0.00  0.00    +0.000 A 
ATOM      4  N   UNL     1       5.026   3.756  13.663  0.00  0.00    +0.000 N 
ATOM      5  C   UNL     1       5.182   4.767  15.881  0.00  0.00    +0.000 A 
ATOM      6  C   UNL     1       3.913   4.449  16.476  0.00  0.00    +0.000 A 
ATOM      7  C   UNL     1       3.764   4.936  17.760  0.00  0.00    +0.000 A 
ATOM      8  S   UNL     1       5.193   5.754  18.259  0.00  0.00    +0.000 S 
ATOM      9  C   UNL     1       5.967   5.485  16.764  0.00  0.00    +0.000 A 
ATOM     10  N   UNL     1       7.205   5.948  16.535  0.00  0.00    +0.000 NA
ATOM     11  H   UNL     1       4.080   3.518  13.917  0.00  0.00    +0.000 HD
ENDROOT
BRANCH   7  12
ATOM     12  C   UNL     1       2.578   4.841  18.706  0.00  0.00    +0.000 C 
ATOM     13  C   UNL     1       1.445   3.967  18.140  0.00  0.00    +0.000 C 
ATOM     14  C   UNL     1       1.635   2.464  18.346  0.00  0.00    +0.000 C 
ATOM     15  C   UNL     1       1.961   2.124  19.794  0.00  0.00    +0.000 C 
ATOM     16  C   UNL     1       3.163   2.907  20.308  0.00  0.00    +0.000 C 
ATOM     17  C   UNL     1       2.990   4.414  20.124  0.00  0.00    +0.000 C 
ENDBRANCH   7  12
BRANCH   4  18
ATOM     18  C   UNL     1       5.488   3.564  12.301  0.00  0.00    +0.000 C 
ATOM     19  C   UNL     1       5.497   2.206  11.660  0.00  0.00    +0.000 C 
ATOM     20  C   UNL     1       4.476   3.219  11.238  0.00  0.00    +0.000 C 
ENDBRANCH   4  18
TORSDOF 2
ENDMDL
