MODEL 1
REMARK VINA RESULT:      -7.0      0.000      0.000
REMARK  Name = 
REMARK  8 active torsions:
REMARK  status: ('A' for Active; 'I' for Inactive)
REMARK    1  A    between atoms: C_1  and  C_2
REMARK    2  A    between atoms: C_2  and  C_3
REMARK    3  A    between atoms: C_3  and  C_4
REMARK    4  A    between atoms: C_4  and  C_5
REMARK    5  A    between atoms: N_9  and  C_10
REMARK    6  A    between atoms: C_10  and  C_11
REMARK    7  A    between atoms: C_14  and  C_15
REMARK    8  A    between atoms: N_16  and  C_17
REMARK                            x       y       z     vdW  Elec       q    Type
REMARK                         _______ _______ _______ _____ _____    ______ ____
ROOT
ATOM      1  C   UNL     1       2.097   4.101  19.552  0.00  0.00    +0.000 C 
ATOM      2  C   UNL     1       1.686   3.359  18.250  0.00  0.00    +0.000 C 
ATOM      3  C   UNL     1       2.571   3.510  17.006  0.00  0.00    +0.000 C 
ATOM      4  C   UNL     1       4.075   3.211  17.122  0.00  0.00    +0.000 C 
ATOM      5  N   UNL     1       4.813   4.211  17.879  0.00  0.00    +0.000 NA
ATOM      6  C   UNL     1       4.744   4.092  19.336  0.00  0.00    +0.000 C 
ATOM      7  C   UNL     1       3.476   3.552  19.993  0.00  0.00    +0.000 C 
ENDROOT
BRANCH   1   9
ATOM      8  C   UNL     1       1.558   2.573  21.638  0.00  0.00    +0.000 C 
ATOM      9  C   UNL     1       1.110   3.686  20.701  0.00  0.00    +0.000 C 
ENDBRANCH   1   9
BRANCH   1  10
ATOM     10  C   UNL     1       2.069   5.639  19.321  0.00  0.00    +0.000 C 
ATOM     11  C   UNL     1       1.843   6.504  20.558  0.00  0.00    +0.000 C 
ENDBRANCH   1  10
BRANCH   5  12
ATOM     12  C   UNL     1       6.221   4.390  17.443  0.00  0.00    +0.000 C 
BRANCH  12  13
ATOM     13  C   UNL     1       6.754   5.800  17.442  0.00  0.00    +0.000 A 
ATOM     14  N   UNL     1       6.555   6.685  16.486  0.00  0.00    +0.000 NA
ATOM     15  N   UNL     1       7.196   7.849  16.815  0.00  0.00    +0.000 NA
ATOM     16  C   UNL     1       7.815   7.664  17.963  0.00  0.00    +0.000 A 
ATOM     17  C   UNL     1       8.629   8.661  18.686  0.00  0.00    +0.000 C 
ATOM     18  N   UNL     1       7.590   6.369  18.380  0.00  0.00    +0.000 N 
ATOM     19  C   UNL     1       8.129   5.757  19.564  0.00  0.00    +0.000 C 
ENDBRANCH  12  13
ENDBRANCH   5  12
TORSDOF 4
ENDMDL
MODEL 2
REMARK VINA RESULT:      -6.6      1.023      1.559
REMARK  Name = 
REMARK  8 active torsions:
REMARK  status: ('A' for Active; 'I' for Inactive)
REMARK    1  A    between atoms: C_1  and  C_2
REMARK    2  A    between atoms: C_2  and  C_3
REMARK    3  A    between atoms: C_3  and  C_4
REMARK    4  A    between atoms: C_4  and  C_5
REMARK    5  A    between atoms: N_9  and  C_10
REMARK    6  A    between atoms: C_10  and  C_11
REMARK    7  A    between atoms: C_14  and  C_15
REMARK    8  A    between atoms: N_16  and  C_17
REMARK                            x       y       z     vdW  Elec       q    Type
REMARK                         _______ _______ _______ _____ _____    ______ ____
ROOT
ATOM      1  C   UNL     1       2.043   3.603  19.945  0.00  0.00    +0.000 C 
ATOM      2  C   UNL     1       1.418   3.867  18.547  0.00  0.00    +0.000 C 
ATOM      3  C   UNL     1       2.301   4.471  17.448  0.00  0.00    +0.000 C 
ATOM      4  C   UNL     1       3.639   3.793  17.112  0.00  0.00    +0.000 C 
ATOM      5  N   UNL     1       4.654   3.958  18.143  0.00  0.00    +0.000 NA
ATOM      6  C   UNL     1       4.557   3.053  19.289  0.00  0.00    +0.000 C 
ATOM      7  C   UNL     1       3.187   2.576  19.764  0.00  0.00    +0.000 C 
ENDROOT
BRANCH   1   9
ATOM      8  C   UNL     1       1.446   2.363  22.199  0.00  0.00    +0.000 C 
ATOM      9  C   UNL     1       0.981   2.872  20.842  0.00  0.00    +0.000 C 
ENDBRANCH   1   9
BRANCH   1  10
ATOM     10  C   UNL     1       2.491   4.945  20.592  0.00  0.00    +0.000 C 
ATOM     11  C   UNL     1       1.441   6.051  20.651  0.00  0.00    +0.000 C 
ENDBRANCH   1  10
BRANCH   5  12
ATOM     12  C   UNL     1       6.047   3.993  17.630  0.00  0.00    +0.000 C 
BRANCH  12  13
ATOM     13  C   UNL     1       6.857   5.220  17.955  0.00  0.00    +0.000 A 
ATOM     14  N   UNL     1       7.800   5.285  18.874  0.00  0.00    +0.000 NA
ATOM     15  N   UNL     1       8.310   6.554  18.902  0.00  0.00    +0.000 NA
ATOM     16  C   UNL     1       7.655   7.278  18.016  0.00  0.00    +0.000 A 
ATOM     17  C   UNL     1       7.881   8.705  17.717  0.00  0.00    +0.000 C 
ATOM     18  N   UNL     1       6.703   6.481  17.417  0.00  0.00    +0.000 N 
ATOM     19  C   UNL     1       5.749   6.903  16.428  0.00  0.00    +0.000 C 
ENDBRANCH  12  13
ENDBRANCH   5  12
TORSDOF 4
ENDMDL
MODEL 3
REMARK VINA RESULT:      -6.5      1.770      3.318
REMARK  Name = 
REMARK  8 active torsions:
REMARK  status: ('A' for Active; 'I' for Inactive)
REMARK    1  A    between atoms: C_1  and  C_2
REMARK    2  A    between atoms: C_2  and  C_3
REMARK    3  A    between atoms: C_3  and  C_4
REMARK    4  A    between atoms: C_4  and  C_5
REMARK    5  A    between atoms: N_9  and  C_10
REMARK    6  A    between atoms: C_10  and  C_11
REMARK    7  A    between atoms: C_14  and  C_15
REMARK    8  A    between atoms: N_16  and  C_17
REMARK                            x       y       z     vdW  Elec       q    Type
REMARK                         _______ _______ _______ _____ _____    ______ ____
ROOT
ATOM      1  C   UNL     1       2.337   4.013  19.861  0.00  0.00    +0.000 C 
ATOM      2  C   UNL     1       3.474   3.024  20.241  0.00  0.00    +0.000 C 
ATOM      3  C   UNL     1       4.779   3.059  19.436  0.00  0.00    +0.000 C 
ATOM      4  C   UNL     1       5.519   4.397  19.275  0.00  0.00    +0.000 C 
ATOM      5  N   UNL     1       4.844   5.335  18.390  0.00  0.00    +0.000 NA
ATOM      6  C   UNL     1       3.738   6.091  18.980  0.00  0.00    +0.000 C 
ATOM      7  C   UNL     1       2.876   5.451  20.065  0.00  0.00    +0.000 C 
ENDROOT
BRANCH   1   9
ATOM      8  C   UNL     1       1.240   2.691  21.867  0.00  0.00    +0.000 C 
ATOM      9  C   UNL     1       1.171   3.867  20.903  0.00  0.00    +0.000 C 
ENDBRANCH   1   9
BRANCH   1  10
ATOM     10  C   UNL     1       1.836   3.722  18.418  0.00  0.00    +0.000 C 
ATOM     11  C   UNL     1       1.350   2.302  18.145  0.00  0.00    +0.000 C 
ENDBRANCH   1  10
BRANCH   5  12
ATOM     12  C   UNL     1       5.757   6.246  17.655  0.00  0.00    +0.000 C 
BRANCH  12  13
ATOM     13  C   UNL     1       6.341   5.724  16.368  0.00  0.00    +0.000 A 
ATOM     14  N   UNL     1       7.499   6.091  15.857  0.00  0.00    +0.000 NA
ATOM     15  N   UNL     1       7.700   5.424  14.679  0.00  0.00    +0.000 NA
ATOM     16  C   UNL     1       6.645   4.667  14.453  0.00  0.00    +0.000 A 
ATOM     17  C   UNL     1       6.440   3.779  13.293  0.00  0.00    +0.000 C 
ATOM     18  N   UNL     1       5.745   4.852  15.482  0.00  0.00    +0.000 N 
ATOM     19  C   UNL     1       4.447   4.242  15.587  0.00  0.00    +0.000 C 
ENDBRANCH  12  13
ENDBRANCH   5  12
TORSDOF 4
ENDMDL
MODEL 4
REMARK VINA RESULT:      -6.4      2.057      6.005
REMARK  Name = 
REMARK  8 active torsions:
REMARK  status: ('A' for Active; 'I' for Inactive)
REMARK    1  A    between atoms: C_1  and  C_2
REMARK    2  A    between atoms: C_2  and  C_3
REMARK    3  A    between atoms: C_3  and  C_4
REMARK    4  A    between atoms: C_4  and  C_5
REMARK    5  A    between atoms: N_9  and  C_10
REMARK    6  A    between atoms: C_10  and  C_11
REMARK    7  A    between atoms: C_14  and  C_15
REMARK    8  A    between atoms: N_16  and  C_17
REMARK                            x       y       z     vdW  Elec       q    Type
REMARK                         _______ _______ _______ _____ _____    ______ ____
ROOT
ATOM      1  C   UNL     1       7.116   6.100  17.288  0.00  0.00    +0.000 C 
ATOM      2  C   UNL     1       7.383   5.523  15.870  0.00  0.00    +0.000 C 
ATOM      3  C   UNL     1       6.589   4.292  15.414  0.00  0.00    +0.000 C 
ATOM      4  C   UNL     1       5.054   4.324  15.497  0.00  0.00    +0.000 C 
ATOM      5  N   UNL     1       4.541   4.262  16.858  0.00  0.00    +0.000 NA
ATOM      6  C   UNL     1       4.542   5.523  17.602  0.00  0.00    +0.000 C 
ATOM      7  C   UNL     1       5.637   6.555  17.342  0.00  0.00    +0.000 C 
ENDROOT
BRANCH   1   9
ATOM      8  C   UNL     1       7.179   8.723  17.585  0.00  0.00    +0.000 C 
ATOM      9  C   UNL     1       7.952   7.418  17.462  0.00  0.00    +0.000 C 
ENDBRANCH   1   9
BRANCH   1  10
ATOM     10  C   UNL     1       7.498   5.050  18.371  0.00  0.00    +0.000 C 
ATOM     11  C   UNL     1       7.827   5.598  19.757  0.00  0.00    +0.000 C 
ENDBRANCH   1  10
BRANCH   5  12
ATOM     12  C   UNL     1       3.223   3.591  16.984  0.00  0.00    +0.000 C 
BRANCH  12  13
ATOM     13  C   UNL     1       2.564   3.643  18.338  0.00  0.00    +0.000 A 
ATOM     14  N   UNL     1       1.485   4.340  18.630  0.00  0.00    +0.000 NA
ATOM     15  N   UNL     1       1.181   4.161  19.952  0.00  0.00    +0.000 NA
ATOM     16  C   UNL     1       2.097   3.374  20.479  0.00  0.00    +0.000 A 
ATOM     17  C   UNL     1       2.156   2.921  21.882  0.00  0.00    +0.000 C 
ATOM     18  N   UNL     1       3.012   3.049  19.500  0.00  0.00    +0.000 N 
ATOM     19  C   UNL     1       4.191   2.246  19.678  0.00  0.00    +0.000 C 
ENDBRANCH  12  13
ENDBRANCH   5  12
TORSDOF 4
ENDMDL
MODEL 5
REMARK VINA RESULT:      -6.4      1.981      6.332
REMARK  Name = 
REMARK  8 active torsions:
REMARK  status: ('A' for Active; 'I' for Inactive)
REMARK    1  A    between atoms: C_1  and  C_2
REMARK    2  A    between atoms: C_2  and  C_3
REMARK    3  A    between atoms: C_3  and  C_4
REMARK    4  A    between atoms: C_4  and  C_5
REMARK    5  A    between atoms: N_9  and  C_10
REMARK    6  A    between atoms: C_10  and  C_11
REMARK    7  A    between atoms: C_14  and  C_15
REMARK    8  A    between atoms: N_16  and  C_17
REMARK                            x       y       z     vdW  Elec       q    Type
REMARK                         _______ _______ _______ _____ _____    ______ ____
ROOT
ATOM      1  C   UNL     1       6.740   6.450  17.419  0.00  0.00    +0.000 C 
ATOM      2  C   UNL     1       6.971   5.198  16.528  0.00  0.00    +0.000 C 
ATOM      3  C   UNL     1       5.944   4.059  16.578  0.00  0.00    +0.000 C 
ATOM      4  C   UNL     1       4.460   4.385  16.348  0.00  0.00    +0.000 C 
ATOM      5  N   UNL     1       3.843   5.110  17.449  0.00  0.00    +0.000 NA
ATOM      6  C   UNL     1       4.086   6.553  17.483  0.00  0.00    +0.000 C 
ATOM      7  C   UNL     1       5.413   7.110  16.971  0.00  0.00    +0.000 C 
ENDROOT
BRANCH   1   9
ATOM      8  C   UNL     1       7.879   8.775  17.943  0.00  0.00    +0.000 C 
ATOM      9  C   UNL     1       7.850   7.513  17.093  0.00  0.00    +0.000 C 
ENDBRANCH   1   9
BRANCH   1  10
ATOM     10  C   UNL     1       6.775   6.050  18.922  0.00  0.00    +0.000 C 
ATOM     11  C   UNL     1       8.078   5.440  19.429  0.00  0.00    +0.000 C 
ENDBRANCH   1  10
BRANCH   5  12
ATOM     12  C   UNL     1       2.396   4.828  17.632  0.00  0.00    +0.000 C 
BRANCH  12  13
ATOM     13  C   UNL     1       2.036   3.780  18.652  0.00  0.00    +0.000 A 
ATOM     14  N   UNL     1       1.734   2.527  18.378  0.00  0.00    +0.000 NA
ATOM     15  N   UNL     1       1.448   1.871  19.545  0.00  0.00    +0.000 NA
ATOM     16  C   UNL     1       1.547   2.735  20.535  0.00  0.00    +0.000 A 
ATOM     17  C   UNL     1       1.321   2.453  21.966  0.00  0.00    +0.000 C 
ATOM     18  N   UNL     1       1.884   3.965  20.011  0.00  0.00    +0.000 N 
ATOM     19  C   UNL     1       2.043   5.185  20.755  0.00  0.00    +0.000 C 
ENDBRANCH  12  13
ENDBRANCH   5  12
TORSDOF 4
ENDMDL
MODEL 6
REMARK VINA RESULT:      -6.3      1.765      3.182
REMARK  Name = 
REMARK  8 active torsions:
REMARK  status: ('A' for Active; 'I' for Inactive)
REMARK    1  A    between atoms: C_1  and  C_2
REMARK    2  A    between atoms: C_2  and  C_3
REMARK    3  A    between atoms: C_3  and  C_4
REMARK    4  A    between atoms: C_4  and  C_5
REMARK    5  A    between atoms: N_9  and  C_10
REMARK    6  A    between atoms: C_10  and  C_11
REMARK    7  A    between atoms: C_14  and  C_15
REMARK    8  A    between atoms: N_16  and  C_17
REMARK                            x       y       z     vdW  Elec       q    Type
REMARK                         _______ _______ _______ _____ _____    ______ ____
ROOT
ATOM      1  C   UNL     1       1.774   3.867  19.868  0.00  0.00    +0.000 C 
ATOM      2  C   UNL     1       1.301   5.346  19.931  0.00  0.00    +0.000 C 
ATOM      3  C   UNL     1       2.348   6.445  20.154  0.00  0.00    +0.000 C 
ATOM      4  C   UNL     1       3.572   6.507  19.226  0.00  0.00    +0.000 C 
ATOM      5  N   UNL     1       4.526   5.429  19.445  0.00  0.00    +0.000 NA
ATOM      6  C   UNL     1       4.199   4.146  18.820  0.00  0.00    +0.000 C 
ATOM      7  C   UNL     1       2.738   3.730  18.664  0.00  0.00    +0.000 C 
ENDROOT
BRANCH   1   9
ATOM      8  C   UNL     1       0.786   1.809  18.541  0.00  0.00    +0.000 C 
ATOM      9  C   UNL     1       0.545   2.959  19.508  0.00  0.00    +0.000 C 
ENDBRANCH   1   9
BRANCH   1  10
ATOM     10  C   UNL     1       2.397   3.448  21.231  0.00  0.00    +0.000 C 
ATOM     11  C   UNL     1       1.591   2.457  22.066  0.00  0.00    +0.000 C 
ENDBRANCH   1  10
BRANCH   5  12
ATOM     12  C   UNL     1       5.937   5.795  19.160  0.00  0.00    +0.000 C 
BRANCH  12  13
ATOM     13  C   UNL     1       6.528   5.264  17.880  0.00  0.00    +0.000 A 
ATOM     14  N   UNL     1       7.554   4.441  17.803  0.00  0.00    +0.000 NA
ATOM     15  N   UNL     1       7.823   4.184  16.486  0.00  0.00    +0.000 NA
ATOM     16  C   UNL     1       6.976   4.878  15.753  0.00  0.00    +0.000 A 
ATOM     17  C   UNL     1       6.911   4.898  14.279  0.00  0.00    +0.000 C 
ATOM     18  N   UNL     1       6.159   5.603  16.595  0.00  0.00    +0.000 N 
ATOM     19  C   UNL     1       5.131   6.522  16.189  0.00  0.00    +0.000 C 
ENDBRANCH  12  13
ENDBRANCH   5  12
TORSDOF 4
ENDMDL
MODEL 7
REMARK VINA RESULT:      -6.3      1.040      1.111
REMARK  Name = 
REMARK  8 active torsions:
REMARK  status: ('A' for Active; 'I' for Inactive)
REMARK    1  A    between atoms: C_1  and  C_2
REMARK    2  A    between atoms: C_2  and  C_3
REMARK    3  A    between atoms: C_3  and  C_4
REMARK    4  A    between atoms: C_4  and  C_5
REMARK    5  A    between atoms: N_9  and  C_10
REMARK    6  A    between atoms: C_10  and  C_11
REMARK    7  A    between atoms: C_14  and  C_15
REMARK    8  A    between atoms: N_16  and  C_17
REMARK                            x       y       z     vdW  Elec       q    Type
REMARK                         _______ _______ _______ _____ _____    ______ ____
ROOT
ATOM      1  C   UNL     1       1.968   3.484  19.792  0.00  0.00    +0.000 C 
ATOM      2  C   UNL     1       1.205   3.994  18.538  0.00  0.00    +0.000 C 
ATOM      3  C   UNL     1       2.005   4.650  17.405  0.00  0.00    +0.000 C 
ATOM      4  C   UNL     1       3.202   3.894  16.805  0.00  0.00    +0.000 C 
ATOM      5  N   UNL     1       4.352   3.819  17.695  0.00  0.00    +0.000 NA
ATOM      6  C   UNL     1       4.297   2.781  18.727  0.00  0.00    +0.000 C 
ATOM      7  C   UNL     1       2.953   2.382  19.330  0.00  0.00    +0.000 C 
ENDROOT
BRANCH   1   9
ATOM      8  C   UNL     1       1.437   2.373  22.129  0.00  0.00    +0.000 C 
ATOM      9  C   UNL     1       0.951   2.748  20.736  0.00  0.00    +0.000 C 
ENDBRANCH   1   9
BRANCH   1  10
ATOM     10  C   UNL     1       2.647   4.676  20.525  0.00  0.00    +0.000 C 
ATOM     11  C   UNL     1       1.786   5.918  20.737  0.00  0.00    +0.000 C 
ENDBRANCH   1  10
BRANCH   5  12
ATOM     12  C   UNL     1       5.662   3.784  16.998  0.00  0.00    +0.000 C 
BRANCH  12  13
ATOM     13  C   UNL     1       6.439   5.074  16.953  0.00  0.00    +0.000 A 
ATOM     14  N   UNL     1       6.922   5.630  15.861  0.00  0.00    +0.000 NA
ATOM     15  N   UNL     1       7.579   6.782  16.200  0.00  0.00    +0.000 NA
ATOM     16  C   UNL     1       7.522   6.916  17.509  0.00  0.00    +0.000 A 
ATOM     17  C   UNL     1       8.102   8.018  18.300  0.00  0.00    +0.000 C 
ATOM     18  N   UNL     1       6.838   5.838  18.030  0.00  0.00    +0.000 N 
ATOM     19  C   UNL     1       6.598   5.584  19.425  0.00  0.00    +0.000 C 
ENDBRANCH  12  13
ENDBRANCH   5  12
TORSDOF 4
ENDMDL
MODEL 8
REMARK VINA RESULT:      -6.2      1.401      1.741
REMARK  Name = 
REMARK  8 active torsions:
REMARK  status: ('A' for Active; 'I' for Inactive)
REMARK    1  A    between atoms: C_1  and  C_2
REMARK    2  A    between atoms: C_2  and  C_3
REMARK    3  A    between atoms: C_3  and  C_4
REMARK    4  A    between atoms: C_4  and  C_5
REMARK    5  A    between atoms: N_9  and  C_10
REMARK    6  A    between atoms: C_10  and  C_11
REMARK    7  A    between atoms: C_14  and  C_15
REMARK    8  A    between atoms: N_16  and  C_17
REMARK                            x       y       z     vdW  Elec       q    Type
REMARK                         _______ _______ _______ _____ _____    ______ ____
ROOT
ATOM      1  C   UNL     1       2.702   3.457  20.267  0.00  0.00    +0.000 C 
ATOM      2  C   UNL     1       1.487   3.081  19.375  0.00  0.00    +0.000 C 
ATOM      3  C   UNL     1       1.456   3.581  17.925  0.00  0.00    +0.000 C 
ATOM      4  C   UNL     1       2.662   3.297  17.014  0.00  0.00    +0.000 C 
ATOM      5  N   UNL     1       3.845   4.075  17.351  0.00  0.00    +0.000 NA
ATOM      6  C   UNL     1       4.650   3.569  18.464  0.00  0.00    +0.000 C 
ATOM      7  C   UNL     1       3.969   2.843  19.622  0.00  0.00    +0.000 C 
ENDROOT
BRANCH   1   9
ATOM      8  C   UNL     1       1.150   2.385  22.115  0.00  0.00    +0.000 C 
ATOM      9  C   UNL     1       2.558   2.727  21.650  0.00  0.00    +0.000 C 
ENDBRANCH   1   9
BRANCH   1  10
ATOM     10  C   UNL     1       2.770   5.000  20.456  0.00  0.00    +0.000 C 
ATOM     11  C   UNL     1       1.440   5.711  20.687  0.00  0.00    +0.000 C 
ENDBRANCH   1  10
BRANCH   5  12
ATOM     12  C   UNL     1       4.715   4.398  16.192  0.00  0.00    +0.000 C 
BRANCH  12  13
ATOM     13  C   UNL     1       5.828   5.383  16.435  0.00  0.00    +0.000 A 
ATOM     14  N   UNL     1       7.099   5.176  16.154  0.00  0.00    +0.000 NA
ATOM     15  N   UNL     1       7.823   6.278  16.521  0.00  0.00    +0.000 NA
ATOM     16  C   UNL     1       6.995   7.151  17.058  0.00  0.00    +0.000 A 
ATOM     17  C   UNL     1       7.353   8.480  17.591  0.00  0.00    +0.000 C 
ATOM     18  N   UNL     1       5.726   6.611  17.054  0.00  0.00    +0.000 N 
ATOM     19  C   UNL     1       4.544   7.228  17.593  0.00  0.00    +0.000 C 
ENDBRANCH  12  13
ENDBRANCH   5  12
TORSDOF 4
ENDMDL
MODEL 9
REMARK VINA RESULT:      -6.2      2.837      4.294
REMARK  Name = 
REMARK  8 active torsions:
REMARK  status: ('A' for Active; 'I' for Inactive)
REMARK    1  A    between atoms: C_1  and  C_2
REMARK    2  A    between atoms: C_2  and  C_3
REMARK    3  A    between atoms: C_3  and  C_4
REMARK    4  A    between atoms: C_4  and  C_5
REMARK    5  A    between atoms: N_9  and  C_10
REMARK    6  A    between atoms: C_10  and  C_11
REMARK    7  A    between atoms: C_14  and  C_15
REMARK    8  A    between atoms: N_16  and  C_17
REMARK                            x       y       z     vdW  Elec       q    Type
REMARK                         _______ _______ _______ _____ _____    ______ ____
ROOT
ATOM      1  C   UNL     1       3.128   6.021  18.439  0.00  0.00    +0.000 C 
ATOM      2  C   UNL     1       4.073   5.585  19.593  0.00  0.00    +0.000 C 
ATOM      3  C   UNL     1       4.983   4.368  19.380  0.00  0.00    +0.000 C 
ATOM      4  C   UNL     1       5.896   4.329  18.144  0.00  0.00    +0.000 C 
ATOM      5  N   UNL     1       5.179   4.124  16.894  0.00  0.00    +0.000 NA
ATOM      6  C   UNL     1       4.553   5.313  16.312  0.00  0.00    +0.000 C 
ATOM      7  C   UNL     1       4.010   6.408  17.227  0.00  0.00    +0.000 C 
ENDROOT
BRANCH   1   9
ATOM      8  C   UNL     1       2.210   8.406  17.775  0.00  0.00    +0.000 C 
ATOM      9  C   UNL     1       2.404   7.351  18.854  0.00  0.00    +0.000 C 
ENDBRANCH   1   9
BRANCH   1  10
ATOM     10  C   UNL     1       2.097   4.895  18.140  0.00  0.00    +0.000 C 
ATOM     11  C   UNL     1       1.310   4.364  19.335  0.00  0.00    +0.000 C 
ENDBRANCH   1  10
BRANCH   5  12
ATOM     12  C   UNL     1       5.952   3.391  15.860  0.00  0.00    +0.000 C 
BRANCH  12  13
ATOM     13  C   UNL     1       6.732   4.228  14.878  0.00  0.00    +0.000 A 
ATOM     14  N   UNL     1       7.630   5.136  15.203  0.00  0.00    +0.000 NA
ATOM     15  N   UNL     1       8.123   5.705  14.059  0.00  0.00    +0.000 NA
ATOM     16  C   UNL     1       7.501   5.162  13.032  0.00  0.00    +0.000 A 
ATOM     17  C   UNL     1       7.724   5.483  11.609  0.00  0.00    +0.000 C 
ATOM     18  N   UNL     1       6.588   4.244  13.507  0.00  0.00    +0.000 N 
ATOM     19  C   UNL     1       5.677   3.470  12.709  0.00  0.00    +0.000 C 
ENDBRANCH  12  13
ENDBRANCH   5  12
TORSDOF 4
ENDMDL
