MODEL 1
REMARK VINA RESULT:      -7.5      0.000      0.000
REMARK  Name = 
REMARK  4 active torsions:
REMARK  status: ('A' for Active; 'I' for Inactive)
REMARK    1  A    between atoms: C_1  and  O_2
REMARK    2  A    between atoms: O_2  and  C_3
REMARK    3  A    between atoms: C_3  and  C_4
REMARK    4  A    between atoms: C_4  and  N_5
REMARK                            x       y       z     vdW  Elec       q    Type
REMARK                         _______ _______ _______ _____ _____    ______ ____
ROOT
ATOM      1  N   UNL     1       3.081   5.815  17.974  0.00  0.00    +0.000 N 
ATOM      2  C   UNL     1       2.234   4.709  18.062  0.00  0.00    +0.000 C 
ATOM      3  O   UNL     1       1.186   4.604  17.425  0.00  0.00    +0.000 OA
ATOM      4  C   UNL     1       2.424   3.842  19.223  0.00  0.00    +0.000 A 
ATOM      5  C   UNL     1       1.370   3.696  20.134  0.00  0.00    +0.000 A 
ATOM      6  C   UNL     1       1.577   2.980  21.303  0.00  0.00    +0.000 A 
ATOM      7  C   UNL     1       2.810   2.379  21.477  0.00  0.00    +0.000 A 
ATOM      8  N   UNL     1       3.816   2.451  20.578  0.00  0.00    +0.000 NA
ATOM      9  C   UNL     1       3.621   3.212  19.476  0.00  0.00    +0.000 A 
ATOM     10  N   UNL     1       4.719   3.322  18.625  0.00  0.00    +0.000 N 
ATOM     11  C   UNL     1       5.264   4.552  18.184  0.00  0.00    +0.000 A 
ATOM     12  C   UNL     1       6.673   4.560  18.031  0.00  0.00    +0.000 A 
ATOM     13  C   UNL     1       7.364   5.698  17.634  0.00  0.00    +0.000 A 
ATOM     14  C   UNL     1       6.650   6.839  17.318  0.00  0.00    +0.000 A 
ATOM     15  C   UNL     1       5.255   6.839  17.419  0.00  0.00    +0.000 A 
ATOM     16  C   UNL     1       4.521   5.718  17.878  0.00  0.00    +0.000 A 
ATOM     17  H   UNL     1       5.427   2.722  19.039  0.00  0.00    +0.000 HD
ENDROOT
BRANCH   1  18
ATOM     18  C   UNL     1       2.406   7.118  17.835  0.00  0.00    +0.000 C 
BRANCH  18  19
ATOM     19  C   UNL     1       2.099   7.836  19.170  0.00  0.00    +0.000 C 
BRANCH  19  21
ATOM     20  C   UNL     1       1.942   9.822  17.891  0.00  0.00    +0.000 C 
ATOM     21  O   UNL     1       1.352   9.033  18.915  0.00  0.00    +0.000 OA
ENDBRANCH  19  21
ENDBRANCH  18  19
ENDBRANCH   1  18
TORSDOF 3
ENDMDL
MODEL 2
REMARK VINA RESULT:      -7.1      2.262      4.230
REMARK  Name = 
REMARK  4 active torsions:
REMARK  status: ('A' for Active; 'I' for Inactive)
REMARK    1  A    between atoms: C_1  and  O_2
REMARK    2  A    between atoms: O_2  and  C_3
REMARK    3  A    between atoms: C_3  and  C_4
REMARK    4  A    between atoms: C_4  and  N_5
REMARK                            x       y       z     vdW  Elec       q    Type
REMARK                         _______ _______ _______ _____ _____    ______ ____
ROOT
ATOM      1  N   UNL     1       3.989   5.943  18.261  0.00  0.00    +0.000 N 
ATOM      2  C   UNL     1       4.412   4.999  19.199  0.00  0.00    +0.000 C 
ATOM      3  O   UNL     1       5.578   4.617  19.299  0.00  0.00    +0.000 OA
ATOM      4  C   UNL     1       3.365   4.183  19.811  0.00  0.00    +0.000 A 
ATOM      5  C   UNL     1       3.391   2.797  19.614  0.00  0.00    +0.000 A 
ATOM      6  C   UNL     1       2.337   2.025  20.081  0.00  0.00    +0.000 A 
ATOM      7  C   UNL     1       1.337   2.666  20.788  0.00  0.00    +0.000 A 
ATOM      8  N   UNL     1       1.329   3.992  21.047  0.00  0.00    +0.000 NA
ATOM      9  C   UNL     1       2.329   4.741  20.525  0.00  0.00    +0.000 A 
ATOM     10  N   UNL     1       2.227   6.112  20.749  0.00  0.00    +0.000 N 
ATOM     11  C   UNL     1       2.275   7.091  19.728  0.00  0.00    +0.000 A 
ATOM     12  C   UNL     1       1.442   8.218  19.940  0.00  0.00    +0.000 A 
ATOM     13  C   UNL     1       1.354   9.253  19.017  0.00  0.00    +0.000 A 
ATOM     14  C   UNL     1       2.150   9.213  17.888  0.00  0.00    +0.000 A 
ATOM     15  C   UNL     1       3.013   8.131  17.681  0.00  0.00    +0.000 A 
ATOM     16  C   UNL     1       3.085   7.030  18.567  0.00  0.00    +0.000 A 
ATOM     17  H   UNL     1       1.402   6.217  21.333  0.00  0.00    +0.000 HD
ENDROOT
BRANCH   1  18
ATOM     18  C   UNL     1       4.640   5.857  16.942  0.00  0.00    +0.000 C 
BRANCH  18  19
ATOM     19  C   UNL     1       5.991   6.602  16.833  0.00  0.00    +0.000 C 
BRANCH  19  21
ATOM     20  C   UNL     1       6.809   4.550  15.981  0.00  0.00    +0.000 C 
ATOM     21  O   UNL     1       6.816   5.965  15.849  0.00  0.00    +0.000 OA
ENDBRANCH  19  21
ENDBRANCH  18  19
ENDBRANCH   1  18
TORSDOF 3
ENDMDL
MODEL 3
REMARK VINA RESULT:      -6.8      2.056      5.260
REMARK  Name = 
REMARK  4 active torsions:
REMARK  status: ('A' for Active; 'I' for Inactive)
REMARK    1  A    between atoms: C_1  and  O_2
REMARK    2  A    between atoms: O_2  and  C_3
REMARK    3  A    between atoms: C_3  and  C_4
REMARK    4  A    between atoms: C_4  and  N_5
REMARK                            x       y       z     vdW  Elec       q    Type
REMARK                         _______ _______ _______ _____ _____    ______ ____
ROOT
ATOM      1  N   UNL     1       2.543   4.296  18.785  0.00  0.00    +0.000 N 
ATOM      2  C   UNL     1       2.952   4.049  17.473  0.00  0.00    +0.000 C 
ATOM      3  O   UNL     1       2.506   3.132  16.784  0.00  0.00    +0.000 OA
ATOM      4  C   UNL     1       4.210   4.671  17.062  0.00  0.00    +0.000 A 
ATOM      5  C   UNL     1       5.278   3.845  16.686  0.00  0.00    +0.000 A 
ATOM      6  C   UNL     1       6.513   4.414  16.415  0.00  0.00    +0.000 A 
ATOM      7  C   UNL     1       6.609   5.792  16.463  0.00  0.00    +0.000 A 
ATOM      8  N   UNL     1       5.574   6.609  16.757  0.00  0.00    +0.000 NA
ATOM      9  C   UNL     1       4.393   6.034  17.087  0.00  0.00    +0.000 A 
ATOM     10  N   UNL     1       3.384   6.918  17.465  0.00  0.00    +0.000 N 
ATOM     11  C   UNL     1       2.655   6.822  18.674  0.00  0.00    +0.000 A 
ATOM     12  C   UNL     1       2.297   8.064  19.256  0.00  0.00    +0.000 A 
ATOM     13  C   UNL     1       1.605   8.142  20.458  0.00  0.00    +0.000 A 
ATOM     14  C   UNL     1       1.197   6.973  21.073  0.00  0.00    +0.000 A 
ATOM     15  C   UNL     1       1.500   5.737  20.492  0.00  0.00    +0.000 A 
ATOM     16  C   UNL     1       2.256   5.616  19.301  0.00  0.00    +0.000 A 
ATOM     17  H   UNL     1       3.791   7.841  17.342  0.00  0.00    +0.000 HD
ENDROOT
BRANCH   1  18
ATOM     18  C   UNL     1       2.274   3.097  19.598  0.00  0.00    +0.000 C 
BRANCH  18  19
ATOM     19  C   UNL     1       3.429   2.673  20.535  0.00  0.00    +0.000 C 
BRANCH  19  21
ATOM     20  C   UNL     1       1.510   2.480  21.908  0.00  0.00    +0.000 C 
ATOM     21  O   UNL     1       2.931   2.491  21.866  0.00  0.00    +0.000 OA
ENDBRANCH  19  21
ENDBRANCH  18  19
ENDBRANCH   1  18
TORSDOF 3
ENDMDL
MODEL 4
REMARK VINA RESULT:      -6.6      2.057      4.681
REMARK  Name = 
REMARK  4 active torsions:
REMARK  status: ('A' for Active; 'I' for Inactive)
REMARK    1  A    between atoms: C_1  and  O_2
REMARK    2  A    between atoms: O_2  and  C_3
REMARK    3  A    between atoms: C_3  and  C_4
REMARK    4  A    between atoms: C_4  and  N_5
REMARK                            x       y       z     vdW  Elec       q    Type
REMARK                         _______ _______ _______ _____ _____    ______ ____
ROOT
ATOM      1  N   UNL     1       3.770   5.348  18.869  0.00  0.00    +0.000 N 
ATOM      2  C   UNL     1       5.142   5.303  18.615  0.00  0.00    +0.000 C 
ATOM      3  O   UNL     1       5.981   5.879  19.307  0.00  0.00    +0.000 OA
ATOM      4  C   UNL     1       5.535   4.869  17.275  0.00  0.00    +0.000 A 
ATOM      5  C   UNL     1       6.240   5.763  16.458  0.00  0.00    +0.000 A 
ATOM      6  C   UNL     1       6.509   5.413  15.144  0.00  0.00    +0.000 A 
ATOM      7  C   UNL     1       6.123   4.154  14.723  0.00  0.00    +0.000 A 
ATOM      8  N   UNL     1       5.504   3.252  15.516  0.00  0.00    +0.000 NA
ATOM      9  C   UNL     1       5.187   3.635  16.775  0.00  0.00    +0.000 A 
ATOM     10  N   UNL     1       4.473   2.700  17.521  0.00  0.00    +0.000 N 
ATOM     11  C   UNL     1       3.246   2.971  18.174  0.00  0.00    +0.000 A 
ATOM     12  C   UNL     1       2.327   1.893  18.191  0.00  0.00    +0.000 A 
ATOM     13  C   UNL     1       1.068   2.008  18.767  0.00  0.00    +0.000 A 
ATOM     14  C   UNL     1       0.725   3.188  19.398  0.00  0.00    +0.000 A 
ATOM     15  C   UNL     1       1.635   4.251  19.432  0.00  0.00    +0.000 A 
ATOM     16  C   UNL     1       2.902   4.192  18.804  0.00  0.00    +0.000 A 
ATOM     17  H   UNL     1       4.406   1.885  16.917  0.00  0.00    +0.000 HD
ENDROOT
BRANCH   1  18
ATOM     18  C   UNL     1       3.262   6.641  19.361  0.00  0.00    +0.000 C 
BRANCH  18  19
ATOM     19  C   UNL     1       2.737   7.594  18.261  0.00  0.00    +0.000 C 
BRANCH  19  21
ATOM     20  C   UNL     1       1.564   9.627  17.952  0.00  0.00    +0.000 C 
ATOM     21  O   UNL     1       1.839   8.551  18.838  0.00  0.00    +0.000 OA
ENDBRANCH  19  21
ENDBRANCH  18  19
ENDBRANCH   1  18
TORSDOF 3
ENDMDL
MODEL 5
REMARK VINA RESULT:      -6.5      1.970      5.172
REMARK  Name = 
REMARK  4 active torsions:
REMARK  status: ('A' for Active; 'I' for Inactive)
REMARK    1  A    between atoms: C_1  and  O_2
REMARK    2  A    between atoms: O_2  and  C_3
REMARK    3  A    between atoms: C_3  and  C_4
REMARK    4  A    between atoms: C_4  and  N_5
REMARK                            x       y       z     vdW  Elec       q    Type
REMARK                         _______ _______ _______ _____ _____    ______ ____
ROOT
ATOM      1  N   UNL     1       2.892   5.602  19.348  0.00  0.00    +0.000 N 
ATOM      2  C   UNL     1       3.506   4.801  18.384  0.00  0.00    +0.000 C 
ATOM      3  O   UNL     1       3.207   3.623  18.189  0.00  0.00    +0.000 OA
ATOM      4  C   UNL     1       4.785   5.282  17.864  0.00  0.00    +0.000 A 
ATOM      5  C   UNL     1       5.930   4.500  18.065  0.00  0.00    +0.000 A 
ATOM      6  C   UNL     1       7.168   5.001  17.690  0.00  0.00    +0.000 A 
ATOM      7  C   UNL     1       7.199   6.233  17.065  0.00  0.00    +0.000 A 
ATOM      8  N   UNL     1       6.099   6.971  16.800  0.00  0.00    +0.000 NA
ATOM      9  C   UNL     1       4.906   6.500  17.235  0.00  0.00    +0.000 A 
ATOM     10  N   UNL     1       3.816   7.339  17.013  0.00  0.00    +0.000 N 
ATOM     11  C   UNL     1       2.916   7.758  18.022  0.00  0.00    +0.000 A 
ATOM     12  C   UNL     1       2.424   9.079  17.874  0.00  0.00    +0.000 A 
ATOM     13  C   UNL     1       1.554   9.649  18.795  0.00  0.00    +0.000 A 
ATOM     14  C   UNL     1       1.106   8.884  19.855  0.00  0.00    +0.000 A 
ATOM     15  C   UNL     1       1.544   7.562  19.996  0.00  0.00    +0.000 A 
ATOM     16  C   UNL     1       2.476   6.968  19.112  0.00  0.00    +0.000 A 
ATOM     17  H   UNL     1       4.199   8.128  16.498  0.00  0.00    +0.000 HD
ENDROOT
BRANCH   1  18
ATOM     18  C   UNL     1       2.552   4.922  20.610  0.00  0.00    +0.000 C 
BRANCH  18  19
ATOM     19  C   UNL     1       1.165   4.236  20.626  0.00  0.00    +0.000 C 
BRANCH  19  21
ATOM     20  C   UNL     1       2.602   2.601  21.558  0.00  0.00    +0.000 C 
ATOM     21  O   UNL     1       1.255   2.980  21.310  0.00  0.00    +0.000 OA
ENDBRANCH  19  21
ENDBRANCH  18  19
ENDBRANCH   1  18
TORSDOF 3
ENDMDL
MODEL 6
REMARK VINA RESULT:      -6.4      2.011      4.616
REMARK  Name = 
REMARK  4 active torsions:
REMARK  status: ('A' for Active; 'I' for Inactive)
REMARK    1  A    between atoms: C_1  and  O_2
REMARK    2  A    between atoms: O_2  and  C_3
REMARK    3  A    between atoms: C_3  and  C_4
REMARK    4  A    between atoms: C_4  and  N_5
REMARK                            x       y       z     vdW  Elec       q    Type
REMARK                         _______ _______ _______ _____ _____    ______ ____
ROOT
ATOM      1  N   UNL     1       3.226   5.757  17.991  0.00  0.00    +0.000 N 
ATOM      2  C   UNL     1       4.547   6.061  17.656  0.00  0.00    +0.000 C 
ATOM      3  O   UNL     1       5.111   7.100  17.997  0.00  0.00    +0.000 OA
ATOM      4  C   UNL     1       5.128   5.289  16.559  0.00  0.00    +0.000 A 
ATOM      5  C   UNL     1       5.538   5.965  15.403  0.00  0.00    +0.000 A 
ATOM      6  C   UNL     1       5.974   5.235  14.308  0.00  0.00    +0.000 A 
ATOM      7  C   UNL     1       6.048   3.861  14.442  0.00  0.00    +0.000 A 
ATOM      8  N   UNL     1       5.723   3.196  15.572  0.00  0.00    +0.000 NA
ATOM      9  C   UNL     1       5.233   3.917  16.607  0.00  0.00    +0.000 A 
ATOM     10  N   UNL     1       4.832   3.175  17.715  0.00  0.00    +0.000 N 
ATOM     11  C   UNL     1       3.554   3.268  18.316  0.00  0.00    +0.000 A 
ATOM     12  C   UNL     1       3.043   2.049  18.828  0.00  0.00    +0.000 A 
ATOM     13  C   UNL     1       1.790   1.967  19.422  0.00  0.00    +0.000 A 
ATOM     14  C   UNL     1       1.044   3.120  19.574  0.00  0.00    +0.000 A 
ATOM     15  C   UNL     1       1.549   4.343  19.117  0.00  0.00    +0.000 A 
ATOM     16  C   UNL     1       2.794   4.455  18.453  0.00  0.00    +0.000 A 
ATOM     17  H   UNL     1       5.070   2.214  17.482  0.00  0.00    +0.000 HD
ENDROOT
BRANCH   1  18
ATOM     18  C   UNL     1       2.294   6.899  17.987  0.00  0.00    +0.000 C 
BRANCH  18  19
ATOM     19  C   UNL     1       2.192   7.660  19.329  0.00  0.00    +0.000 C 
BRANCH  19  21
ATOM     20  C   UNL     1       0.856   9.355  20.302  0.00  0.00    +0.000 C 
ATOM     21  O   UNL     1       1.520   8.909  19.127  0.00  0.00    +0.000 OA
ENDBRANCH  19  21
ENDBRANCH  18  19
ENDBRANCH   1  18
TORSDOF 3
ENDMDL
MODEL 7
REMARK VINA RESULT:      -6.4      1.764      4.337
REMARK  Name = 
REMARK  4 active torsions:
REMARK  status: ('A' for Active; 'I' for Inactive)
REMARK    1  A    between atoms: C_1  and  O_2
REMARK    2  A    between atoms: O_2  and  C_3
REMARK    3  A    between atoms: C_3  and  C_4
REMARK    4  A    between atoms: C_4  and  N_5
REMARK                            x       y       z     vdW  Elec       q    Type
REMARK                         _______ _______ _______ _____ _____    ______ ____
ROOT
ATOM      1  N   UNL     1       3.407   6.075  18.408  0.00  0.00    +0.000 N 
ATOM      2  C   UNL     1       4.588   6.476  17.782  0.00  0.00    +0.000 C 
ATOM      3  O   UNL     1       4.989   7.640  17.769  0.00  0.00    +0.000 OA
ATOM      4  C   UNL     1       5.150   5.544  16.805  0.00  0.00    +0.000 A 
ATOM      5  C   UNL     1       5.264   5.954  15.471  0.00  0.00    +0.000 A 
ATOM      6  C   UNL     1       5.676   5.041  14.513  0.00  0.00    +0.000 A 
ATOM      7  C   UNL     1       6.025   3.774  14.943  0.00  0.00    +0.000 A 
ATOM      8  N   UNL     1       5.987   3.381  16.234  0.00  0.00    +0.000 NA
ATOM      9  C   UNL     1       5.517   4.262  17.147  0.00  0.00    +0.000 A 
ATOM     10  N   UNL     1       5.417   3.778  18.449  0.00  0.00    +0.000 N 
ATOM     11  C   UNL     1       4.238   3.831  19.231  0.00  0.00    +0.000 A 
ATOM     12  C   UNL     1       4.041   2.722  20.091  0.00  0.00    +0.000 A 
ATOM     13  C   UNL     1       2.918   2.610  20.902  0.00  0.00    +0.000 A 
ATOM     14  C   UNL     1       1.997   3.639  20.916  0.00  0.00    +0.000 A 
ATOM     15  C   UNL     1       2.195   4.764  20.108  0.00  0.00    +0.000 A 
ATOM     16  C   UNL     1       3.294   4.887  19.225  0.00  0.00    +0.000 A 
ATOM     17  H   UNL     1       5.797   2.836  18.403  0.00  0.00    +0.000 HD
ENDROOT
BRANCH   1  18
ATOM     18  C   UNL     1       2.285   7.026  18.308  0.00  0.00    +0.000 C 
BRANCH  18  19
ATOM     19  C   UNL     1       2.034   7.872  19.578  0.00  0.00    +0.000 C 
BRANCH  19  21
ATOM     20  C   UNL     1       1.800   9.497  17.872  0.00  0.00    +0.000 C 
ATOM     21  O   UNL     1       1.482   9.143  19.212  0.00  0.00    +0.000 OA
ENDBRANCH  19  21
ENDBRANCH  18  19
ENDBRANCH   1  18
TORSDOF 3
ENDMDL
MODEL 8
REMARK VINA RESULT:      -6.3      2.074      5.364
REMARK  Name = 
REMARK  4 active torsions:
REMARK  status: ('A' for Active; 'I' for Inactive)
REMARK    1  A    between atoms: C_1  and  O_2
REMARK    2  A    between atoms: O_2  and  C_3
REMARK    3  A    between atoms: C_3  and  C_4
REMARK    4  A    between atoms: C_4  and  N_5
REMARK                            x       y       z     vdW  Elec       q    Type
REMARK                         _______ _______ _______ _____ _____    ______ ____
ROOT
ATOM      1  N   UNL     1       2.499   4.333  18.793  0.00  0.00    +0.000 N 
ATOM      2  C   UNL     1       2.912   4.136  17.474  0.00  0.00    +0.000 C 
ATOM      3  O   UNL     1       2.472   3.244  16.750  0.00  0.00    +0.000 OA
ATOM      4  C   UNL     1       4.167   4.780  17.089  0.00  0.00    +0.000 A 
ATOM      5  C   UNL     1       5.239   3.974  16.684  0.00  0.00    +0.000 A 
ATOM      6  C   UNL     1       6.472   4.559  16.436  0.00  0.00    +0.000 A 
ATOM      7  C   UNL     1       6.561   5.935  16.536  0.00  0.00    +0.000 A 
ATOM      8  N   UNL     1       5.521   6.735  16.859  0.00  0.00    +0.000 NA
ATOM      9  C   UNL     1       4.343   6.143  17.165  0.00  0.00    +0.000 A 
ATOM     10  N   UNL     1       3.329   7.006  17.573  0.00  0.00    +0.000 N 
ATOM     11  C   UNL     1       2.598   6.862  18.777  0.00  0.00    +0.000 A 
ATOM     12  C   UNL     1       2.233   8.079  19.404  0.00  0.00    +0.000 A 
ATOM     13  C   UNL     1       1.538   8.108  20.607  0.00  0.00    +0.000 A 
ATOM     14  C   UNL     1       1.136   6.916  21.177  0.00  0.00    +0.000 A 
ATOM     15  C   UNL     1       1.446   5.704  20.551  0.00  0.00    +0.000 A 
ATOM     16  C   UNL     1       2.205   5.631  19.358  0.00  0.00    +0.000 A 
ATOM     17  H   UNL     1       3.731   7.935  17.486  0.00  0.00    +0.000 HD
ENDROOT
BRANCH   1  18
ATOM     18  C   UNL     1       2.235   3.103  19.561  0.00  0.00    +0.000 C 
BRANCH  18  19
ATOM     19  C   UNL     1       3.374   2.674  20.516  0.00  0.00    +0.000 C 
BRANCH  19  21
ATOM     20  C   UNL     1       3.849   1.044  18.867  0.00  0.00    +0.000 C 
ATOM     21  O   UNL     1       4.393   1.990  19.777  0.00  0.00    +0.000 OA
ENDBRANCH  19  21
ENDBRANCH  18  19
ENDBRANCH   1  18
TORSDOF 3
ENDMDL
MODEL 9
REMARK VINA RESULT:      -6.2      3.378      5.775
REMARK  Name = 
REMARK  4 active torsions:
REMARK  status: ('A' for Active; 'I' for Inactive)
REMARK    1  A    between atoms: C_1  and  O_2
REMARK    2  A    between atoms: O_2  and  C_3
REMARK    3  A    between atoms: C_3  and  C_4
REMARK    4  A    between atoms: C_4  and  N_5
REMARK                            x       y       z     vdW  Elec       q    Type
REMARK                         _______ _______ _______ _____ _____    ______ ____
ROOT
ATOM      1  N   UNL     1       6.396   5.326  17.965  0.00  0.00    +0.000 N 
ATOM      2  C   UNL     1       7.181   4.503  17.155  0.00  0.00    +0.000 C 
ATOM      3  O   UNL     1       8.313   4.130  17.461  0.00  0.00    +0.000 OA
ATOM      4  C   UNL     1       6.780   4.406  15.752  0.00  0.00    +0.000 A 
ATOM      5  C   UNL     1       7.670   4.848  14.765  0.00  0.00    +0.000 A 
ATOM      6  C   UNL     1       7.255   4.878  13.442  0.00  0.00    +0.000 A 
ATOM      7  C   UNL     1       5.991   4.398  13.155  0.00  0.00    +0.000 A 
ATOM      8  N   UNL     1       5.144   3.904  14.085  0.00  0.00    +0.000 NA
ATOM      9  C   UNL     1       5.537   3.946  15.379  0.00  0.00    +0.000 A 
ATOM     10  N   UNL     1       4.594   3.505  16.304  0.00  0.00    +0.000 N 
ATOM     11  C   UNL     1       4.167   4.256  17.426  0.00  0.00    +0.000 A 
ATOM     12  C   UNL     1       2.802   4.094  17.769  0.00  0.00    +0.000 A 
ATOM     13  C   UNL     1       2.221   4.784  18.826  0.00  0.00    +0.000 A 
ATOM     14  C   UNL     1       3.013   5.605  19.606  0.00  0.00    +0.000 A 
ATOM     15  C   UNL     1       4.374   5.744  19.312  0.00  0.00    +0.000 A 
ATOM     16  C   UNL     1       4.987   5.106  18.207  0.00  0.00    +0.000 A 
ATOM     17  H   UNL     1       3.809   3.189  15.741  0.00  0.00    +0.000 HD
ENDROOT
BRANCH   1  18
ATOM     18  C   UNL     1       7.127   6.378  18.693  0.00  0.00    +0.000 C 
BRANCH  18  19
ATOM     19  C   UNL     1       7.664   7.528  17.810  0.00  0.00    +0.000 C 
BRANCH  19  21
ATOM     20  C   UNL     1       8.522   9.705  18.174  0.00  0.00    +0.000 C 
ATOM     21  O   UNL     1       8.567   8.341  18.570  0.00  0.00    +0.000 OA
ENDBRANCH  19  21
ENDBRANCH  18  19
ENDBRANCH   1  18
TORSDOF 3
ENDMDL
