MODEL 1
REMARK VINA RESULT:      -8.1      0.000      0.000
REMARK  Name = 
REMARK  8 active torsions:
REMARK  status: ('A' for Active; 'I' for Inactive)
REMARK    1  A    between atoms: C_1  and  C_2
REMARK    2  A    between atoms: C_2  and  C_3
REMARK    3  A    between atoms: C_2  and  C_4
REMARK    4  A    between atoms: C_2  and  C_5
REMARK    5  A    between atoms: C_7  and  C_8
REMARK    6  A    between atoms: C_8  and  C_10
REMARK    7  A    between atoms: C_20  and  C_21
REMARK    8  A    between atoms: C_20  and  C_22
REMARK                            x       y       z     vdW  Elec       q    Type
REMARK                         _______ _______ _______ _____ _____    ______ ____
ROOT
ATOM      1  C   UNL     1       5.316   5.735  18.361  0.00  0.00    +0.000 A 
ATOM      2  C   UNL     1       4.504   6.876  18.133  0.00  0.00    +0.000 A 
ATOM      3  C   UNL     1       3.120   6.880  18.400  0.00  0.00    +0.000 A 
ATOM      4  C   UNL     1       2.511   5.740  18.926  0.00  0.00    +0.000 A 
ATOM      5  C   UNL     1       3.294   4.625  19.174  0.00  0.00    +0.000 A 
ATOM      6  C   UNL     1       4.656   4.627  18.903  0.00  0.00    +0.000 A 
ATOM      7  O   UNL     1       5.258   3.447  19.245  0.00  0.00    +0.000 OA
ATOM      8  C   UNL     1       4.222   2.587  19.767  0.00  0.00    +0.000 C 
ATOM      9  C   UNL     1       2.865   3.314  19.739  0.00  0.00    +0.000 C 
ATOM     10  C   UNL     1       2.285   3.471  21.149  0.00  0.00    +0.000 C 
ATOM     11  C   UNL     1       1.864   2.608  18.818  0.00  0.00    +0.000 C 
ENDROOT
BRANCH   1  13
ATOM     12  C   UNL     1       7.166   7.103  17.377  0.00  0.00    +0.000 C 
ATOM     13  C   UNL     1       6.830   5.770  18.074  0.00  0.00    +0.000 C 
ATOM     14  C   UNL     1       7.266   4.606  17.147  0.00  0.00    +0.000 C 
ATOM     15  C   UNL     1       7.718   5.649  19.335  0.00  0.00    +0.000 C 
ENDBRANCH   1  13
BRANCH   3  16
ATOM     16  C   UNL     1       2.252   8.074  18.179  0.00  0.00    +0.000 C 
ATOM     17  O   UNL     1       2.455   8.760  17.180  0.00  0.00    +0.000 OA
BRANCH  16  18
ATOM     18  C   UNL     1       1.159   8.407  19.188  0.00  0.00    +0.000 C 
ATOM     19  C   UNL     1       1.642   8.294  20.632  0.00  0.00    +0.000 C 
ATOM     20  C   UNL     1       0.662   9.146  21.427  0.00  0.00    +0.000 C 
ATOM     21  C   UNL     1       0.191  10.241  20.479  0.00  0.00    +0.000 C 
ATOM     22  C   UNL     1       0.719   9.873  19.097  0.00  0.00    +0.000 C 
ENDBRANCH  16  18
ENDBRANCH   3  16
TORSDOF 3
ENDMDL
MODEL 2
REMARK VINA RESULT:      -8.1      1.359      1.667
REMARK  Name = 
REMARK  8 active torsions:
REMARK  status: ('A' for Active; 'I' for Inactive)
REMARK    1  A    between atoms: C_1  and  C_2
REMARK    2  A    between atoms: C_2  and  C_3
REMARK    3  A    between atoms: C_2  and  C_4
REMARK    4  A    between atoms: C_2  and  C_5
REMARK    5  A    between atoms: C_7  and  C_8
REMARK    6  A    between atoms: C_8  and  C_10
REMARK    7  A    between atoms: C_20  and  C_21
REMARK    8  A    between atoms: C_20  and  C_22
REMARK                            x       y       z     vdW  Elec       q    Type
REMARK                         _______ _______ _______ _____ _____    ______ ____
ROOT
ATOM      1  C   UNL     1       4.173   5.422  18.208  0.00  0.00    +0.000 A 
ATOM      2  C   UNL     1       3.560   6.641  18.597  0.00  0.00    +0.000 A 
ATOM      3  C   UNL     1       2.434   6.680  19.444  0.00  0.00    +0.000 A 
ATOM      4  C   UNL     1       1.902   5.491  19.945  0.00  0.00    +0.000 A 
ATOM      5  C   UNL     1       2.502   4.295  19.591  0.00  0.00    +0.000 A 
ATOM      6  C   UNL     1       3.608   4.265  18.751  0.00  0.00    +0.000 A 
ATOM      7  O   UNL     1       4.074   2.994  18.546  0.00  0.00    +0.000 OA
ATOM      8  C   UNL     1       3.208   2.108  19.290  0.00  0.00    +0.000 C 
ATOM      9  C   UNL     1       2.114   2.918  20.012  0.00  0.00    +0.000 C 
ATOM     10  C   UNL     1       2.205   2.747  21.532  0.00  0.00    +0.000 C 
ATOM     11  C   UNL     1       0.715   2.552  19.509  0.00  0.00    +0.000 C 
ENDROOT
BRANCH   1  13
ATOM     12  C   UNL     1       5.761   6.874  16.927  0.00  0.00    +0.000 C 
ATOM     13  C   UNL     1       5.414   5.417  17.293  0.00  0.00    +0.000 C 
ATOM     14  C   UNL     1       5.160   4.628  15.984  0.00  0.00    +0.000 C 
ATOM     15  C   UNL     1       6.668   4.770  17.928  0.00  0.00    +0.000 C 
ENDBRANCH   1  13
BRANCH   3  16
ATOM     16  C   UNL     1       1.783   7.951  19.875  0.00  0.00    +0.000 C 
ATOM     17  O   UNL     1       1.778   8.895  19.087  0.00  0.00    +0.000 OA
BRANCH  16  18
ATOM     18  C   UNL     1       1.159   8.045  21.262  0.00  0.00    +0.000 C 
ATOM     19  C   UNL     1       1.691   9.232  22.063  0.00  0.00    +0.000 C 
ATOM     20  C   UNL     1       0.626   9.482  23.122  0.00  0.00    +0.000 C 
ATOM     21  C   UNL     1      -0.694   9.040  22.503  0.00  0.00    +0.000 C 
ATOM     22  C   UNL     1      -0.345   8.332  21.200  0.00  0.00    +0.000 C 
ENDBRANCH  16  18
ENDBRANCH   3  16
TORSDOF 3
ENDMDL
MODEL 3
REMARK VINA RESULT:      -8.1      1.196      3.865
REMARK  Name = 
REMARK  8 active torsions:
REMARK  status: ('A' for Active; 'I' for Inactive)
REMARK    1  A    between atoms: C_1  and  C_2
REMARK    2  A    between atoms: C_2  and  C_3
REMARK    3  A    between atoms: C_2  and  C_4
REMARK    4  A    between atoms: C_2  and  C_5
REMARK    5  A    between atoms: C_7  and  C_8
REMARK    6  A    between atoms: C_8  and  C_10
REMARK    7  A    between atoms: C_20  and  C_21
REMARK    8  A    between atoms: C_20  and  C_22
REMARK                            x       y       z     vdW  Elec       q    Type
REMARK                         _______ _______ _______ _____ _____    ______ ____
ROOT
ATOM      1  C   UNL     1       2.712   4.847  18.778  0.00  0.00    +0.000 A 
ATOM      2  C   UNL     1       2.073   6.108  18.892  0.00  0.00    +0.000 A 
ATOM      3  C   UNL     1       2.588   7.270  18.282  0.00  0.00    +0.000 A 
ATOM      4  C   UNL     1       3.752   7.194  17.517  0.00  0.00    +0.000 A 
ATOM      5  C   UNL     1       4.376   5.966  17.379  0.00  0.00    +0.000 A 
ATOM      6  C   UNL     1       3.866   4.826  17.989  0.00  0.00    +0.000 A 
ATOM      7  O   UNL     1       4.604   3.709  17.707  0.00  0.00    +0.000 OA
ATOM      8  C   UNL     1       5.696   4.133  16.862  0.00  0.00    +0.000 C 
ATOM      9  C   UNL     1       5.612   5.650  16.608  0.00  0.00    +0.000 C 
ATOM     10  C   UNL     1       5.440   5.957  15.116  0.00  0.00    +0.000 C 
ATOM     11  C   UNL     1       6.829   6.386  17.175  0.00  0.00    +0.000 C 
ENDROOT
BRANCH   1  13
ATOM     12  C   UNL     1       0.955   4.031  20.363  0.00  0.00    +0.000 C 
ATOM     13  C   UNL     1       2.113   3.593  19.445  0.00  0.00    +0.000 C 
ATOM     14  C   UNL     1       3.163   2.840  20.301  0.00  0.00    +0.000 C 
ATOM     15  C   UNL     1       1.564   2.544  18.448  0.00  0.00    +0.000 C 
ENDBRANCH   1  13
BRANCH   3  16
ATOM     16  C   UNL     1       1.924   8.603  18.379  0.00  0.00    +0.000 C 
ATOM     17  O   UNL     1       2.176   9.439  17.514  0.00  0.00    +0.000 OA
BRANCH  16  18
ATOM     18  C   UNL     1       0.973   8.888  19.535  0.00  0.00    +0.000 C 
ATOM     19  C   UNL     1       1.552   8.470  20.885  0.00  0.00    +0.000 C 
ATOM     20  C   UNL     1       0.766   9.285  21.903  0.00  0.00    +0.000 C 
ATOM     21  C   UNL     1       0.374  10.576  21.196  0.00  0.00    +0.000 C 
ATOM     22  C   UNL     1       0.732  10.390  19.726  0.00  0.00    +0.000 C 
ENDBRANCH  16  18
ENDBRANCH   3  16
TORSDOF 3
ENDMDL
MODEL 4
REMARK VINA RESULT:      -8.0      1.216      3.864
REMARK  Name = 
REMARK  8 active torsions:
REMARK  status: ('A' for Active; 'I' for Inactive)
REMARK    1  A    between atoms: C_1  and  C_2
REMARK    2  A    between atoms: C_2  and  C_3
REMARK    3  A    between atoms: C_2  and  C_4
REMARK    4  A    between atoms: C_2  and  C_5
REMARK    5  A    between atoms: C_7  and  C_8
REMARK    6  A    between atoms: C_8  and  C_10
REMARK    7  A    between atoms: C_20  and  C_21
REMARK    8  A    between atoms: C_20  and  C_22
REMARK                            x       y       z     vdW  Elec       q    Type
REMARK                         _______ _______ _______ _____ _____    ______ ____
ROOT
ATOM      1  C   UNL     1       2.697   4.997  18.791  0.00  0.00    +0.000 A 
ATOM      2  C   UNL     1       2.045   6.257  18.838  0.00  0.00    +0.000 A 
ATOM      3  C   UNL     1       2.568   7.398  18.196  0.00  0.00    +0.000 A 
ATOM      4  C   UNL     1       3.754   7.303  17.468  0.00  0.00    +0.000 A 
ATOM      5  C   UNL     1       4.391   6.075  17.396  0.00  0.00    +0.000 A 
ATOM      6  C   UNL     1       3.873   4.956  18.035  0.00  0.00    +0.000 A 
ATOM      7  O   UNL     1       4.626   3.835  17.818  0.00  0.00    +0.000 OA
ATOM      8  C   UNL     1       5.739   4.235  16.988  0.00  0.00    +0.000 C 
ATOM      9  C   UNL     1       5.650   5.740  16.672  0.00  0.00    +0.000 C 
ATOM     10  C   UNL     1       5.518   5.988  15.165  0.00  0.00    +0.000 C 
ATOM     11  C   UNL     1       6.846   6.509  17.243  0.00  0.00    +0.000 C 
ENDROOT
BRANCH   1  13
ATOM     12  C   UNL     1       1.491   2.836  18.414  0.00  0.00    +0.000 C 
ATOM     13  C   UNL     1       2.089   3.765  19.489  0.00  0.00    +0.000 C 
ATOM     14  C   UNL     1       0.962   4.162  20.477  0.00  0.00    +0.000 C 
ATOM     15  C   UNL     1       3.100   2.944  20.324  0.00  0.00    +0.000 C 
ENDBRANCH   1  13
BRANCH   3  16
ATOM     16  C   UNL     1       1.892   8.728  18.223  0.00  0.00    +0.000 C 
ATOM     17  O   UNL     1       2.299   9.600  17.458  0.00  0.00    +0.000 OA
BRANCH  16  18
ATOM     18  C   UNL     1       0.737   8.966  19.189  0.00  0.00    +0.000 C 
ATOM     19  C   UNL     1       1.208   9.134  20.632  0.00  0.00    +0.000 C 
ATOM     20  C   UNL     1       0.067   9.872  21.319  0.00  0.00    +0.000 C 
ATOM     21  C   UNL     1      -0.592  10.724  20.242  0.00  0.00    +0.000 C 
ATOM     22  C   UNL     1       0.021  10.294  18.915  0.00  0.00    +0.000 C 
ENDBRANCH  16  18
ENDBRANCH   3  16
TORSDOF 3
ENDMDL
MODEL 5
REMARK VINA RESULT:      -7.9      0.310      1.288
REMARK  Name = 
REMARK  8 active torsions:
REMARK  status: ('A' for Active; 'I' for Inactive)
REMARK    1  A    between atoms: C_1  and  C_2
REMARK    2  A    between atoms: C_2  and  C_3
REMARK    3  A    between atoms: C_2  and  C_4
REMARK    4  A    between atoms: C_2  and  C_5
REMARK    5  A    between atoms: C_7  and  C_8
REMARK    6  A    between atoms: C_8  and  C_10
REMARK    7  A    between atoms: C_20  and  C_21
REMARK    8  A    between atoms: C_20  and  C_22
REMARK                            x       y       z     vdW  Elec       q    Type
REMARK                         _______ _______ _______ _____ _____    ______ ____
ROOT
ATOM      1  C   UNL     1       5.302   5.701  18.428  0.00  0.00    +0.000 A 
ATOM      2  C   UNL     1       4.496   6.854  18.243  0.00  0.00    +0.000 A 
ATOM      3  C   UNL     1       3.116   6.861  18.531  0.00  0.00    +0.000 A 
ATOM      4  C   UNL     1       2.506   5.712  19.035  0.00  0.00    +0.000 A 
ATOM      5  C   UNL     1       3.284   4.585  19.240  0.00  0.00    +0.000 A 
ATOM      6  C   UNL     1       4.642   4.584  18.949  0.00  0.00    +0.000 A 
ATOM      7  O   UNL     1       5.240   3.391  19.250  0.00  0.00    +0.000 OA
ATOM      8  C   UNL     1       4.204   2.524  19.765  0.00  0.00    +0.000 C 
ATOM      9  C   UNL     1       2.853   3.262  19.776  0.00  0.00    +0.000 C 
ATOM     10  C   UNL     1       2.295   3.384  21.198  0.00  0.00    +0.000 C 
ATOM     11  C   UNL     1       1.834   2.589  18.852  0.00  0.00    +0.000 C 
ENDROOT
BRANCH   1  13
ATOM     12  C   UNL     1       7.586   5.642  19.449  0.00  0.00    +0.000 C 
ATOM     13  C   UNL     1       6.812   5.733  18.120  0.00  0.00    +0.000 C 
ATOM     14  C   UNL     1       7.224   7.042  17.399  0.00  0.00    +0.000 C 
ATOM     15  C   UNL     1       7.297   4.586  17.202  0.00  0.00    +0.000 C 
ENDBRANCH   1  13
BRANCH   3  16
ATOM     16  C   UNL     1       2.254   8.067  18.356  0.00  0.00    +0.000 C 
ATOM     17  O   UNL     1       1.936   8.389  17.213  0.00  0.00    +0.000 OA
BRANCH  16  18
ATOM     18  C   UNL     1       1.807   8.857  19.579  0.00  0.00    +0.000 C 
ATOM     19  C   UNL     1       0.547   9.679  19.316  0.00  0.00    +0.000 C 
ATOM     20  C   UNL     1      -0.033   9.937  20.699  0.00  0.00    +0.000 C 
ATOM     21  C   UNL     1       0.377   8.746  21.556  0.00  0.00    +0.000 C 
ATOM     22  C   UNL     1       1.373   7.942  20.730  0.00  0.00    +0.000 C 
ENDBRANCH  16  18
ENDBRANCH   3  16
TORSDOF 3
ENDMDL
MODEL 6
REMARK VINA RESULT:      -7.8      0.940      1.223
REMARK  Name = 
REMARK  8 active torsions:
REMARK  status: ('A' for Active; 'I' for Inactive)
REMARK    1  A    between atoms: C_1  and  C_2
REMARK    2  A    between atoms: C_2  and  C_3
REMARK    3  A    between atoms: C_2  and  C_4
REMARK    4  A    between atoms: C_2  and  C_5
REMARK    5  A    between atoms: C_7  and  C_8
REMARK    6  A    between atoms: C_8  and  C_10
REMARK    7  A    between atoms: C_20  and  C_21
REMARK    8  A    between atoms: C_20  and  C_22
REMARK                            x       y       z     vdW  Elec       q    Type
REMARK                         _______ _______ _______ _____ _____    ______ ____
ROOT
ATOM      1  C   UNL     1       4.938   6.081  17.740  0.00  0.00    +0.000 A 
ATOM      2  C   UNL     1       4.224   7.303  17.641  0.00  0.00    +0.000 A 
ATOM      3  C   UNL     1       2.877   7.421  18.037  0.00  0.00    +0.000 A 
ATOM      4  C   UNL     1       2.209   6.316  18.566  0.00  0.00    +0.000 A 
ATOM      5  C   UNL     1       2.898   5.121  18.688  0.00  0.00    +0.000 A 
ATOM      6  C   UNL     1       4.225   5.011  18.291  0.00  0.00    +0.000 A 
ATOM      7  O   UNL     1       4.737   3.763  18.521  0.00  0.00    +0.000 OA
ATOM      8  C   UNL     1       3.673   2.976  19.099  0.00  0.00    +0.000 C 
ATOM      9  C   UNL     1       2.396   3.827  19.231  0.00  0.00    +0.000 C 
ATOM     10  C   UNL     1       1.962   3.961  20.695  0.00  0.00    +0.000 C 
ATOM     11  C   UNL     1       1.253   3.268  18.378  0.00  0.00    +0.000 C 
ENDROOT
BRANCH   1  13
ATOM     12  C   UNL     1       6.485   5.359  15.909  0.00  0.00    +0.000 C 
ATOM     13  C   UNL     1       6.417   5.990  17.314  0.00  0.00    +0.000 C 
ATOM     14  C   UNL     1       7.243   5.113  18.288  0.00  0.00    +0.000 C 
ATOM     15  C   UNL     1       7.147   7.353  17.264  0.00  0.00    +0.000 C 
ENDBRANCH   1  13
BRANCH   3  16
ATOM     16  C   UNL     1       2.113   8.700  17.952  0.00  0.00    +0.000 C 
ATOM     17  O   UNL     1       2.557   9.593  17.234  0.00  0.00    +0.000 OA
BRANCH  16  18
ATOM     18  C   UNL     1       0.827   8.864  18.754  0.00  0.00    +0.000 C 
ATOM     19  C   UNL     1       1.082   9.381  20.168  0.00  0.00    +0.000 C 
ATOM     20  C   UNL     1      -0.252   9.977  20.599  0.00  0.00    +0.000 C 
ATOM     21  C   UNL     1      -0.925  10.467  19.323  0.00  0.00    +0.000 C 
ATOM     22  C   UNL     1      -0.087   9.943  18.163  0.00  0.00    +0.000 C 
ENDBRANCH  16  18
ENDBRANCH   3  16
TORSDOF 3
ENDMDL
MODEL 7
REMARK VINA RESULT:      -7.7      0.971      1.404
REMARK  Name = 
REMARK  8 active torsions:
REMARK  status: ('A' for Active; 'I' for Inactive)
REMARK    1  A    between atoms: C_1  and  C_2
REMARK    2  A    between atoms: C_2  and  C_3
REMARK    3  A    between atoms: C_2  and  C_4
REMARK    4  A    between atoms: C_2  and  C_5
REMARK    5  A    between atoms: C_7  and  C_8
REMARK    6  A    between atoms: C_8  and  C_10
REMARK    7  A    between atoms: C_20  and  C_21
REMARK    8  A    between atoms: C_20  and  C_22
REMARK                            x       y       z     vdW  Elec       q    Type
REMARK                         _______ _______ _______ _____ _____    ______ ____
ROOT
ATOM      1  C   UNL     1       4.534   5.200  17.555  0.00  0.00    +0.000 A 
ATOM      2  C   UNL     1       3.956   6.496  17.580  0.00  0.00    +0.000 A 
ATOM      3  C   UNL     1       2.764   6.773  18.277  0.00  0.00    +0.000 A 
ATOM      4  C   UNL     1       2.124   5.759  18.991  0.00  0.00    +0.000 A 
ATOM      5  C   UNL     1       2.687   4.494  18.993  0.00  0.00    +0.000 A 
ATOM      6  C   UNL     1       3.860   4.227  18.299  0.00  0.00    +0.000 A 
ATOM      7  O   UNL     1       4.272   2.931  18.450  0.00  0.00    +0.000 OA
ATOM      8  C   UNL     1       3.297   2.279  19.293  0.00  0.00    +0.000 C 
ATOM      9  C   UNL     1       2.190   3.274  19.689  0.00  0.00    +0.000 C 
ATOM     10  C   UNL     1       2.135   3.472  21.208  0.00  0.00    +0.000 C 
ATOM     11  C   UNL     1       0.822   2.841  19.152  0.00  0.00    +0.000 C 
ENDROOT
BRANCH   1  13
ATOM     12  C   UNL     1       6.968   4.680  17.826  0.00  0.00    +0.000 C 
ATOM     13  C   UNL     1       5.849   4.934  16.795  0.00  0.00    +0.000 C 
ATOM     14  C   UNL     1       6.258   6.141  15.913  0.00  0.00    +0.000 C 
ATOM     15  C   UNL     1       5.795   3.722  15.836  0.00  0.00    +0.000 C 
ENDBRANCH   1  13
BRANCH   3  16
ATOM     16  C   UNL     1       2.147   8.132  18.327  0.00  0.00    +0.000 C 
ATOM     17  O   UNL     1       2.517   8.965  17.501  0.00  0.00    +0.000 OA
BRANCH  16  18
ATOM     18  C   UNL     1       1.099   8.445  19.388  0.00  0.00    +0.000 C 
ATOM     19  C   UNL     1       1.675   8.428  20.802  0.00  0.00    +0.000 C 
ATOM     20  C   UNL     1       0.693   9.255  21.621  0.00  0.00    +0.000 C 
ATOM     21  C   UNL     1       0.097  10.274  20.658  0.00  0.00    +0.000 C 
ATOM     22  C   UNL     1       0.562   9.875  19.262  0.00  0.00    +0.000 C 
ENDBRANCH  16  18
ENDBRANCH   3  16
TORSDOF 3
ENDMDL
MODEL 8
REMARK VINA RESULT:      -7.6      1.265      3.944
REMARK  Name = 
REMARK  8 active torsions:
REMARK  status: ('A' for Active; 'I' for Inactive)
REMARK    1  A    between atoms: C_1  and  C_2
REMARK    2  A    between atoms: C_2  and  C_3
REMARK    3  A    between atoms: C_2  and  C_4
REMARK    4  A    between atoms: C_2  and  C_5
REMARK    5  A    between atoms: C_7  and  C_8
REMARK    6  A    between atoms: C_8  and  C_10
REMARK    7  A    between atoms: C_20  and  C_21
REMARK    8  A    between atoms: C_20  and  C_22
REMARK                            x       y       z     vdW  Elec       q    Type
REMARK                         _______ _______ _______ _____ _____    ______ ____
ROOT
ATOM      1  C   UNL     1       2.941   4.487  19.356  0.00  0.00    +0.000 A 
ATOM      2  C   UNL     1       2.207   5.628  19.773  0.00  0.00    +0.000 A 
ATOM      3  C   UNL     1       2.512   6.926  19.316  0.00  0.00    +0.000 A 
ATOM      4  C   UNL     1       3.553   7.116  18.407  0.00  0.00    +0.000 A 
ATOM      5  C   UNL     1       4.265   6.010  17.974  0.00  0.00    +0.000 A 
ATOM      6  C   UNL     1       3.962   4.734  18.433  0.00  0.00    +0.000 A 
ATOM      7  O   UNL     1       4.754   3.773  17.866  0.00  0.00    +0.000 OA
ATOM      8  C   UNL     1       5.664   4.456  16.976  0.00  0.00    +0.000 C 
ATOM      9  C   UNL     1       5.398   5.973  17.007  0.00  0.00    +0.000 C 
ATOM     10  C   UNL     1       4.979   6.494  15.627  0.00  0.00    +0.000 C 
ATOM     11  C   UNL     1       6.609   6.749  17.533  0.00  0.00    +0.000 C 
ENDROOT
BRANCH   1  13
ATOM     12  C   UNL     1       2.044   2.253  18.672  0.00  0.00    +0.000 C 
ATOM     13  C   UNL     1       2.570   3.079  19.862  0.00  0.00    +0.000 C 
ATOM     14  C   UNL     1       1.467   3.132  20.951  0.00  0.00    +0.000 C 
ATOM     15  C   UNL     1       3.746   2.305  20.503  0.00  0.00    +0.000 C 
ENDBRANCH   1  13
BRANCH   3  16
ATOM     16  C   UNL     1       1.745   8.137  19.732  0.00  0.00    +0.000 C 
ATOM     17  O   UNL     1       1.547   9.014  18.893  0.00  0.00    +0.000 OA
BRANCH  16  18
ATOM     18  C   UNL     1       1.242   8.254  21.166  0.00  0.00    +0.000 C 
ATOM     19  C   UNL     1       1.475   9.643  21.756  0.00  0.00    +0.000 C 
ATOM     20  C   UNL     1       0.479   9.740  22.903  0.00  0.00    +0.000 C 
ATOM     21  C   UNL     1      -0.706   8.867  22.506  0.00  0.00    +0.000 C 
ATOM     22  C   UNL     1      -0.280   8.103  21.258  0.00  0.00    +0.000 C 
ENDBRANCH  16  18
ENDBRANCH   3  16
TORSDOF 3
ENDMDL
MODEL 9
REMARK VINA RESULT:      -7.3      1.530      1.947
REMARK  Name = 
REMARK  8 active torsions:
REMARK  status: ('A' for Active; 'I' for Inactive)
REMARK    1  A    between atoms: C_1  and  C_2
REMARK    2  A    between atoms: C_2  and  C_3
REMARK    3  A    between atoms: C_2  and  C_4
REMARK    4  A    between atoms: C_2  and  C_5
REMARK    5  A    between atoms: C_7  and  C_8
REMARK    6  A    between atoms: C_8  and  C_10
REMARK    7  A    between atoms: C_20  and  C_21
REMARK    8  A    between atoms: C_20  and  C_22
REMARK                            x       y       z     vdW  Elec       q    Type
REMARK                         _______ _______ _______ _____ _____    ______ ____
ROOT
ATOM      1  C   UNL     1       4.149   5.346  18.158  0.00  0.00    +0.000 A 
ATOM      2  C   UNL     1       3.572   6.554  18.629  0.00  0.00    +0.000 A 
ATOM      3  C   UNL     1       2.445   6.570  19.475  0.00  0.00    +0.000 A 
ATOM      4  C   UNL     1       1.874   5.367  19.893  0.00  0.00    +0.000 A 
ATOM      5  C   UNL     1       2.438   4.179  19.459  0.00  0.00    +0.000 A 
ATOM      6  C   UNL     1       3.545   4.172  18.620  0.00  0.00    +0.000 A 
ATOM      7  O   UNL     1       3.972   2.905  18.330  0.00  0.00    +0.000 OA
ATOM      8  C   UNL     1       3.076   1.997  19.010  0.00  0.00    +0.000 C 
ATOM      9  C   UNL     1       2.006   2.790  19.784  0.00  0.00    +0.000 C 
ATOM     10  C   UNL     1       2.086   2.513  21.289  0.00  0.00    +0.000 C 
ATOM     11  C   UNL     1       0.598   2.503  19.256  0.00  0.00    +0.000 C 
ENDROOT
BRANCH   1  13
ATOM     12  C   UNL     1       5.722   6.828  16.896  0.00  0.00    +0.000 C 
ATOM     13  C   UNL     1       5.392   5.364  17.247  0.00  0.00    +0.000 C 
ATOM     14  C   UNL     1       5.150   4.585  15.929  0.00  0.00    +0.000 C 
ATOM     15  C   UNL     1       6.651   4.726  17.879  0.00  0.00    +0.000 C 
ENDBRANCH   1  13
BRANCH   3  16
ATOM     16  C   UNL     1       1.833   7.828  19.992  0.00  0.00    +0.000 C 
ATOM     17  O   UNL     1       1.781   7.990  21.209  0.00  0.00    +0.000 OA
BRANCH  16  18
ATOM     18  C   UNL     1       1.290   8.860  19.010  0.00  0.00    +0.000 C 
ATOM     19  C   UNL     1       0.513   9.976  19.704  0.00  0.00    +0.000 C 
ATOM     20  C   UNL     1       0.529  11.126  18.707  0.00  0.00    +0.000 C 
ATOM     21  C   UNL     1       1.821  10.977  17.914  0.00  0.00    +0.000 C 
ATOM     22  C   UNL     1       2.412   9.626  18.300  0.00  0.00    +0.000 C 
ENDBRANCH  16  18
ENDBRANCH   3  16
TORSDOF 3
ENDMDL
