MODEL 1
REMARK VINA RESULT:      -8.1      0.000      0.000
REMARK  Name = 
REMARK  9 active torsions:
REMARK  status: ('A' for Active; 'I' for Inactive)
REMARK    1  A    between atoms: C_1  and  O_2
REMARK    2  A    between atoms: O_2  and  C_3
REMARK    3  A    between atoms: C_3  and  C_5
REMARK    4  A    between atoms: C_6  and  C_7
REMARK    5  A    between atoms: C_9  and  C_10
REMARK    6  A    between atoms: C_11  and  C_12
REMARK    7  A    between atoms: C_12  and  O_14
REMARK    8  A    between atoms: C_15  and  C_16
REMARK    9  A    between atoms: C_20  and  N_21
REMARK                            x       y       z     vdW  Elec       q    Type
REMARK                         _______ _______ _______ _____ _____    ______ ____
ROOT
ATOM      1  C   UNL     1       2.394   6.613  18.913  0.00  0.00    +0.000 C 
ATOM      2  C   UNL     1       2.048   6.667  20.222  0.00  0.00    +0.000 C 
ATOM      3  C   UNL     1       1.727   7.902  21.029  0.00  0.00    +0.000 C 
ATOM      4  N   UNL     1       1.947   5.480  20.942  0.00  0.00    +0.000 N 
ATOM      5  C   UNL     1       1.876   4.220  20.366  0.00  0.00    +0.000 C 
ATOM      6  C   UNL     1       1.415   3.109  21.277  0.00  0.00    +0.000 C 
ATOM      7  C   UNL     1       2.220   4.053  19.064  0.00  0.00    +0.000 C 
ATOM      8  C   UNL     1       2.742   5.258  18.281  0.00  0.00    +0.000 C 
ATOM      9  H   UNL     1       1.628   5.562  21.905  0.00  0.00    +0.000 HD
ENDROOT
BRANCH   8  10
ATOM     10  C   UNL     1       4.268   5.160  18.096  0.00  0.00    +0.000 A 
ATOM     11  C   UNL     1       5.140   5.291  19.196  0.00  0.00    +0.000 A 
ATOM     12  C   UNL     1       6.525   5.229  19.031  0.00  0.00    +0.000 A 
ATOM     13  C   UNL     1       7.067   5.025  17.765  0.00  0.00    +0.000 A 
ATOM     14  C   UNL     1       6.214   4.881  16.666  0.00  0.00    +0.000 A 
ATOM     15  C   UNL     1       4.821   4.955  16.822  0.00  0.00    +0.000 A 
BRANCH  14  16
ATOM     16  N   UNL     1       6.779   4.640  15.332  0.00  0.00    +0.000 N 
ATOM     17  O   UNL     1       7.700   5.374  14.952  0.00  0.00    +0.000 OA
ATOM     18  O   UNL     1       6.302   3.704  14.672  0.00  0.00    +0.000 OA
ENDBRANCH  14  16
ENDBRANCH   8  10
BRANCH   1  19
ATOM     19  C   UNL     1       2.494   7.818  18.040  0.00  0.00    +0.000 C 
ATOM     20  O   UNL     1       3.525   8.324  17.643  0.00  0.00    +0.000 OA
BRANCH  19  22
ATOM     21  C   UNL     1       1.077   9.687  17.944  0.00  0.00    +0.000 C 
ATOM     22  O   UNL     1       1.246   8.279  17.756  0.00  0.00    +0.000 OA
ENDBRANCH  19  22
ENDBRANCH   1  19
BRANCH   7  23
ATOM     23  C   UNL     1       2.013   2.743  18.385  0.00  0.00    +0.000 C 
ATOM     24  O   UNL     1       2.920   1.976  18.098  0.00  0.00    +0.000 OA
BRANCH  23  25
ATOM     25  O   UNL     1       0.739   2.402  18.126  0.00  0.00    +0.000 OA
ATOM     26  H   UNL     1       0.175   3.046  17.676  0.00  0.00    +0.000 HD
ENDBRANCH  23  25
ENDBRANCH   7  23
TORSDOF 6
ENDMDL
MODEL 2
REMARK VINA RESULT:      -7.9      1.676      2.067
REMARK  Name = 
REMARK  9 active torsions:
REMARK  status: ('A' for Active; 'I' for Inactive)
REMARK    1  A    between atoms: C_1  and  O_2
REMARK    2  A    between atoms: O_2  and  C_3
REMARK    3  A    between atoms: C_3  and  C_5
REMARK    4  A    between atoms: C_6  and  C_7
REMARK    5  A    between atoms: C_9  and  C_10
REMARK    6  A    between atoms: C_11  and  C_12
REMARK    7  A    between atoms: C_12  and  O_14
REMARK    8  A    between atoms: C_15  and  C_16
REMARK    9  A    between atoms: C_20  and  N_21
REMARK                            x       y       z     vdW  Elec       q    Type
REMARK                         _______ _______ _______ _____ _____    ______ ____
ROOT
ATOM      1  C   UNL     1       2.389   6.525  18.758  0.00  0.00    +0.000 C 
ATOM      2  C   UNL     1       2.201   6.634  20.096  0.00  0.00    +0.000 C 
ATOM      3  C   UNL     1       1.991   7.905  20.884  0.00  0.00    +0.000 C 
ATOM      4  N   UNL     1       2.171   5.478  20.869  0.00  0.00    +0.000 N 
ATOM      5  C   UNL     1       2.019   4.198  20.356  0.00  0.00    +0.000 C 
ATOM      6  C   UNL     1       1.656   3.130  21.359  0.00  0.00    +0.000 C 
ATOM      7  C   UNL     1       2.205   3.975  19.031  0.00  0.00    +0.000 C 
ATOM      8  C   UNL     1       2.645   5.141  18.144  0.00  0.00    +0.000 C 
ATOM      9  H   UNL     1       1.969   5.602  21.859  0.00  0.00    +0.000 HD
ENDROOT
BRANCH   8  10
ATOM     10  C   UNL     1       4.137   5.012  17.785  0.00  0.00    +0.000 A 
ATOM     11  C   UNL     1       4.539   4.408  16.576  0.00  0.00    +0.000 A 
ATOM     12  C   UNL     1       5.891   4.263  16.257  0.00  0.00    +0.000 A 
ATOM     13  C   UNL     1       6.868   4.728  17.133  0.00  0.00    +0.000 A 
ATOM     14  C   UNL     1       6.483   5.341  18.330  0.00  0.00    +0.000 A 
ATOM     15  C   UNL     1       5.126   5.478  18.665  0.00  0.00    +0.000 A 
BRANCH  14  16
ATOM     16  N   UNL     1       7.507   5.857  19.247  0.00  0.00    +0.000 N 
ATOM     17  O   UNL     1       7.625   5.309  20.350  0.00  0.00    +0.000 OA
ATOM     18  O   UNL     1       8.200   6.806  18.851  0.00  0.00    +0.000 OA
ENDBRANCH  14  16
ENDBRANCH   8  10
BRANCH   1  19
ATOM     19  C   UNL     1       2.399   7.694  17.832  0.00  0.00    +0.000 C 
ATOM     20  O   UNL     1       3.361   8.098  17.208  0.00  0.00    +0.000 OA
BRANCH  19  22
ATOM     21  C   UNL     1       1.148   9.678  17.931  0.00  0.00    +0.000 C 
ATOM     22  O   UNL     1       1.160   8.254  17.793  0.00  0.00    +0.000 OA
ENDBRANCH  19  22
ENDBRANCH   1  19
BRANCH   7  23
ATOM     23  C   UNL     1       1.905   2.644  18.433  0.00  0.00    +0.000 C 
ATOM     24  O   UNL     1       2.759   1.817  18.152  0.00  0.00    +0.000 OA
BRANCH  23  25
ATOM     25  O   UNL     1       0.605   2.356  18.245  0.00  0.00    +0.000 OA
ATOM     26  H   UNL     1       0.024   2.335  19.018  0.00  0.00    +0.000 HD
ENDBRANCH  23  25
ENDBRANCH   7  23
TORSDOF 6
ENDMDL
MODEL 3
REMARK VINA RESULT:      -7.5      2.446      5.662
REMARK  Name = 
REMARK  9 active torsions:
REMARK  status: ('A' for Active; 'I' for Inactive)
REMARK    1  A    between atoms: C_1  and  O_2
REMARK    2  A    between atoms: O_2  and  C_3
REMARK    3  A    between atoms: C_3  and  C_5
REMARK    4  A    between atoms: C_6  and  C_7
REMARK    5  A    between atoms: C_9  and  C_10
REMARK    6  A    between atoms: C_11  and  C_12
REMARK    7  A    between atoms: C_12  and  O_14
REMARK    8  A    between atoms: C_15  and  C_16
REMARK    9  A    between atoms: C_20  and  N_21
REMARK                            x       y       z     vdW  Elec       q    Type
REMARK                         _______ _______ _______ _____ _____    ______ ____
ROOT
ATOM      1  C   UNL     1       4.646   4.913  18.451  0.00  0.00    +0.000 C 
ATOM      2  C   UNL     1       4.424   4.083  17.404  0.00  0.00    +0.000 C 
ATOM      3  C   UNL     1       5.317   3.872  16.204  0.00  0.00    +0.000 C 
ATOM      4  N   UNL     1       3.270   3.306  17.393  0.00  0.00    +0.000 N 
ATOM      5  C   UNL     1       2.468   3.080  18.502  0.00  0.00    +0.000 C 
ATOM      6  C   UNL     1       1.485   1.942  18.379  0.00  0.00    +0.000 C 
ATOM      7  C   UNL     1       2.597   3.868  19.599  0.00  0.00    +0.000 C 
ATOM      8  C   UNL     1       3.586   5.035  19.555  0.00  0.00    +0.000 C 
ATOM      9  H   UNL     1       3.171   2.654  16.617  0.00  0.00    +0.000 HD
ENDROOT
BRANCH   8  10
ATOM     10  C   UNL     1       2.836   6.371  19.396  0.00  0.00    +0.000 A 
ATOM     11  C   UNL     1       2.795   7.032  18.151  0.00  0.00    +0.000 A 
ATOM     12  C   UNL     1       2.139   8.257  18.007  0.00  0.00    +0.000 A 
ATOM     13  C   UNL     1       1.504   8.841  19.099  0.00  0.00    +0.000 A 
ATOM     14  C   UNL     1       1.526   8.189  20.337  0.00  0.00    +0.000 A 
ATOM     15  C   UNL     1       2.194   6.964  20.494  0.00  0.00    +0.000 A 
BRANCH  14  16
ATOM     16  N   UNL     1       0.836   8.786  21.487  0.00  0.00    +0.000 N 
ATOM     17  O   UNL     1      -0.385   8.610  21.585  0.00  0.00    +0.000 OA
ATOM     18  O   UNL     1       1.525   9.423  22.297  0.00  0.00    +0.000 OA
ENDBRANCH  14  16
ENDBRANCH   8  10
BRANCH   1  19
ATOM     19  C   UNL     1       5.867   5.760  18.583  0.00  0.00    +0.000 C 
ATOM     20  O   UNL     1       6.197   6.652  17.826  0.00  0.00    +0.000 OA
BRANCH  19  22
ATOM     21  C   UNL     1       7.981   5.589  19.589  0.00  0.00    +0.000 C 
ATOM     22  O   UNL     1       6.569   5.379  19.684  0.00  0.00    +0.000 OA
ENDBRANCH  19  22
ENDBRANCH   1  19
BRANCH   7  23
ATOM     23  C   UNL     1       1.854   3.556  20.853  0.00  0.00    +0.000 C 
ATOM     24  O   UNL     1       2.387   3.155  21.876  0.00  0.00    +0.000 OA
BRANCH  23  25
ATOM     25  O   UNL     1       0.529   3.782  20.830  0.00  0.00    +0.000 OA
ATOM     26  H   UNL     1      -0.042   3.114  20.427  0.00  0.00    +0.000 HD
ENDBRANCH  23  25
ENDBRANCH   7  23
TORSDOF 6
ENDMDL
MODEL 4
REMARK VINA RESULT:      -7.5      2.442      5.527
REMARK  Name = 
REMARK  9 active torsions:
REMARK  status: ('A' for Active; 'I' for Inactive)
REMARK    1  A    between atoms: C_1  and  O_2
REMARK    2  A    between atoms: O_2  and  C_3
REMARK    3  A    between atoms: C_3  and  C_5
REMARK    4  A    between atoms: C_6  and  C_7
REMARK    5  A    between atoms: C_9  and  C_10
REMARK    6  A    between atoms: C_11  and  C_12
REMARK    7  A    between atoms: C_12  and  O_14
REMARK    8  A    between atoms: C_15  and  C_16
REMARK    9  A    between atoms: C_20  and  N_21
REMARK                            x       y       z     vdW  Elec       q    Type
REMARK                         _______ _______ _______ _____ _____    ______ ____
ROOT
ATOM      1  C   UNL     1       4.765   4.777  18.620  0.00  0.00    +0.000 C 
ATOM      2  C   UNL     1       4.607   3.961  17.550  0.00  0.00    +0.000 C 
ATOM      3  C   UNL     1       5.577   3.756  16.411  0.00  0.00    +0.000 C 
ATOM      4  N   UNL     1       3.451   3.193  17.454  0.00  0.00    +0.000 N 
ATOM      5  C   UNL     1       2.576   2.961  18.505  0.00  0.00    +0.000 C 
ATOM      6  C   UNL     1       1.595   1.832  18.303  0.00  0.00    +0.000 C 
ATOM      7  C   UNL     1       2.637   3.736  19.617  0.00  0.00    +0.000 C 
ATOM      8  C   UNL     1       3.634   4.895  19.652  0.00  0.00    +0.000 C 
ATOM      9  H   UNL     1       3.400   2.551  16.665  0.00  0.00    +0.000 HD
ENDROOT
BRANCH   8  10
ATOM     10  C   UNL     1       2.906   6.238  19.459  0.00  0.00    +0.000 A 
ATOM     11  C   UNL     1       2.889   6.877  18.202  0.00  0.00    +0.000 A 
ATOM     12  C   UNL     1       2.253   8.108  18.027  0.00  0.00    +0.000 A 
ATOM     13  C   UNL     1       1.614   8.721  19.100  0.00  0.00    +0.000 A 
ATOM     14  C   UNL     1       1.612   8.093  20.350  0.00  0.00    +0.000 A 
ATOM     15  C   UNL     1       2.260   6.862  20.538  0.00  0.00    +0.000 A 
BRANCH  14  16
ATOM     16  N   UNL     1       0.917   8.722  21.481  0.00  0.00    +0.000 N 
ATOM     17  O   UNL     1       1.570   9.476  22.214  0.00  0.00    +0.000 OA
ATOM     18  O   UNL     1      -0.287   8.465  21.623  0.00  0.00    +0.000 OA
ENDBRANCH  14  16
ENDBRANCH   8  10
BRANCH   1  19
ATOM     19  C   UNL     1       5.980   5.614  18.843  0.00  0.00    +0.000 C 
ATOM     20  O   UNL     1       6.780   5.476  19.748  0.00  0.00    +0.000 OA
BRANCH  19  22
ATOM     21  C   UNL     1       7.394   6.933  17.512  0.00  0.00    +0.000 C 
ATOM     22  O   UNL     1       6.060   6.568  17.877  0.00  0.00    +0.000 OA
ENDBRANCH  19  22
ENDBRANCH   1  19
BRANCH   7  23
ATOM     23  C   UNL     1       1.810   3.415  20.814  0.00  0.00    +0.000 C 
ATOM     24  O   UNL     1       2.276   3.065  21.887  0.00  0.00    +0.000 OA
BRANCH  23  25
ATOM     25  O   UNL     1       0.481   3.573  20.678  0.00  0.00    +0.000 OA
ATOM     26  H   UNL     1      -0.034   3.812  21.461  0.00  0.00    +0.000 HD
ENDBRANCH  23  25
ENDBRANCH   7  23
TORSDOF 6
ENDMDL
MODEL 5
REMARK VINA RESULT:      -7.5      2.129      5.740
REMARK  Name = 
REMARK  9 active torsions:
REMARK  status: ('A' for Active; 'I' for Inactive)
REMARK    1  A    between atoms: C_1  and  O_2
REMARK    2  A    between atoms: O_2  and  C_3
REMARK    3  A    between atoms: C_3  and  C_5
REMARK    4  A    between atoms: C_6  and  C_7
REMARK    5  A    between atoms: C_9  and  C_10
REMARK    6  A    between atoms: C_11  and  C_12
REMARK    7  A    between atoms: C_12  and  O_14
REMARK    8  A    between atoms: C_15  and  C_16
REMARK    9  A    between atoms: C_20  and  N_21
REMARK                            x       y       z     vdW  Elec       q    Type
REMARK                         _______ _______ _______ _____ _____    ______ ____
ROOT
ATOM      1  C   UNL     1       3.640   4.034  18.214  0.00  0.00    +0.000 C 
ATOM      2  C   UNL     1       4.543   3.398  18.999  0.00  0.00    +0.000 C 
ATOM      3  C   UNL     1       4.397   2.036  19.634  0.00  0.00    +0.000 C 
ATOM      4  N   UNL     1       5.760   4.018  19.264  0.00  0.00    +0.000 N 
ATOM      5  C   UNL     1       6.257   5.100  18.553  0.00  0.00    +0.000 C 
ATOM      6  C   UNL     1       7.724   5.395  18.752  0.00  0.00    +0.000 C 
ATOM      7  C   UNL     1       5.431   5.818  17.752  0.00  0.00    +0.000 C 
ATOM      8  C   UNL     1       3.947   5.449  17.706  0.00  0.00    +0.000 C 
ATOM      9  H   UNL     1       6.431   3.480  19.809  0.00  0.00    +0.000 HD
ENDROOT
BRANCH   8  10
ATOM     10  C   UNL     1       3.113   6.469  18.503  0.00  0.00    +0.000 A 
ATOM     11  C   UNL     1       2.785   6.235  19.855  0.00  0.00    +0.000 A 
ATOM     12  C   UNL     1       2.007   7.144  20.575  0.00  0.00    +0.000 A 
ATOM     13  C   UNL     1       1.549   8.308  19.965  0.00  0.00    +0.000 A 
ATOM     14  C   UNL     1       1.878   8.560  18.629  0.00  0.00    +0.000 A 
ATOM     15  C   UNL     1       2.649   7.645  17.893  0.00  0.00    +0.000 A 
BRANCH  14  16
ATOM     16  N   UNL     1       1.421   9.798  17.986  0.00  0.00    +0.000 N 
ATOM     17  O   UNL     1       2.279  10.565  17.532  0.00  0.00    +0.000 OA
ATOM     18  O   UNL     1       0.197   9.991  17.928  0.00  0.00    +0.000 OA
ENDBRANCH  14  16
ENDBRANCH   8  10
BRANCH   1  19
ATOM     19  C   UNL     1       2.322   3.445  17.835  0.00  0.00    +0.000 C 
ATOM     20  O   UNL     1       2.032   3.000  16.741  0.00  0.00    +0.000 OA
BRANCH  19  22
ATOM     21  C   UNL     1       0.677   2.313  19.068  0.00  0.00    +0.000 C 
ATOM     22  O   UNL     1       1.481   3.484  18.903  0.00  0.00    +0.000 OA
ENDBRANCH  19  22
ENDBRANCH   1  19
BRANCH   7  23
ATOM     23  C   UNL     1       5.970   6.891  16.868  0.00  0.00    +0.000 C 
ATOM     24  O   UNL     1       6.772   7.735  17.236  0.00  0.00    +0.000 OA
BRANCH  23  25
ATOM     25  O   UNL     1       5.556   6.870  15.589  0.00  0.00    +0.000 OA
ATOM     26  H   UNL     1       4.766   7.375  15.355  0.00  0.00    +0.000 HD
ENDBRANCH  23  25
ENDBRANCH   7  23
TORSDOF 6
ENDMDL
MODEL 6
REMARK VINA RESULT:      -7.3      1.813      2.076
REMARK  Name = 
REMARK  9 active torsions:
REMARK  status: ('A' for Active; 'I' for Inactive)
REMARK    1  A    between atoms: C_1  and  O_2
REMARK    2  A    between atoms: O_2  and  C_3
REMARK    3  A    between atoms: C_3  and  C_5
REMARK    4  A    between atoms: C_6  and  C_7
REMARK    5  A    between atoms: C_9  and  C_10
REMARK    6  A    between atoms: C_11  and  C_12
REMARK    7  A    between atoms: C_12  and  O_14
REMARK    8  A    between atoms: C_15  and  C_16
REMARK    9  A    between atoms: C_20  and  N_21
REMARK                            x       y       z     vdW  Elec       q    Type
REMARK                         _______ _______ _______ _____ _____    ______ ____
ROOT
ATOM      1  C   UNL     1       2.122   7.354  18.844  0.00  0.00    +0.000 C 
ATOM      2  C   UNL     1       1.978   7.336  20.191  0.00  0.00    +0.000 C 
ATOM      3  C   UNL     1       1.658   8.508  21.088  0.00  0.00    +0.000 C 
ATOM      4  N   UNL     1       2.113   6.127  20.867  0.00  0.00    +0.000 N 
ATOM      5  C   UNL     1       2.087   4.883  20.255  0.00  0.00    +0.000 C 
ATOM      6  C   UNL     1       1.890   3.705  21.178  0.00  0.00    +0.000 C 
ATOM      7  C   UNL     1       2.241   4.788  18.911  0.00  0.00    +0.000 C 
ATOM      8  C   UNL     1       2.508   6.063  18.109  0.00  0.00    +0.000 C 
ATOM      9  H   UNL     1       1.940   6.149  21.870  0.00  0.00    +0.000 HD
ENDROOT
BRANCH   8  10
ATOM     10  C   UNL     1       3.988   6.137  17.693  0.00  0.00    +0.000 A 
ATOM     11  C   UNL     1       4.363   6.696  16.453  0.00  0.00    +0.000 A 
ATOM     12  C   UNL     1       5.702   6.742  16.058  0.00  0.00    +0.000 A 
ATOM     13  C   UNL     1       6.694   6.241  16.896  0.00  0.00    +0.000 A 
ATOM     14  C   UNL     1       6.338   5.696  18.135  0.00  0.00    +0.000 A 
ATOM     15  C   UNL     1       4.993   5.633  18.533  0.00  0.00    +0.000 A 
BRANCH  14  16
ATOM     16  N   UNL     1       7.381   5.189  19.034  0.00  0.00    +0.000 N 
ATOM     17  O   UNL     1       7.327   5.517  20.227  0.00  0.00    +0.000 OA
ATOM     18  O   UNL     1       8.248   4.451  18.543  0.00  0.00    +0.000 OA
ENDBRANCH  14  16
ENDBRANCH   8  10
BRANCH   1  19
ATOM     19  C   UNL     1       1.959   8.586  18.017  0.00  0.00    +0.000 C 
ATOM     20  O   UNL     1       2.857   9.318  17.650  0.00  0.00    +0.000 OA
BRANCH  19  22
ATOM     21  C   UNL     1       0.129  10.050  18.138  0.00  0.00    +0.000 C 
ATOM     22  O   UNL     1       0.642   8.776  17.738  0.00  0.00    +0.000 OA
ENDBRANCH  19  22
ENDBRANCH   1  19
BRANCH   7  23
ATOM     23  C   UNL     1       2.070   3.481  18.215  0.00  0.00    +0.000 C 
ATOM     24  O   UNL     1       2.997   2.743  17.920  0.00  0.00    +0.000 OA
BRANCH  23  25
ATOM     25  O   UNL     1       0.805   3.110  17.951  0.00  0.00    +0.000 OA
ATOM     26  H   UNL     1       0.402   3.412  17.126  0.00  0.00    +0.000 HD
ENDBRANCH  23  25
ENDBRANCH   7  23
TORSDOF 6
ENDMDL
MODEL 7
REMARK VINA RESULT:      -7.2      2.078      5.889
REMARK  Name = 
REMARK  9 active torsions:
REMARK  status: ('A' for Active; 'I' for Inactive)
REMARK    1  A    between atoms: C_1  and  O_2
REMARK    2  A    between atoms: O_2  and  C_3
REMARK    3  A    between atoms: C_3  and  C_5
REMARK    4  A    between atoms: C_6  and  C_7
REMARK    5  A    between atoms: C_9  and  C_10
REMARK    6  A    between atoms: C_11  and  C_12
REMARK    7  A    between atoms: C_12  and  O_14
REMARK    8  A    between atoms: C_15  and  C_16
REMARK    9  A    between atoms: C_20  and  N_21
REMARK                            x       y       z     vdW  Elec       q    Type
REMARK                         _______ _______ _______ _____ _____    ______ ____
ROOT
ATOM      1  C   UNL     1       3.864   4.165  18.229  0.00  0.00    +0.000 C 
ATOM      2  C   UNL     1       4.551   3.646  19.275  0.00  0.00    +0.000 C 
ATOM      3  C   UNL     1       4.197   2.416  20.077  0.00  0.00    +0.000 C 
ATOM      4  N   UNL     1       5.727   4.267  19.684  0.00  0.00    +0.000 N 
ATOM      5  C   UNL     1       6.422   5.199  18.928  0.00  0.00    +0.000 C 
ATOM      6  C   UNL     1       7.835   5.482  19.376  0.00  0.00    +0.000 C 
ATOM      7  C   UNL     1       5.819   5.794  17.868  0.00  0.00    +0.000 C 
ATOM      8  C   UNL     1       4.355   5.464  17.575  0.00  0.00    +0.000 C 
ATOM      9  H   UNL     1       6.241   3.811  20.435  0.00  0.00    +0.000 HD
ENDROOT
BRANCH   8  10
ATOM     10  C   UNL     1       3.444   6.627  18.009  0.00  0.00    +0.000 A 
ATOM     11  C   UNL     1       3.180   7.703  17.136  0.00  0.00    +0.000 A 
ATOM     12  C   UNL     1       2.376   8.774  17.533  0.00  0.00    +0.000 A 
ATOM     13  C   UNL     1       1.811   8.787  18.805  0.00  0.00    +0.000 A 
ATOM     14  C   UNL     1       2.053   7.721  19.677  0.00  0.00    +0.000 A 
ATOM     15  C   UNL     1       2.871   6.647  19.291  0.00  0.00    +0.000 A 
BRANCH  14  16
ATOM     16  N   UNL     1       1.440   7.716  21.011  0.00  0.00    +0.000 N 
ATOM     17  O   UNL     1       1.439   8.775  21.651  0.00  0.00    +0.000 OA
ATOM     18  O   UNL     1       0.950   6.649  21.409  0.00  0.00    +0.000 OA
ENDBRANCH  14  16
ENDBRANCH   8  10
BRANCH   1  19
ATOM     19  C   UNL     1       2.615   3.557  17.684  0.00  0.00    +0.000 C 
ATOM     20  O   UNL     1       2.508   2.994  16.612  0.00  0.00    +0.000 OA
BRANCH  19  22
ATOM     21  C   UNL     1       0.806   2.565  18.804  0.00  0.00    +0.000 C 
ATOM     22  O   UNL     1       1.599   3.733  18.571  0.00  0.00    +0.000 OA
ENDBRANCH  19  22
ENDBRANCH   1  19
BRANCH   7  23
ATOM     23  C   UNL     1       6.589   6.685  16.955  0.00  0.00    +0.000 C 
ATOM     24  O   UNL     1       6.695   7.892  17.114  0.00  0.00    +0.000 OA
BRANCH  23  25
ATOM     25  O   UNL     1       7.223   6.084  15.933  0.00  0.00    +0.000 OA
ATOM     26  H   UNL     1       7.078   6.425  15.040  0.00  0.00    +0.000 HD
ENDBRANCH  23  25
ENDBRANCH   7  23
TORSDOF 6
ENDMDL
MODEL 8
REMARK VINA RESULT:      -7.2      1.793      2.197
REMARK  Name = 
REMARK  9 active torsions:
REMARK  status: ('A' for Active; 'I' for Inactive)
REMARK    1  A    between atoms: C_1  and  O_2
REMARK    2  A    between atoms: O_2  and  C_3
REMARK    3  A    between atoms: C_3  and  C_5
REMARK    4  A    between atoms: C_6  and  C_7
REMARK    5  A    between atoms: C_9  and  C_10
REMARK    6  A    between atoms: C_11  and  C_12
REMARK    7  A    between atoms: C_12  and  O_14
REMARK    8  A    between atoms: C_15  and  C_16
REMARK    9  A    between atoms: C_20  and  N_21
REMARK                            x       y       z     vdW  Elec       q    Type
REMARK                         _______ _______ _______ _____ _____    ______ ____
ROOT
ATOM      1  C   UNL     1       2.285   6.032  18.928  0.00  0.00    +0.000 C 
ATOM      2  C   UNL     1       2.179   6.172  20.271  0.00  0.00    +0.000 C 
ATOM      3  C   UNL     1       1.810   7.425  21.029  0.00  0.00    +0.000 C 
ATOM      4  N   UNL     1       2.407   5.066  21.084  0.00  0.00    +0.000 N 
ATOM      5  C   UNL     1       2.442   3.756  20.630  0.00  0.00    +0.000 C 
ATOM      6  C   UNL     1       2.343   2.692  21.696  0.00  0.00    +0.000 C 
ATOM      7  C   UNL     1       2.566   3.505  19.303  0.00  0.00    +0.000 C 
ATOM      8  C   UNL     1       2.732   4.684  18.344  0.00  0.00    +0.000 C 
ATOM      9  H   UNL     1       2.259   5.202  22.083  0.00  0.00    +0.000 HD
ENDROOT
BRANCH   8  10
ATOM     10  C   UNL     1       4.193   4.793  17.871  0.00  0.00    +0.000 A 
ATOM     11  C   UNL     1       4.565   4.387  16.573  0.00  0.00    +0.000 A 
ATOM     12  C   UNL     1       5.894   4.458  16.148  0.00  0.00    +0.000 A 
ATOM     13  C   UNL     1       6.875   4.947  17.006  0.00  0.00    +0.000 A 
ATOM     14  C   UNL     1       6.518   5.366  18.292  0.00  0.00    +0.000 A 
ATOM     15  C   UNL     1       5.188   5.284  18.732  0.00  0.00    +0.000 A 
BRANCH  14  16
ATOM     16  N   UNL     1       7.544   5.906  19.193  0.00  0.00    +0.000 N 
ATOM     17  O   UNL     1       8.212   6.869  18.798  0.00  0.00    +0.000 OA
ATOM     18  O   UNL     1       7.668   5.366  20.303  0.00  0.00    +0.000 OA
ENDBRANCH  14  16
ENDBRANCH   8  10
BRANCH   1  19
ATOM     19  C   UNL     1       2.024   7.140  17.963  0.00  0.00    +0.000 C 
ATOM     20  O   UNL     1       1.081   7.210  17.200  0.00  0.00    +0.000 OA
BRANCH  19  22
ATOM     21  C   UNL     1       2.570   9.423  17.924  0.00  0.00    +0.000 C 
ATOM     22  O   UNL     1       3.013   8.069  18.059  0.00  0.00    +0.000 OA
ENDBRANCH  19  22
ENDBRANCH   1  19
BRANCH   7  23
ATOM     23  C   UNL     1       2.459   2.114  18.778  0.00  0.00    +0.000 C 
ATOM     24  O   UNL     1       3.421   1.392  18.567  0.00  0.00    +0.000 OA
BRANCH  23  25
ATOM     25  O   UNL     1       1.213   1.650  18.576  0.00  0.00    +0.000 OA
ATOM     26  H   UNL     1       0.499   2.003  19.124  0.00  0.00    +0.000 HD
ENDBRANCH  23  25
ENDBRANCH   7  23
TORSDOF 6
ENDMDL
MODEL 9
REMARK VINA RESULT:      -6.6      2.098      5.967
REMARK  Name = 
REMARK  9 active torsions:
REMARK  status: ('A' for Active; 'I' for Inactive)
REMARK    1  A    between atoms: C_1  and  O_2
REMARK    2  A    between atoms: O_2  and  C_3
REMARK    3  A    between atoms: C_3  and  C_5
REMARK    4  A    between atoms: C_6  and  C_7
REMARK    5  A    between atoms: C_9  and  C_10
REMARK    6  A    between atoms: C_11  and  C_12
REMARK    7  A    between atoms: C_12  and  O_14
REMARK    8  A    between atoms: C_15  and  C_16
REMARK    9  A    between atoms: C_20  and  N_21
REMARK                            x       y       z     vdW  Elec       q    Type
REMARK                         _______ _______ _______ _____ _____    ______ ____
ROOT
ATOM      1  C   UNL     1       3.157   4.504  18.733  0.00  0.00    +0.000 C 
ATOM      2  C   UNL     1       4.006   4.054  19.688  0.00  0.00    +0.000 C 
ATOM      3  C   UNL     1       3.753   2.947  20.683  0.00  0.00    +0.000 C 
ATOM      4  N   UNL     1       5.269   4.629  19.791  0.00  0.00    +0.000 N 
ATOM      5  C   UNL     1       5.850   5.421  18.811  0.00  0.00    +0.000 C 
ATOM      6  C   UNL     1       7.336   5.648  18.950  0.00  0.00    +0.000 C 
ATOM      7  C   UNL     1       5.084   5.939  17.819  0.00  0.00    +0.000 C 
ATOM      8  C   UNL     1       3.575   5.686  17.847  0.00  0.00    +0.000 C 
ATOM      9  H   UNL     1       5.896   4.222  20.482  0.00  0.00    +0.000 HD
ENDROOT
BRANCH   8  10
ATOM     10  C   UNL     1       2.825   6.952  18.300  0.00  0.00    +0.000 A 
ATOM     11  C   UNL     1       2.636   8.035  17.417  0.00  0.00    +0.000 A 
ATOM     12  C   UNL     1       1.980   9.197  17.830  0.00  0.00    +0.000 A 
ATOM     13  C   UNL     1       1.491   9.297  19.129  0.00  0.00    +0.000 A 
ATOM     14  C   UNL     1       1.660   8.225  20.013  0.00  0.00    +0.000 A 
ATOM     15  C   UNL     1       2.330   7.059  19.609  0.00  0.00    +0.000 A 
BRANCH  14  16
ATOM     16  N   UNL     1       1.124   8.314  21.376  0.00  0.00    +0.000 N 
ATOM     17  O   UNL     1       1.806   8.896  22.229  0.00  0.00    +0.000 OA
ATOM     18  O   UNL     1       0.011   7.808  21.585  0.00  0.00    +0.000 OA
ENDBRANCH  14  16
ENDBRANCH   8  10
BRANCH   1  19
ATOM     19  C   UNL     1       1.796   3.933  18.509  0.00  0.00    +0.000 C 
ATOM     20  O   UNL     1       0.855   4.022  19.273  0.00  0.00    +0.000 OA
BRANCH  19  22
ATOM     21  C   UNL     1       2.645   2.158  17.228  0.00  0.00    +0.000 C 
ATOM     22  O   UNL     1       1.766   3.284  17.314  0.00  0.00    +0.000 OA
ENDBRANCH  19  22
ENDBRANCH   1  19
BRANCH   7  23
ATOM     23  C   UNL     1       5.706   6.668  16.678  0.00  0.00    +0.000 C 
ATOM     24  O   UNL     1       5.516   6.382  15.506  0.00  0.00    +0.000 OA
BRANCH  23  25
ATOM     25  O   UNL     1       6.480   7.719  16.996  0.00  0.00    +0.000 OA
ATOM     26  H   UNL     1       6.232   8.590  16.658  0.00  0.00    +0.000 HD
ENDBRANCH  23  25
ENDBRANCH   7  23
TORSDOF 6
ENDMDL
