MODEL 1
REMARK VINA RESULT:      -7.6      0.000      0.000
REMARK  Name = 
REMARK  7 active torsions:
REMARK  status: ('A' for Active; 'I' for Inactive)
REMARK    1  A    between atoms: C_1  and  C_2
REMARK    2  A    between atoms: C_5  and  S_6
REMARK    3  A    between atoms: S_6  and  C_7
REMARK    4  A    between atoms: C_13  and  N_14
REMARK    5  A    between atoms: C_17  and  C_18
REMARK    6  A    between atoms: C_18  and  S_19
REMARK    7  A    between atoms: S_19  and  C_22
REMARK                            x       y       z     vdW  Elec       q    Type
REMARK                         _______ _______ _______ _____ _____    ______ ____
ROOT
ATOM      1  C   UNL     1       1.259   9.483  19.712  0.00  0.00    +0.000 A 
ATOM      2  C   UNL     1       0.684   9.834  20.880  0.00  0.00    +0.000 A 
ATOM      3  C   UNL     1       0.521   8.885  21.959  0.00  0.00    +0.000 A 
ATOM      4 CL   UNL     1      -0.204   9.412  23.425  0.00  0.00    +0.000 Cl
ATOM      5  C   UNL     1       0.918   7.615  21.792  0.00  0.00    +0.000 A 
ATOM      6  N   UNL     1       1.493   7.218  20.578  0.00  0.00    +0.000 N 
ATOM      7  C   UNL     1       1.957   5.999  20.112  0.00  0.00    +0.000 A 
ATOM      8  C   UNL     1       2.392   6.197  18.814  0.00  0.00    +0.000 A 
ATOM      9  N   UNL     1       2.177   7.511  18.456  0.00  0.00    +0.000 NA
ATOM     10  C   UNL     1       1.673   8.120  19.512  0.00  0.00    +0.000 A 
ENDROOT
BRANCH   7  11
ATOM     11  N   UNL     1       1.920   4.782  20.858  0.00  0.00    +0.000 N 
ATOM     12  O   UNL     1       2.833   4.556  21.654  0.00  0.00    +0.000 OA
ATOM     13  O   UNL     1       0.939   4.055  20.674  0.00  0.00    +0.000 OA
ENDBRANCH   7  11
BRANCH   1  14
ATOM     14  S   UNL     1       1.353  10.623  18.407  0.00  0.00    +0.000 S 
BRANCH  14  19
ATOM     15  C   UNL     1      -4.632  11.196  17.344  0.00  0.00    +0.000 C 
ATOM     16  C   UNL     1      -3.152  11.082  17.567  0.00  0.00    +0.000 A 
ATOM     17  C   UNL     1      -2.456   9.931  17.186  0.00  0.00    +0.000 A 
ATOM     18  C   UNL     1      -1.079   9.826  17.414  0.00  0.00    +0.000 A 
ATOM     19  C   UNL     1      -0.374  10.869  18.024  0.00  0.00    +0.000 A 
ATOM     20  C   UNL     1      -1.072  12.015  18.414  0.00  0.00    +0.000 A 
ATOM     21  C   UNL     1      -2.449  12.125  18.182  0.00  0.00    +0.000 A 
ENDBRANCH  14  19
ENDBRANCH   1  14
BRANCH   8  22
ATOM     22  C   UNL     1       2.955   5.258  17.799  0.00  0.00    +0.000 C 
BRANCH  22  23
ATOM     23  S   UNL     1       4.508   4.539  18.321  0.00  0.00    +0.000 S 
ATOM     24  O   UNL     1       5.171   5.429  19.257  0.00  0.00    +0.000 OA
ATOM     25  O   UNL     1       4.296   3.145  18.672  0.00  0.00    +0.000 OA
BRANCH  23  26
ATOM     26  C   UNL     1       5.481   4.567  16.824  0.00  0.00    +0.000 A 
ATOM     27  C   UNL     1       4.870   4.231  15.612  0.00  0.00    +0.000 A 
ATOM     28  C   UNL     1       5.614   4.271  14.435  0.00  0.00    +0.000 A 
ATOM     29  C   UNL     1       6.955   4.653  14.469  0.00  0.00    +0.000 A 
ATOM     30  C   UNL     1       7.557   5.002  15.680  0.00  0.00    +0.000 A 
ATOM     31  C   UNL     1       6.819   4.968  16.865  0.00  0.00    +0.000 A 
ENDBRANCH  23  26
ENDBRANCH  22  23
ENDBRANCH   8  22
TORSDOF 6
ENDMDL
MODEL 2
REMARK VINA RESULT:      -7.2      1.524      2.364
REMARK  Name = 
REMARK  7 active torsions:
REMARK  status: ('A' for Active; 'I' for Inactive)
REMARK    1  A    between atoms: C_1  and  C_2
REMARK    2  A    between atoms: C_5  and  S_6
REMARK    3  A    between atoms: S_6  and  C_7
REMARK    4  A    between atoms: C_13  and  N_14
REMARK    5  A    between atoms: C_17  and  C_18
REMARK    6  A    between atoms: C_18  and  S_19
REMARK    7  A    between atoms: S_19  and  C_22
REMARK                            x       y       z     vdW  Elec       q    Type
REMARK                         _______ _______ _______ _____ _____    ______ ____
ROOT
ATOM      1  C   UNL     1       1.542   9.497  19.466  0.00  0.00    +0.000 A 
ATOM      2  C   UNL     1       0.919   9.934  20.579  0.00  0.00    +0.000 A 
ATOM      3  C   UNL     1       0.601   9.038  21.669  0.00  0.00    +0.000 A 
ATOM      4 CL   UNL     1      -0.178   9.671  23.063  0.00  0.00    +0.000 Cl
ATOM      5  C   UNL     1       0.901   7.734  21.566  0.00  0.00    +0.000 A 
ATOM      6  N   UNL     1       1.524   7.251  20.408  0.00  0.00    +0.000 N 
ATOM      7  C   UNL     1       1.915   5.984  20.010  0.00  0.00    +0.000 A 
ATOM      8  C   UNL     1       2.456   6.102  18.742  0.00  0.00    +0.000 A 
ATOM      9  N   UNL     1       2.378   7.416  18.334  0.00  0.00    +0.000 NA
ATOM     10  C   UNL     1       1.853   8.100  19.334  0.00  0.00    +0.000 A 
ENDROOT
BRANCH   7  11
ATOM     11  N   UNL     1       1.724   4.799  20.784  0.00  0.00    +0.000 N 
ATOM     12  O   UNL     1       0.744   4.092  20.539  0.00  0.00    +0.000 OA
ATOM     13  O   UNL     1       2.589   4.549  21.628  0.00  0.00    +0.000 OA
ENDBRANCH   7  11
BRANCH   1  14
ATOM     14  S   UNL     1       1.824  10.582  18.141  0.00  0.00    +0.000 S 
BRANCH  14  19
ATOM     15  C   UNL     1      -0.080  16.023  20.154  0.00  0.00    +0.000 C 
ATOM     16  C   UNL     1       0.370  14.666  19.698  0.00  0.00    +0.000 A 
ATOM     17  C   UNL     1       1.701  14.265  19.844  0.00  0.00    +0.000 A 
ATOM     18  C   UNL     1       2.116  13.004  19.400  0.00  0.00    +0.000 A 
ATOM     19  C   UNL     1       1.208  12.122  18.805  0.00  0.00    +0.000 A 
ATOM     20  C   UNL     1      -0.121  12.526  18.650  0.00  0.00    +0.000 A 
ATOM     21  C   UNL     1      -0.539  13.786  19.099  0.00  0.00    +0.000 A 
ENDBRANCH  14  19
ENDBRANCH   1  14
BRANCH   8  22
ATOM     22  C   UNL     1       3.007   5.087  17.797  0.00  0.00    +0.000 C 
BRANCH  22  23
ATOM     23  S   UNL     1       4.605   4.470  18.314  0.00  0.00    +0.000 S 
ATOM     24  O   UNL     1       5.228   5.417  19.221  0.00  0.00    +0.000 OA
ATOM     25  O   UNL     1       4.478   3.074  18.698  0.00  0.00    +0.000 OA
BRANCH  23  26
ATOM     26  C   UNL     1       5.556   4.519  16.804  0.00  0.00    +0.000 A 
ATOM     27  C   UNL     1       4.944   4.142  15.604  0.00  0.00    +0.000 A 
ATOM     28  C   UNL     1       5.671   4.197  14.417  0.00  0.00    +0.000 A 
ATOM     29  C   UNL     1       6.995   4.635  14.428  0.00  0.00    +0.000 A 
ATOM     30  C   UNL     1       7.597   5.025  15.626  0.00  0.00    +0.000 A 
ATOM     31  C   UNL     1       6.877   4.976  16.821  0.00  0.00    +0.000 A 
ENDBRANCH  23  26
ENDBRANCH  22  23
ENDBRANCH   8  22
TORSDOF 6
ENDMDL
MODEL 3
REMARK VINA RESULT:      -7.0      1.533      2.233
REMARK  Name = 
REMARK  7 active torsions:
REMARK  status: ('A' for Active; 'I' for Inactive)
REMARK    1  A    between atoms: C_1  and  C_2
REMARK    2  A    between atoms: C_5  and  S_6
REMARK    3  A    between atoms: S_6  and  C_7
REMARK    4  A    between atoms: C_13  and  N_14
REMARK    5  A    between atoms: C_17  and  C_18
REMARK    6  A    between atoms: C_18  and  S_19
REMARK    7  A    between atoms: S_19  and  C_22
REMARK                            x       y       z     vdW  Elec       q    Type
REMARK                         _______ _______ _______ _____ _____    ______ ____
ROOT
ATOM      1  C   UNL     1       1.501   9.504  19.509  0.00  0.00    +0.000 A 
ATOM      2  C   UNL     1       0.872   9.922  20.625  0.00  0.00    +0.000 A 
ATOM      3  C   UNL     1       0.563   9.011  21.706  0.00  0.00    +0.000 A 
ATOM      4 CL   UNL     1      -0.224   9.621  23.106  0.00  0.00    +0.000 Cl
ATOM      5  C   UNL     1       0.877   7.712  21.590  0.00  0.00    +0.000 A 
ATOM      6  N   UNL     1       1.507   7.248  20.427  0.00  0.00    +0.000 N 
ATOM      7  C   UNL     1       1.912   5.989  20.017  0.00  0.00    +0.000 A 
ATOM      8  C   UNL     1       2.452   6.126  18.751  0.00  0.00    +0.000 A 
ATOM      9  N   UNL     1       2.360   7.443  18.356  0.00  0.00    +0.000 NA
ATOM     10  C   UNL     1       1.827   8.111  19.362  0.00  0.00    +0.000 A 
ENDROOT
BRANCH   7  11
ATOM     11  N   UNL     1       1.733   4.795  20.779  0.00  0.00    +0.000 N 
ATOM     12  O   UNL     1       2.572   4.517  21.639  0.00  0.00    +0.000 OA
ATOM     13  O   UNL     1       0.713   4.139  20.542  0.00  0.00    +0.000 OA
ENDBRANCH   7  11
BRANCH   1  14
ATOM     14  S   UNL     1       1.772  10.605  18.194  0.00  0.00    +0.000 S 
BRANCH  14  19
ATOM     15  C   UNL     1      -0.354  15.681  20.839  0.00  0.00    +0.000 C 
ATOM     16  C   UNL     1       0.188  14.460  20.156  0.00  0.00    +0.000 A 
ATOM     17  C   UNL     1      -0.631  13.667  19.347  0.00  0.00    +0.000 A 
ATOM     18  C   UNL     1      -0.122  12.520  18.727  0.00  0.00    +0.000 A 
ATOM     19  C   UNL     1       1.215  12.147  18.903  0.00  0.00    +0.000 A 
ATOM     20  C   UNL     1       2.032  12.934  19.719  0.00  0.00    +0.000 A 
ATOM     21  C   UNL     1       1.525  14.086  20.336  0.00  0.00    +0.000 A 
ENDBRANCH  14  19
ENDBRANCH   1  14
BRANCH   8  22
ATOM     22  C   UNL     1       3.016   5.126  17.796  0.00  0.00    +0.000 C 
BRANCH  22  23
ATOM     23  S   UNL     1       4.591   4.476  18.340  0.00  0.00    +0.000 S 
ATOM     24  O   UNL     1       5.210   5.401  19.271  0.00  0.00    +0.000 OA
ATOM     25  O   UNL     1       4.431   3.078  18.704  0.00  0.00    +0.000 OA
BRANCH  23  26
ATOM     26  C   UNL     1       5.575   4.525  16.851  0.00  0.00    +0.000 A 
ATOM     27  C   UNL     1       5.046   3.995  15.670  0.00  0.00    +0.000 A 
ATOM     28  C   UNL     1       5.797   4.048  14.498  0.00  0.00    +0.000 A 
ATOM     29  C   UNL     1       7.062   4.636  14.504  0.00  0.00    +0.000 A 
ATOM     30  C   UNL     1       7.580   5.177  15.683  0.00  0.00    +0.000 A 
ATOM     31  C   UNL     1       6.835   5.131  16.863  0.00  0.00    +0.000 A 
ENDBRANCH  23  26
ENDBRANCH  22  23
ENDBRANCH   8  22
TORSDOF 6
ENDMDL
MODEL 4
REMARK VINA RESULT:      -6.9      1.579      2.498
REMARK  Name = 
REMARK  7 active torsions:
REMARK  status: ('A' for Active; 'I' for Inactive)
REMARK    1  A    between atoms: C_1  and  C_2
REMARK    2  A    between atoms: C_5  and  S_6
REMARK    3  A    between atoms: S_6  and  C_7
REMARK    4  A    between atoms: C_13  and  N_14
REMARK    5  A    between atoms: C_17  and  C_18
REMARK    6  A    between atoms: C_18  and  S_19
REMARK    7  A    between atoms: S_19  and  C_22
REMARK                            x       y       z     vdW  Elec       q    Type
REMARK                         _______ _______ _______ _____ _____    ______ ____
ROOT
ATOM      1  C   UNL     1       1.472   9.505  19.525  0.00  0.00    +0.000 A 
ATOM      2  C   UNL     1       0.851   9.916  20.650  0.00  0.00    +0.000 A 
ATOM      3  C   UNL     1       0.557   8.999  21.729  0.00  0.00    +0.000 A 
ATOM      4 CL   UNL     1      -0.220   9.601  23.139  0.00  0.00    +0.000 Cl
ATOM      5  C   UNL     1       0.876   7.702  21.605  0.00  0.00    +0.000 A 
ATOM      6  N   UNL     1       1.497   7.246  20.435  0.00  0.00    +0.000 N 
ATOM      7  C   UNL     1       1.904   5.990  20.017  0.00  0.00    +0.000 A 
ATOM      8  C   UNL     1       2.432   6.135  18.746  0.00  0.00    +0.000 A 
ATOM      9  N   UNL     1       2.330   7.453  18.357  0.00  0.00    +0.000 NA
ATOM     10  C   UNL     1       1.803   8.114  19.371  0.00  0.00    +0.000 A 
ENDROOT
BRANCH   7  11
ATOM     11  N   UNL     1       1.738   4.792  20.775  0.00  0.00    +0.000 N 
ATOM     12  O   UNL     1       0.757   4.083  20.543  0.00  0.00    +0.000 OA
ATOM     13  O   UNL     1       2.626   4.533  21.594  0.00  0.00    +0.000 OA
ENDBRANCH   7  11
BRANCH   1  14
ATOM     14  S   UNL     1       1.725  10.612  18.213  0.00  0.00    +0.000 S 
BRANCH  14  19
ATOM     15  C   UNL     1      -0.228  15.717  20.935  0.00  0.00    +0.000 C 
ATOM     16  C   UNL     1       0.277  14.489  20.235  0.00  0.00    +0.000 A 
ATOM     17  C   UNL     1      -0.520  13.812  19.308  0.00  0.00    +0.000 A 
ATOM     18  C   UNL     1      -0.048  12.658  18.674  0.00  0.00    +0.000 A 
ATOM     19  C   UNL     1       1.229  12.160  18.954  0.00  0.00    +0.000 A 
ATOM     20  C   UNL     1       2.023  12.831  19.888  0.00  0.00    +0.000 A 
ATOM     21  C   UNL     1       1.554  13.991  20.520  0.00  0.00    +0.000 A 
ENDBRANCH  14  19
ENDBRANCH   1  14
BRANCH   8  22
ATOM     22  C   UNL     1       2.991   5.141  17.782  0.00  0.00    +0.000 C 
BRANCH  22  23
ATOM     23  S   UNL     1       4.583   4.510  18.299  0.00  0.00    +0.000 S 
ATOM     24  O   UNL     1       5.202   5.438  19.228  0.00  0.00    +0.000 OA
ATOM     25  O   UNL     1       4.449   3.108  18.657  0.00  0.00    +0.000 OA
BRANCH  23  26
ATOM     26  C   UNL     1       5.545   4.582  16.797  0.00  0.00    +0.000 A 
ATOM     27  C   UNL     1       6.782   5.237  16.814  0.00  0.00    +0.000 A 
ATOM     28  C   UNL     1       7.549   5.280  15.652  0.00  0.00    +0.000 A 
ATOM     29  C   UNL     1       7.090   4.666  14.487  0.00  0.00    +0.000 A 
ATOM     30  C   UNL     1       5.862   4.001  14.480  0.00  0.00    +0.000 A 
ATOM     31  C   UNL     1       5.085   3.949  15.639  0.00  0.00    +0.000 A 
ENDBRANCH  23  26
ENDBRANCH  22  23
ENDBRANCH   8  22
TORSDOF 6
ENDMDL
MODEL 5
REMARK VINA RESULT:      -6.9      5.694     10.285
REMARK  Name = 
REMARK  7 active torsions:
REMARK  status: ('A' for Active; 'I' for Inactive)
REMARK    1  A    between atoms: C_1  and  C_2
REMARK    2  A    between atoms: C_5  and  S_6
REMARK    3  A    between atoms: S_6  and  C_7
REMARK    4  A    between atoms: C_13  and  N_14
REMARK    5  A    between atoms: C_17  and  C_18
REMARK    6  A    between atoms: C_18  and  S_19
REMARK    7  A    between atoms: S_19  and  C_22
REMARK                            x       y       z     vdW  Elec       q    Type
REMARK                         _______ _______ _______ _____ _____    ______ ____
ROOT
ATOM      1  C   UNL     1      -0.301  11.155  18.515  0.00  0.00    +0.000 A 
ATOM      2  C   UNL     1      -0.988  10.347  17.682  0.00  0.00    +0.000 A 
ATOM      3  C   UNL     1      -2.430  10.409  17.586  0.00  0.00    +0.000 A 
ATOM      4 CL   UNL     1      -3.234   9.360  16.489  0.00  0.00    +0.000 Cl
ATOM      5  C   UNL     1      -3.110  11.264  18.364  0.00  0.00    +0.000 A 
ATOM      6  N   UNL     1      -2.421  12.094  19.258  0.00  0.00    +0.000 N 
ATOM      7  C   UNL     1      -2.844  13.029  20.188  0.00  0.00    +0.000 A 
ATOM      8  C   UNL     1      -1.713  13.523  20.814  0.00  0.00    +0.000 A 
ATOM      9  N   UNL     1      -0.599  12.887  20.310  0.00  0.00    +0.000 NA
ATOM     10  C   UNL     1      -1.019  12.063  19.368  0.00  0.00    +0.000 A 
ENDROOT
BRANCH   7  11
ATOM     11  N   UNL     1      -4.211  13.348  20.449  0.00  0.00    +0.000 N 
ATOM     12  O   UNL     1      -4.937  12.471  20.920  0.00  0.00    +0.000 OA
ATOM     13  O   UNL     1      -4.558  14.511  20.216  0.00  0.00    +0.000 OA
ENDBRANCH   7  11
BRANCH   1  14
ATOM     14  S   UNL     1       1.420  10.988  18.671  0.00  0.00    +0.000 S 
BRANCH  14  19
ATOM     15  C   UNL     1       2.290   5.201  20.414  0.00  0.00    +0.000 C 
ATOM     16  C   UNL     1       2.031   6.612  19.975  0.00  0.00    +0.000 A 
ATOM     17  C   UNL     1       2.457   7.063  18.722  0.00  0.00    +0.000 A 
ATOM     18  C   UNL     1       2.227   8.386  18.327  0.00  0.00    +0.000 A 
ATOM     19  C   UNL     1       1.567   9.280  19.176  0.00  0.00    +0.000 A 
ATOM     20  C   UNL     1       1.150   8.833  20.433  0.00  0.00    +0.000 A 
ATOM     21  C   UNL     1       1.374   7.507  20.827  0.00  0.00    +0.000 A 
ENDBRANCH  14  19
ENDBRANCH   1  14
BRANCH   8  22
ATOM     22  C   UNL     1      -1.538  14.516  21.915  0.00  0.00    +0.000 C 
BRANCH  22  23
ATOM     23  S   UNL     1      -1.630  13.762  23.535  0.00  0.00    +0.000 S 
ATOM     24  O   UNL     1      -1.169  12.388  23.464  0.00  0.00    +0.000 OA
ATOM     25  O   UNL     1      -1.060  14.669  24.517  0.00  0.00    +0.000 OA
BRANCH  23  26
ATOM     26  C   UNL     1      -3.387  13.690  23.838  0.00  0.00    +0.000 A 
ATOM     27  C   UNL     1      -4.164  14.829  23.601  0.00  0.00    +0.000 A 
ATOM     28  C   UNL     1      -5.540  14.776  23.814  0.00  0.00    +0.000 A 
ATOM     29  C   UNL     1      -6.135  13.592  24.250  0.00  0.00    +0.000 A 
ATOM     30  C   UNL     1      -5.357  12.454  24.471  0.00  0.00    +0.000 A 
ATOM     31  C   UNL     1      -3.978  12.494  24.258  0.00  0.00    +0.000 A 
ENDBRANCH  23  26
ENDBRANCH  22  23
ENDBRANCH   8  22
TORSDOF 6
ENDMDL
MODEL 6
REMARK VINA RESULT:      -6.9      7.379     10.426
REMARK  Name = 
REMARK  7 active torsions:
REMARK  status: ('A' for Active; 'I' for Inactive)
REMARK    1  A    between atoms: C_1  and  C_2
REMARK    2  A    between atoms: C_5  and  S_6
REMARK    3  A    between atoms: S_6  and  C_7
REMARK    4  A    between atoms: C_13  and  N_14
REMARK    5  A    between atoms: C_17  and  C_18
REMARK    6  A    between atoms: C_18  and  S_19
REMARK    7  A    between atoms: S_19  and  C_22
REMARK                            x       y       z     vdW  Elec       q    Type
REMARK                         _______ _______ _______ _____ _____    ______ ____
ROOT
ATOM      1  C   UNL     1      -1.301  11.676  20.302  0.00  0.00    +0.000 A 
ATOM      2  C   UNL     1      -0.415  10.877  20.930  0.00  0.00    +0.000 A 
ATOM      3  C   UNL     1      -0.517  10.600  22.346  0.00  0.00    +0.000 A 
ATOM      4 CL   UNL     1       0.638   9.556  23.072  0.00  0.00    +0.000 Cl
ATOM      5  C   UNL     1      -1.492  11.174  23.066  0.00  0.00    +0.000 A 
ATOM      6  N   UNL     1      -2.408  12.031  22.442  0.00  0.00    +0.000 N 
ATOM      7  C   UNL     1      -3.474  12.776  22.919  0.00  0.00    +0.000 A 
ATOM      8  C   UNL     1      -4.004  13.465  21.843  0.00  0.00    +0.000 A 
ATOM      9  N   UNL     1      -3.266  13.186  20.713  0.00  0.00    +0.000 NA
ATOM     10  C   UNL     1      -2.341  12.313  21.064  0.00  0.00    +0.000 A 
ENDROOT
BRANCH   7  11
ATOM     11  N   UNL     1      -3.875  12.826  24.288  0.00  0.00    +0.000 N 
ATOM     12  O   UNL     1      -4.578  11.913  24.726  0.00  0.00    +0.000 OA
ATOM     13  O   UNL     1      -3.448  13.777  24.951  0.00  0.00    +0.000 OA
ENDBRANCH   7  11
BRANCH   1  14
ATOM     14  S   UNL     1      -1.093  12.060  18.621  0.00  0.00    +0.000 S 
BRANCH  14  19
ATOM     15  C   UNL     1       3.170  16.430  18.530  0.00  0.00    +0.000 C 
ATOM     16  C   UNL     1       2.124  15.356  18.600  0.00  0.00    +0.000 A 
ATOM     17  C   UNL     1       2.455  14.017  18.374  0.00  0.00    +0.000 A 
ATOM     18  C   UNL     1       1.471  13.024  18.424  0.00  0.00    +0.000 A 
ATOM     19  C   UNL     1       0.139  13.351  18.701  0.00  0.00    +0.000 A 
ATOM     20  C   UNL     1      -0.194  14.691  18.917  0.00  0.00    +0.000 A 
ATOM     21  C   UNL     1       0.792  15.686  18.873  0.00  0.00    +0.000 A 
ENDBRANCH  14  19
ENDBRANCH   1  14
BRANCH   8  22
ATOM     22  C   UNL     1      -5.129  14.443  21.744  0.00  0.00    +0.000 C 
BRANCH  22  23
ATOM     23  S   UNL     1      -6.716  13.640  21.549  0.00  0.00    +0.000 S 
ATOM     24  O   UNL     1      -6.679  12.324  22.160  0.00  0.00    +0.000 OA
ATOM     25  O   UNL     1      -7.771  14.574  21.901  0.00  0.00    +0.000 OA
BRANCH  23  26
ATOM     26  C   UNL     1      -6.810  13.375  19.786  0.00  0.00    +0.000 A 
ATOM     27  C   UNL     1      -6.757  14.480  18.929  0.00  0.00    +0.000 A 
ATOM     28  C   UNL     1      -6.808  14.282  17.551  0.00  0.00    +0.000 A 
ATOM     29  C   UNL     1      -6.901  12.990  17.034  0.00  0.00    +0.000 A 
ATOM     30  C   UNL     1      -6.939  11.889  17.892  0.00  0.00    +0.000 A 
ATOM     31  C   UNL     1      -6.886  12.076  19.275  0.00  0.00    +0.000 A 
ENDBRANCH  23  26
ENDBRANCH  22  23
ENDBRANCH   8  22
TORSDOF 6
ENDMDL
MODEL 7
REMARK VINA RESULT:      -6.9      1.241      1.691
REMARK  Name = 
REMARK  7 active torsions:
REMARK  status: ('A' for Active; 'I' for Inactive)
REMARK    1  A    between atoms: C_1  and  C_2
REMARK    2  A    between atoms: C_5  and  S_6
REMARK    3  A    between atoms: S_6  and  C_7
REMARK    4  A    between atoms: C_13  and  N_14
REMARK    5  A    between atoms: C_17  and  C_18
REMARK    6  A    between atoms: C_18  and  S_19
REMARK    7  A    between atoms: S_19  and  C_22
REMARK                            x       y       z     vdW  Elec       q    Type
REMARK                         _______ _______ _______ _____ _____    ______ ____
ROOT
ATOM      1  C   UNL     1       1.520   9.102  19.565  0.00  0.00    +0.000 A 
ATOM      2  C   UNL     1       1.023   9.546  20.737  0.00  0.00    +0.000 A 
ATOM      3  C   UNL     1       0.812   8.654  21.855  0.00  0.00    +0.000 A 
ATOM      4 CL   UNL     1       0.191   9.297  23.323  0.00  0.00    +0.000 Cl
ATOM      5  C   UNL     1       1.083   7.347  21.723  0.00  0.00    +0.000 A 
ATOM      6  N   UNL     1       1.574   6.857  20.506  0.00  0.00    +0.000 N 
ATOM      7  C   UNL     1       1.906   5.584  20.071  0.00  0.00    +0.000 A 
ATOM      8  C   UNL     1       2.311   5.696  18.753  0.00  0.00    +0.000 A 
ATOM      9  N   UNL     1       2.206   7.011  18.354  0.00  0.00    +0.000 NA
ATOM     10  C   UNL     1       1.799   7.701  19.403  0.00  0.00    +0.000 A 
ENDROOT
BRANCH   7  11
ATOM     11  N   UNL     1       1.783   4.403  20.863  0.00  0.00    +0.000 N 
ATOM     12  O   UNL     1       0.958   3.552  20.521  0.00  0.00    +0.000 OA
ATOM     13  O   UNL     1       2.553   4.302  21.824  0.00  0.00    +0.000 OA
ENDBRANCH   7  11
BRANCH   1  14
ATOM     14  S   UNL     1       1.673  10.183  18.215  0.00  0.00    +0.000 S 
BRANCH  14  19
ATOM     15  C   UNL     1      -4.233  11.597  17.581  0.00  0.00    +0.000 C 
ATOM     16  C   UNL     1      -2.772  11.276  17.699  0.00  0.00    +0.000 A 
ATOM     17  C   UNL     1      -2.265  10.057  17.239  0.00  0.00    +0.000 A 
ATOM     18  C   UNL     1      -0.904   9.759  17.369  0.00  0.00    +0.000 A 
ATOM     19  C   UNL     1      -0.026  10.674  17.959  0.00  0.00    +0.000 A 
ATOM     20  C   UNL     1      -0.533  11.889  18.428  0.00  0.00    +0.000 A 
ATOM     21  C   UNL     1      -1.895  12.191  18.293  0.00  0.00    +0.000 A 
ENDBRANCH  14  19
ENDBRANCH   1  14
BRANCH   8  22
ATOM     22  C   UNL     1       2.748   4.674  17.756  0.00  0.00    +0.000 C 
BRANCH  22  23
ATOM     23  S   UNL     1       4.296   3.898  18.208  0.00  0.00    +0.000 S 
ATOM     24  O   UNL     1       4.304   3.609  19.630  0.00  0.00    +0.000 OA
ATOM     25  O   UNL     1       4.600   2.847  17.252  0.00  0.00    +0.000 OA
BRANCH  23  26
ATOM     26  C   UNL     1       5.483   5.207  17.952  0.00  0.00    +0.000 A 
ATOM     27  C   UNL     1       6.596   5.288  18.796  0.00  0.00    +0.000 A 
ATOM     28  C   UNL     1       7.539   6.293  18.590  0.00  0.00    +0.000 A 
ATOM     29  C   UNL     1       7.377   7.201  17.544  0.00  0.00    +0.000 A 
ATOM     30  C   UNL     1       6.272   7.106  16.695  0.00  0.00    +0.000 A 
ATOM     31  C   UNL     1       5.322   6.102  16.890  0.00  0.00    +0.000 A 
ENDBRANCH  23  26
ENDBRANCH  22  23
ENDBRANCH   8  22
TORSDOF 6
ENDMDL
MODEL 8
REMARK VINA RESULT:      -6.8      1.235      1.412
REMARK  Name = 
REMARK  7 active torsions:
REMARK  status: ('A' for Active; 'I' for Inactive)
REMARK    1  A    between atoms: C_1  and  C_2
REMARK    2  A    between atoms: C_5  and  S_6
REMARK    3  A    between atoms: S_6  and  C_7
REMARK    4  A    between atoms: C_13  and  N_14
REMARK    5  A    between atoms: C_17  and  C_18
REMARK    6  A    between atoms: C_18  and  S_19
REMARK    7  A    between atoms: S_19  and  C_22
REMARK                            x       y       z     vdW  Elec       q    Type
REMARK                         _______ _______ _______ _____ _____    ______ ____
ROOT
ATOM      1  C   UNL     1       1.492   9.126  19.542  0.00  0.00    +0.000 A 
ATOM      2  C   UNL     1       0.991   9.561  20.716  0.00  0.00    +0.000 A 
ATOM      3  C   UNL     1       0.793   8.664  21.833  0.00  0.00    +0.000 A 
ATOM      4 CL   UNL     1       0.167   9.297  23.303  0.00  0.00    +0.000 Cl
ATOM      5  C   UNL     1       1.081   7.362  21.698  0.00  0.00    +0.000 A 
ATOM      6  N   UNL     1       1.577   6.879  20.479  0.00  0.00    +0.000 N 
ATOM      7  C   UNL     1       1.924   5.612  20.042  0.00  0.00    +0.000 A 
ATOM      8  C   UNL     1       2.326   5.731  18.723  0.00  0.00    +0.000 A 
ATOM      9  N   UNL     1       2.203   7.046  18.326  0.00  0.00    +0.000 NA
ATOM     10  C   UNL     1       1.789   7.728  19.377  0.00  0.00    +0.000 A 
ENDROOT
BRANCH   7  11
ATOM     11  N   UNL     1       1.818   4.428  20.832  0.00  0.00    +0.000 N 
ATOM     12  O   UNL     1       2.542   4.318  21.823  0.00  0.00    +0.000 OA
ATOM     13  O   UNL     1       0.967   3.606  20.478  0.00  0.00    +0.000 OA
ENDBRANCH   7  11
BRANCH   1  14
ATOM     14  S   UNL     1       1.629  10.211  18.194  0.00  0.00    +0.000 S 
BRANCH  14  19
ATOM     15  C   UNL     1      -4.285  11.622  17.633  0.00  0.00    +0.000 C 
ATOM     16  C   UNL     1      -2.823  11.300  17.732  0.00  0.00    +0.000 A 
ATOM     17  C   UNL     1      -2.328  10.067  17.298  0.00  0.00    +0.000 A 
ATOM     18  C   UNL     1      -0.965   9.769  17.410  0.00  0.00    +0.000 A 
ATOM     19  C   UNL     1      -0.073  10.698  17.956  0.00  0.00    +0.000 A 
ATOM     20  C   UNL     1      -0.569  11.927  18.400  0.00  0.00    +0.000 A 
ATOM     21  C   UNL     1      -1.933  12.230  18.283  0.00  0.00    +0.000 A 
ENDBRANCH  14  19
ENDBRANCH   1  14
BRANCH   8  22
ATOM     22  C   UNL     1       2.774   4.717  17.724  0.00  0.00    +0.000 C 
BRANCH  22  23
ATOM     23  S   UNL     1       4.300   3.914  18.204  0.00  0.00    +0.000 S 
ATOM     24  O   UNL     1       4.288   3.648  19.631  0.00  0.00    +0.000 OA
ATOM     25  O   UNL     1       4.590   2.841  17.268  0.00  0.00    +0.000 OA
BRANCH  23  26
ATOM     26  C   UNL     1       5.518   5.192  17.939  0.00  0.00    +0.000 A 
ATOM     27  C   UNL     1       5.326   6.108  16.900  0.00  0.00    +0.000 A 
ATOM     28  C   UNL     1       6.261   7.122  16.699  0.00  0.00    +0.000 A 
ATOM     29  C   UNL     1       7.372   7.225  17.535  0.00  0.00    +0.000 A 
ATOM     30  C   UNL     1       7.551   6.316  18.581  0.00  0.00    +0.000 A 
ATOM     31  C   UNL     1       6.620   5.298  18.793  0.00  0.00    +0.000 A 
ENDBRANCH  23  26
ENDBRANCH  22  23
ENDBRANCH   8  22
TORSDOF 6
ENDMDL
MODEL 9
REMARK VINA RESULT:      -6.8      1.497      2.333
REMARK  Name = 
REMARK  7 active torsions:
REMARK  status: ('A' for Active; 'I' for Inactive)
REMARK    1  A    between atoms: C_1  and  C_2
REMARK    2  A    between atoms: C_5  and  S_6
REMARK    3  A    between atoms: S_6  and  C_7
REMARK    4  A    between atoms: C_13  and  N_14
REMARK    5  A    between atoms: C_17  and  C_18
REMARK    6  A    between atoms: C_18  and  S_19
REMARK    7  A    between atoms: S_19  and  C_22
REMARK                            x       y       z     vdW  Elec       q    Type
REMARK                         _______ _______ _______ _____ _____    ______ ____
ROOT
ATOM      1  C   UNL     1       1.767   8.892  19.233  0.00  0.00    +0.000 A 
ATOM      2  C   UNL     1       1.258   9.438  20.356  0.00  0.00    +0.000 A 
ATOM      3  C   UNL     1       0.931   8.629  21.510  0.00  0.00    +0.000 A 
ATOM      4 CL   UNL     1       0.303   9.399  22.912  0.00  0.00    +0.000 Cl
ATOM      5  C   UNL     1       1.105   7.300  21.460  0.00  0.00    +0.000 A 
ATOM      6  N   UNL     1       1.606   6.705  20.294  0.00  0.00    +0.000 N 
ATOM      7  C   UNL     1       1.855   5.389  19.943  0.00  0.00    +0.000 A 
ATOM      8  C   UNL     1       2.322   5.395  18.641  0.00  0.00    +0.000 A 
ATOM      9  N   UNL     1       2.337   6.690  18.168  0.00  0.00    +0.000 NA
ATOM     10  C   UNL     1       1.942   7.466  19.159  0.00  0.00    +0.000 A 
ENDROOT
BRANCH   7  11
ATOM     11  N   UNL     1       1.608   4.267  20.790  0.00  0.00    +0.000 N 
ATOM     12  O   UNL     1       0.693   3.497  20.489  0.00  0.00    +0.000 OA
ATOM     13  O   UNL     1       2.366   4.128  21.755  0.00  0.00    +0.000 OA
ENDBRANCH   7  11
BRANCH   1  14
ATOM     14  S   UNL     1       2.060   9.880  17.837  0.00  0.00    +0.000 S 
BRANCH  14  19
ATOM     15  C   UNL     1      -0.338  15.321  19.227  0.00  0.00    +0.000 C 
ATOM     16  C   UNL     1       0.247  13.971  18.930  0.00  0.00    +0.000 A 
ATOM     17  C   UNL     1       1.628  13.799  18.804  0.00  0.00    +0.000 A 
ATOM     18  C   UNL     1       2.163  12.540  18.510  0.00  0.00    +0.000 A 
ATOM     19  C   UNL     1       1.329  11.431  18.339  0.00  0.00    +0.000 A 
ATOM     20  C   UNL     1      -0.053  11.604  18.456  0.00  0.00    +0.000 A 
ATOM     21  C   UNL     1      -0.591  12.863  18.756  0.00  0.00    +0.000 A 
ENDBRANCH  14  19
ENDBRANCH   1  14
BRANCH   8  22
ATOM     22  C   UNL     1       2.719   4.288  17.721  0.00  0.00    +0.000 C 
BRANCH  22  23
ATOM     23  S   UNL     1       4.285   3.551  18.175  0.00  0.00    +0.000 S 
ATOM     24  O   UNL     1       4.766   4.142  19.410  0.00  0.00    +0.000 OA
ATOM     25  O   UNL     1       4.187   2.107  18.052  0.00  0.00    +0.000 OA
BRANCH  23  26
ATOM     26  C   UNL     1       5.379   4.120  16.884  0.00  0.00    +0.000 A 
ATOM     27  C   UNL     1       6.305   5.127  17.174  0.00  0.00    +0.000 A 
ATOM     28  C   UNL     1       7.178   5.562  16.179  0.00  0.00    +0.000 A 
ATOM     29  C   UNL     1       7.131   4.989  14.908  0.00  0.00    +0.000 A 
ATOM     30  C   UNL     1       6.214   3.974  14.628  0.00  0.00    +0.000 A 
ATOM     31  C   UNL     1       5.337   3.528  15.618  0.00  0.00    +0.000 A 
ENDBRANCH  23  26
ENDBRANCH  22  23
ENDBRANCH   8  22
TORSDOF 6
ENDMDL
