MODEL 1
REMARK VINA RESULT:      -9.7      0.000      0.000
REMARK  Name = 
REMARK  4 active torsions:
REMARK  status: ('A' for Active; 'I' for Inactive)
REMARK    1  A    between atoms: C_2  and  C_3
REMARK    2  A    between atoms: C_2  and  C_15
REMARK    3  A    between atoms: C_4  and  C_5
REMARK    4  A    between atoms: C_24  and  O_25
REMARK                            x       y       z     vdW  Elec       q    Type
REMARK                         _______ _______ _______ _____ _____    ______ ____
ROOT
ATOM      1  O   UNL     1       7.614   6.163  16.104  0.00  0.00    +0.000 OA
ATOM      2  C   UNL     1       7.119   6.638  17.123  0.00  0.00    +0.000 C 
ENDROOT
BRANCH   2   3
ATOM      3  C   UNL     1       5.810   6.136  17.622  0.00  0.00    +0.000 A 
ATOM      4  C   UNL     1       4.695   6.950  17.410  0.00  0.00    +0.000 A 
ATOM      5  C   UNL     1       3.435   6.540  17.841  0.00  0.00    +0.000 A 
ATOM      6  C   UNL     1       3.259   5.314  18.500  0.00  0.00    +0.000 A 
ATOM      7  C   UNL     1       1.976   4.916  18.909  0.00  0.00    +0.000 A 
ATOM      8  C   UNL     1       1.772   3.707  19.571  0.00  0.00    +0.000 A 
ATOM      9  C   UNL     1       2.853   2.879  19.836  0.00  0.00    +0.000 A 
ATOM     10  C   UNL     1       4.137   3.258  19.434  0.00  0.00    +0.000 A 
ATOM     11  C   UNL     1       4.379   4.478  18.753  0.00  0.00    +0.000 A 
ATOM     12  C   UNL     1       5.656   4.918  18.308  0.00  0.00    +0.000 A 
BRANCH  12  13
ATOM     13  O   UNL     1       6.785   4.179  18.552  0.00  0.00    +0.000 OA
ATOM     14  H   UNL     1       7.268   4.519  19.315  0.00  0.00    +0.000 HD
ENDBRANCH  12  13
ENDBRANCH   2   3
BRANCH   2  15
ATOM     15  C   UNL     1       7.838   7.650  17.942  0.00  0.00    +0.000 C 
ATOM     16  C   UNL     1       7.914   8.929  17.550  0.00  0.00    +0.000 C 
BRANCH  16  17
ATOM     17  C   UNL     1       8.608   9.971  18.322  0.00  0.00    +0.000 A 
ATOM     18  C   UNL     1       9.085   9.737  19.616  0.00  0.00    +0.000 A 
ATOM     19  C   UNL     1       9.777  10.730  20.312  0.00  0.00    +0.000 A 
ATOM     20  C   UNL     1      10.027  11.976  19.722  0.00  0.00    +0.000 A 
ATOM     21  C   UNL     1      10.743  12.973  20.404  0.00  0.00    +0.000 A 
ATOM     22  C   UNL     1      10.993  14.208  19.804  0.00  0.00    +0.000 A 
ATOM     23  C   UNL     1      10.523  14.463  18.519  0.00  0.00    +0.000 A 
ATOM     24  C   UNL     1       9.808  13.480  17.829  0.00  0.00    +0.000 A 
ATOM     25  C   UNL     1       9.556  12.227  18.415  0.00  0.00    +0.000 A 
ATOM     26  C   UNL     1       8.854  11.218  17.730  0.00  0.00    +0.000 A 
ENDBRANCH  16  17
ENDBRANCH   2  15
TORSDOF 4
ENDMDL
MODEL 2
REMARK VINA RESULT:      -9.2      0.697      1.506
REMARK  Name = 
REMARK  4 active torsions:
REMARK  status: ('A' for Active; 'I' for Inactive)
REMARK    1  A    between atoms: C_2  and  C_3
REMARK    2  A    between atoms: C_2  and  C_15
REMARK    3  A    between atoms: C_4  and  C_5
REMARK    4  A    between atoms: C_24  and  O_25
REMARK                            x       y       z     vdW  Elec       q    Type
REMARK                         _______ _______ _______ _____ _____    ______ ____
ROOT
ATOM      1  O   UNL     1       7.545   5.804  16.618  0.00  0.00    +0.000 OA
ATOM      2  C   UNL     1       6.746   6.540  17.191  0.00  0.00    +0.000 C 
ENDROOT
BRANCH   2   3
ATOM      3  C   UNL     1       5.482   5.982  17.745  0.00  0.00    +0.000 A 
ATOM      4  C   UNL     1       4.322   6.740  17.569  0.00  0.00    +0.000 A 
ATOM      5  C   UNL     1       3.100   6.276  18.053  0.00  0.00    +0.000 A 
ATOM      6  C   UNL     1       3.009   5.051  18.730  0.00  0.00    +0.000 A 
ATOM      7  C   UNL     1       1.763   4.598  19.193  0.00  0.00    +0.000 A 
ATOM      8  C   UNL     1       1.642   3.388  19.874  0.00  0.00    +0.000 A 
ATOM      9  C   UNL     1       2.771   2.615  20.105  0.00  0.00    +0.000 A 
ATOM     10  C   UNL     1       4.018   3.050  19.649  0.00  0.00    +0.000 A 
ATOM     11  C   UNL     1       4.176   4.272  18.948  0.00  0.00    +0.000 A 
ATOM     12  C   UNL     1       5.413   4.766  18.449  0.00  0.00    +0.000 A 
BRANCH  12  13
ATOM     13  O   UNL     1       6.584   4.084  18.656  0.00  0.00    +0.000 OA
ATOM     14  H   UNL     1       6.978   4.315  19.506  0.00  0.00    +0.000 HD
ENDBRANCH  12  13
ENDBRANCH   2   3
BRANCH   2  15
ATOM     15  C   UNL     1       7.043   7.976  17.436  0.00  0.00    +0.000 C 
ATOM     16  C   UNL     1       8.207   8.357  17.980  0.00  0.00    +0.000 C 
BRANCH  16  17
ATOM     17  C   UNL     1       8.556   9.762  18.241  0.00  0.00    +0.000 A 
ATOM     18  C   UNL     1       8.188  10.789  17.364  0.00  0.00    +0.000 A 
ATOM     19  C   UNL     1       8.496  12.119  17.655  0.00  0.00    +0.000 A 
ATOM     20  C   UNL     1       9.160  12.459  18.841  0.00  0.00    +0.000 A 
ATOM     21  C   UNL     1       9.452  13.796  19.154  0.00  0.00    +0.000 A 
ATOM     22  C   UNL     1      10.108  14.122  20.342  0.00  0.00    +0.000 A 
ATOM     23  C   UNL     1      10.487  13.115  21.225  0.00  0.00    +0.000 A 
ATOM     24  C   UNL     1      10.203  11.780  20.926  0.00  0.00    +0.000 A 
ATOM     25  C   UNL     1       9.535  11.434  19.738  0.00  0.00    +0.000 A 
ATOM     26  C   UNL     1       9.224  10.098  19.427  0.00  0.00    +0.000 A 
ENDBRANCH  16  17
ENDBRANCH   2  15
TORSDOF 4
ENDMDL
MODEL 3
REMARK VINA RESULT:      -9.0      5.422      7.675
REMARK  Name = 
REMARK  4 active torsions:
REMARK  status: ('A' for Active; 'I' for Inactive)
REMARK    1  A    between atoms: C_2  and  C_3
REMARK    2  A    between atoms: C_2  and  C_15
REMARK    3  A    between atoms: C_4  and  C_5
REMARK    4  A    between atoms: C_24  and  O_25
REMARK                            x       y       z     vdW  Elec       q    Type
REMARK                         _______ _______ _______ _____ _____    ______ ____
ROOT
ATOM      1  O   UNL     1       2.573   3.340  20.401  0.00  0.00    +0.000 OA
ATOM      2  C   UNL     1       2.867   4.448  19.959  0.00  0.00    +0.000 C 
ENDROOT
BRANCH   2   3
ATOM      3  C   UNL     1       3.965   4.587  18.964  0.00  0.00    +0.000 A 
ATOM      4  C   UNL     1       5.163   5.149  19.413  0.00  0.00    +0.000 A 
ATOM      5  C   UNL     1       6.238   5.301  18.540  0.00  0.00    +0.000 A 
ATOM      6  C   UNL     1       6.141   4.906  17.198  0.00  0.00    +0.000 A 
ATOM      7  C   UNL     1       7.245   5.055  16.342  0.00  0.00    +0.000 A 
ATOM      8  C   UNL     1       7.177   4.676  15.003  0.00  0.00    +0.000 A 
ATOM      9  C   UNL     1       5.998   4.146  14.499  0.00  0.00    +0.000 A 
ATOM     10  C   UNL     1       4.890   3.989  15.337  0.00  0.00    +0.000 A 
ATOM     11  C   UNL     1       4.927   4.357  16.706  0.00  0.00    +0.000 A 
ATOM     12  C   UNL     1       3.842   4.214  17.613  0.00  0.00    +0.000 A 
BRANCH  12  13
ATOM     13  O   UNL     1       2.629   3.726  17.197  0.00  0.00    +0.000 OA
ATOM     14  H   UNL     1       2.702   2.807  16.911  0.00  0.00    +0.000 HD
ENDBRANCH  12  13
ENDBRANCH   2   3
BRANCH   2  15
ATOM     15  C   UNL     1       2.090   5.663  20.318  0.00  0.00    +0.000 C 
ATOM     16  C   UNL     1       2.344   6.843  19.736  0.00  0.00    +0.000 C 
BRANCH  16  17
ATOM     17  C   UNL     1       1.604   8.075  20.050  0.00  0.00    +0.000 A 
ATOM     18  C   UNL     1       1.417   9.086  19.100  0.00  0.00    +0.000 A 
ATOM     19  C   UNL     1       0.676  10.228  19.411  0.00  0.00    +0.000 A 
ATOM     20  C   UNL     1       0.087  10.379  20.673  0.00  0.00    +0.000 A 
ATOM     21  C   UNL     1      -0.680  11.512  20.987  0.00  0.00    +0.000 A 
ATOM     22  C   UNL     1      -1.268  11.648  22.246  0.00  0.00    +0.000 A 
ATOM     23  C   UNL     1      -1.089  10.656  23.206  0.00  0.00    +0.000 A 
ATOM     24  C   UNL     1      -0.328   9.524  22.907  0.00  0.00    +0.000 A 
ATOM     25  C   UNL     1       0.264   9.366  21.641  0.00  0.00    +0.000 A 
ATOM     26  C   UNL     1       1.019   8.224  21.315  0.00  0.00    +0.000 A 
ENDBRANCH  16  17
ENDBRANCH   2  15
TORSDOF 4
ENDMDL
MODEL 4
REMARK VINA RESULT:      -8.9      0.975      1.634
REMARK  Name = 
REMARK  4 active torsions:
REMARK  status: ('A' for Active; 'I' for Inactive)
REMARK    1  A    between atoms: C_2  and  C_3
REMARK    2  A    between atoms: C_2  and  C_15
REMARK    3  A    between atoms: C_4  and  C_5
REMARK    4  A    between atoms: C_24  and  O_25
REMARK                            x       y       z     vdW  Elec       q    Type
REMARK                         _______ _______ _______ _____ _____    ______ ____
ROOT
ATOM      1  O   UNL     1       7.775   6.611  16.227  0.00  0.00    +0.000 OA
ATOM      2  C   UNL     1       7.356   6.910  17.343  0.00  0.00    +0.000 C 
ENDROOT
BRANCH   2   3
ATOM      3  C   UNL     1       6.241   6.136  17.954  0.00  0.00    +0.000 A 
ATOM      4  C   UNL     1       6.541   5.378  19.088  0.00  0.00    +0.000 A 
ATOM      5  C   UNL     1       5.545   4.636  19.720  0.00  0.00    +0.000 A 
ATOM      6  C   UNL     1       4.231   4.624  19.230  0.00  0.00    +0.000 A 
ATOM      7  C   UNL     1       3.242   3.881  19.894  0.00  0.00    +0.000 A 
ATOM      8  C   UNL     1       1.929   3.847  19.428  0.00  0.00    +0.000 A 
ATOM      9  C   UNL     1       1.589   4.555  18.284  0.00  0.00    +0.000 A 
ATOM     10  C   UNL     1       2.560   5.301  17.612  0.00  0.00    +0.000 A 
ATOM     11  C   UNL     1       3.903   5.364  18.062  0.00  0.00    +0.000 A 
ATOM     12  C   UNL     1       4.935   6.111  17.432  0.00  0.00    +0.000 A 
BRANCH  12  13
ATOM     13  O   UNL     1       4.698   6.818  16.281  0.00  0.00    +0.000 OA
ATOM     14  H   UNL     1       3.811   7.200  16.283  0.00  0.00    +0.000 HD
ENDBRANCH  12  13
ENDBRANCH   2   3
BRANCH   2  15
ATOM     15  C   UNL     1       7.996   7.977  18.157  0.00  0.00    +0.000 C 
ATOM     16  C   UNL     1       8.187   9.206  17.658  0.00  0.00    +0.000 C 
BRANCH  16  17
ATOM     17  C   UNL     1       8.810  10.299  18.419  0.00  0.00    +0.000 A 
ATOM     18  C   UNL     1       9.370  10.092  19.685  0.00  0.00    +0.000 A 
ATOM     19  C   UNL     1       9.993  11.138  20.369  0.00  0.00    +0.000 A 
ATOM     20  C   UNL     1      10.089  12.413  19.796  0.00  0.00    +0.000 A 
ATOM     21  C   UNL     1      10.734  13.465  20.465  0.00  0.00    +0.000 A 
ATOM     22  C   UNL     1      10.830  14.729  19.881  0.00  0.00    +0.000 A 
ATOM     23  C   UNL     1      10.274  14.957  18.626  0.00  0.00    +0.000 A 
ATOM     24  C   UNL     1       9.629  13.919  17.949  0.00  0.00    +0.000 A 
ATOM     25  C   UNL     1       9.531  12.638  18.518  0.00  0.00    +0.000 A 
ATOM     26  C   UNL     1       8.901  11.575  17.845  0.00  0.00    +0.000 A 
ENDBRANCH  16  17
ENDBRANCH   2  15
TORSDOF 4
ENDMDL
MODEL 5
REMARK VINA RESULT:      -8.8      1.014      1.594
REMARK  Name = 
REMARK  4 active torsions:
REMARK  status: ('A' for Active; 'I' for Inactive)
REMARK    1  A    between atoms: C_2  and  C_3
REMARK    2  A    between atoms: C_2  and  C_15
REMARK    3  A    between atoms: C_4  and  C_5
REMARK    4  A    between atoms: C_24  and  O_25
REMARK                            x       y       z     vdW  Elec       q    Type
REMARK                         _______ _______ _______ _____ _____    ______ ____
ROOT
ATOM      1  O   UNL     1       8.331   5.771  18.228  0.00  0.00    +0.000 OA
ATOM      2  C   UNL     1       7.457   6.586  17.940  0.00  0.00    +0.000 C 
ENDROOT
BRANCH   2   3
ATOM      3  C   UNL     1       6.029   6.169  17.907  0.00  0.00    +0.000 A 
ATOM      4  C   UNL     1       5.082   7.164  17.650  0.00  0.00    +0.000 A 
ATOM      5  C   UNL     1       3.727   6.844  17.594  0.00  0.00    +0.000 A 
ATOM      6  C   UNL     1       3.284   5.530  17.803  0.00  0.00    +0.000 A 
ATOM      7  C   UNL     1       1.914   5.232  17.725  0.00  0.00    +0.000 A 
ATOM      8  C   UNL     1       1.444   3.937  17.933  0.00  0.00    +0.000 A 
ATOM      9  C   UNL     1       2.342   2.920  18.227  0.00  0.00    +0.000 A 
ATOM     10  C   UNL     1       3.709   3.199  18.307  0.00  0.00    +0.000 A 
ATOM     11  C   UNL     1       4.222   4.504  18.094  0.00  0.00    +0.000 A 
ATOM     12  C   UNL     1       5.599   4.852  18.150  0.00  0.00    +0.000 A 
BRANCH  12  13
ATOM     13  O   UNL     1       6.554   3.919  18.462  0.00  0.00    +0.000 OA
ATOM     14  H   UNL     1       7.353   4.338  18.805  0.00  0.00    +0.000 HD
ENDBRANCH  12  13
ENDBRANCH   2   3
BRANCH   2  15
ATOM     15  C   UNL     1       7.773   8.021  17.712  0.00  0.00    +0.000 C 
ATOM     16  C   UNL     1       8.530   8.709  18.577  0.00  0.00    +0.000 C 
BRANCH  16  17
ATOM     17  C   UNL     1       8.876  10.127  18.398  0.00  0.00    +0.000 A 
ATOM     18  C   UNL     1       8.079  10.991  17.639  0.00  0.00    +0.000 A 
ATOM     19  C   UNL     1       8.408  12.343  17.519  0.00  0.00    +0.000 A 
ATOM     20  C   UNL     1       9.530  12.869  18.172  0.00  0.00    +0.000 A 
ATOM     21  C   UNL     1       9.856  14.232  18.078  0.00  0.00    +0.000 A 
ATOM     22  C   UNL     1      10.972  14.746  18.739  0.00  0.00    +0.000 A 
ATOM     23  C   UNL     1      11.780  13.901  19.495  0.00  0.00    +0.000 A 
ATOM     24  C   UNL     1      11.469  12.543  19.597  0.00  0.00    +0.000 A 
ATOM     25  C   UNL     1      10.343  12.010  18.945  0.00  0.00    +0.000 A 
ATOM     26  C   UNL     1      10.002  10.649  19.051  0.00  0.00    +0.000 A 
ENDBRANCH  16  17
ENDBRANCH   2  15
TORSDOF 4
ENDMDL
MODEL 6
REMARK VINA RESULT:      -8.8      5.394      7.601
REMARK  Name = 
REMARK  4 active torsions:
REMARK  status: ('A' for Active; 'I' for Inactive)
REMARK    1  A    between atoms: C_2  and  C_3
REMARK    2  A    between atoms: C_2  and  C_15
REMARK    3  A    between atoms: C_4  and  C_5
REMARK    4  A    between atoms: C_24  and  O_25
REMARK                            x       y       z     vdW  Elec       q    Type
REMARK                         _______ _______ _______ _____ _____    ______ ____
ROOT
ATOM      1  O   UNL     1       2.720   3.447  20.947  0.00  0.00    +0.000 OA
ATOM      2  C   UNL     1       2.768   4.425  20.205  0.00  0.00    +0.000 C 
ENDROOT
BRANCH   2   3
ATOM      3  C   UNL     1       3.503   4.345  18.913  0.00  0.00    +0.000 A 
ATOM      4  C   UNL     1       2.822   3.788  17.828  0.00  0.00    +0.000 A 
ATOM      5  C   UNL     1       3.443   3.690  16.585  0.00  0.00    +0.000 A 
ATOM      6  C   UNL     1       4.760   4.135  16.397  0.00  0.00    +0.000 A 
ATOM      7  C   UNL     1       5.358   4.040  15.130  0.00  0.00    +0.000 A 
ATOM      8  C   UNL     1       6.666   4.469  14.914  0.00  0.00    +0.000 A 
ATOM      9  C   UNL     1       7.397   4.997  15.969  0.00  0.00    +0.000 A 
ATOM     10  C   UNL     1       6.817   5.101  17.236  0.00  0.00    +0.000 A 
ATOM     11  C   UNL     1       5.487   4.681  17.489  0.00  0.00    +0.000 A 
ATOM     12  C   UNL     1       4.835   4.768  18.749  0.00  0.00    +0.000 A 
BRANCH  12  13
ATOM     13  O   UNL     1       5.489   5.249  19.854  0.00  0.00    +0.000 OA
ATOM     14  H   UNL     1       6.225   4.676  20.101  0.00  0.00    +0.000 HD
ENDBRANCH  12  13
ENDBRANCH   2   3
BRANCH   2  15
ATOM     15  C   UNL     1       2.028   5.677  20.513  0.00  0.00    +0.000 C 
ATOM     16  C   UNL     1       2.284   6.812  19.849  0.00  0.00    +0.000 C 
BRANCH  16  17
ATOM     17  C   UNL     1       1.580   8.077  20.109  0.00  0.00    +0.000 A 
ATOM     18  C   UNL     1       1.458   9.069  19.130  0.00  0.00    +0.000 A 
ATOM     19  C   UNL     1       0.750  10.244  19.389  0.00  0.00    +0.000 A 
ATOM     20  C   UNL     1       0.128  10.448  20.628  0.00  0.00    +0.000 A 
ATOM     21  C   UNL     1      -0.607  11.615  20.890  0.00  0.00    +0.000 A 
ATOM     22  C   UNL     1      -1.228  11.804  22.126  0.00  0.00    +0.000 A 
ATOM     23  C   UNL     1      -1.114  10.831  23.115  0.00  0.00    +0.000 A 
ATOM     24  C   UNL     1      -0.385   9.666  22.868  0.00  0.00    +0.000 A 
ATOM     25  C   UNL     1       0.239   9.455  21.626  0.00  0.00    +0.000 A 
ATOM     26  C   UNL     1       0.963   8.280  21.351  0.00  0.00    +0.000 A 
ENDBRANCH  16  17
ENDBRANCH   2  15
TORSDOF 4
ENDMDL
MODEL 7
REMARK VINA RESULT:      -8.8      6.025      9.827
REMARK  Name = 
REMARK  4 active torsions:
REMARK  status: ('A' for Active; 'I' for Inactive)
REMARK    1  A    between atoms: C_2  and  C_3
REMARK    2  A    between atoms: C_2  and  C_15
REMARK    3  A    between atoms: C_4  and  C_5
REMARK    4  A    between atoms: C_24  and  O_25
REMARK                            x       y       z     vdW  Elec       q    Type
REMARK                         _______ _______ _______ _____ _____    ______ ____
ROOT
ATOM      1  O   UNL     1       1.938  11.147  18.264  0.00  0.00    +0.000 OA
ATOM      2  C   UNL     1       1.060  10.288  18.302  0.00  0.00    +0.000 C 
ENDROOT
BRANCH   2   3
ATOM      3  C   UNL     1      -0.370  10.687  18.411  0.00  0.00    +0.000 A 
ATOM      4  C   UNL     1      -1.257  10.132  17.484  0.00  0.00    +0.000 A 
ATOM      5  C   UNL     1      -2.612  10.451  17.532  0.00  0.00    +0.000 A 
ATOM      6  C   UNL     1      -3.113  11.338  18.496  0.00  0.00    +0.000 A 
ATOM      7  C   UNL     1      -4.486  11.632  18.533  0.00  0.00    +0.000 A 
ATOM      8  C   UNL     1      -5.011  12.513  19.475  0.00  0.00    +0.000 A 
ATOM      9  C   UNL     1      -4.166  13.118  20.395  0.00  0.00    +0.000 A 
ATOM     10  C   UNL     1      -2.797  12.836  20.374  0.00  0.00    +0.000 A 
ATOM     11  C   UNL     1      -2.231  11.940  19.433  0.00  0.00    +0.000 A 
ATOM     12  C   UNL     1      -0.851  11.602  19.364  0.00  0.00    +0.000 A 
BRANCH  12  13
ATOM     13  O   UNL     1       0.062  12.173  20.213  0.00  0.00    +0.000 OA
ATOM     14  H   UNL     1       0.109  11.694  21.050  0.00  0.00    +0.000 HD
ENDBRANCH  12  13
ENDBRANCH   2   3
BRANCH   2  15
ATOM     15  C   UNL     1       1.373   8.844  18.145  0.00  0.00    +0.000 C 
ATOM     16  C   UNL     1       2.632   8.426  17.956  0.00  0.00    +0.000 C 
BRANCH  16  17
ATOM     17  C   UNL     1       3.000   7.011  17.800  0.00  0.00    +0.000 A 
ATOM     18  C   UNL     1       4.264   6.623  17.339  0.00  0.00    +0.000 A 
ATOM     19  C   UNL     1       4.602   5.272  17.239  0.00  0.00    +0.000 A 
ATOM     20  C   UNL     1       3.693   4.275  17.616  0.00  0.00    +0.000 A 
ATOM     21  C   UNL     1       4.032   2.915  17.541  0.00  0.00    +0.000 A 
ATOM     22  C   UNL     1       3.121   1.930  17.927  0.00  0.00    +0.000 A 
ATOM     23  C   UNL     1       1.857   2.296  18.382  0.00  0.00    +0.000 A 
ATOM     24  C   UNL     1       1.506   3.645  18.460  0.00  0.00    +0.000 A 
ATOM     25  C   UNL     1       2.415   4.650  18.085  0.00  0.00    +0.000 A 
ATOM     26  C   UNL     1       2.087   6.016  18.174  0.00  0.00    +0.000 A 
ENDBRANCH  16  17
ENDBRANCH   2  15
TORSDOF 4
ENDMDL
MODEL 8
REMARK VINA RESULT:      -8.7      5.224      7.396
REMARK  Name = 
REMARK  4 active torsions:
REMARK  status: ('A' for Active; 'I' for Inactive)
REMARK    1  A    between atoms: C_2  and  C_3
REMARK    2  A    between atoms: C_2  and  C_15
REMARK    3  A    between atoms: C_4  and  C_5
REMARK    4  A    between atoms: C_24  and  O_25
REMARK                            x       y       z     vdW  Elec       q    Type
REMARK                         _______ _______ _______ _____ _____    ______ ____
ROOT
ATOM      1  O   UNL     1       4.936   3.571  19.521  0.00  0.00    +0.000 OA
ATOM      2  C   UNL     1       4.816   4.588  18.842  0.00  0.00    +0.000 C 
ENDROOT
BRANCH   2   3
ATOM      3  C   UNL     1       5.471   4.676  17.508  0.00  0.00    +0.000 A 
ATOM      4  C   UNL     1       6.646   5.429  17.426  0.00  0.00    +0.000 A 
ATOM      5  C   UNL     1       7.320   5.546  16.212  0.00  0.00    +0.000 A 
ATOM      6  C   UNL     1       6.834   4.927  15.052  0.00  0.00    +0.000 A 
ATOM      7  C   UNL     1       7.541   5.048  13.844  0.00  0.00    +0.000 A 
ATOM      8  C   UNL     1       7.080   4.448  12.674  0.00  0.00    +0.000 A 
ATOM      9  C   UNL     1       5.899   3.719  12.696  0.00  0.00    +0.000 A 
ATOM     10  C   UNL     1       5.184   3.586  13.890  0.00  0.00    +0.000 A 
ATOM     11  C   UNL     1       5.628   4.178  15.099  0.00  0.00    +0.000 A 
ATOM     12  C   UNL     1       4.954   4.074  16.348  0.00  0.00    +0.000 A 
BRANCH  12  13
ATOM     13  O   UNL     1       3.766   3.398  16.458  0.00  0.00    +0.000 OA
ATOM     14  H   UNL     1       3.458   3.380  17.372  0.00  0.00    +0.000 HD
ENDBRANCH  12  13
ENDBRANCH   2   3
BRANCH   2  15
ATOM     15  C   UNL     1       3.948   5.717  19.271  0.00  0.00    +0.000 C 
ATOM     16  C   UNL     1       3.323   6.488  18.372  0.00  0.00    +0.000 C 
BRANCH  16  17
ATOM     17  C   UNL     1       2.450   7.614  18.740  0.00  0.00    +0.000 A 
ATOM     18  C   UNL     1       2.031   8.561  17.798  0.00  0.00    +0.000 A 
ATOM     19  C   UNL     1       1.170   9.597  18.165  0.00  0.00    +0.000 A 
ATOM     20  C   UNL     1       0.690   9.701  19.477  0.00  0.00    +0.000 A 
ATOM     21  C   UNL     1      -0.196  10.724  19.849  0.00  0.00    +0.000 A 
ATOM     22  C   UNL     1      -0.673  10.813  21.158  0.00  0.00    +0.000 A 
ATOM     23  C   UNL     1      -0.264   9.884  22.110  0.00  0.00    +0.000 A 
ATOM     24  C   UNL     1       0.618   8.860  21.753  0.00  0.00    +0.000 A 
ATOM     25  C   UNL     1       1.101   8.751  20.438  0.00  0.00    +0.000 A 
ATOM     26  C   UNL     1       1.975   7.716  20.054  0.00  0.00    +0.000 A 
ENDBRANCH  16  17
ENDBRANCH   2  15
TORSDOF 4
ENDMDL
MODEL 9
REMARK VINA RESULT:      -8.7      1.177      1.849
REMARK  Name = 
REMARK  4 active torsions:
REMARK  status: ('A' for Active; 'I' for Inactive)
REMARK    1  A    between atoms: C_2  and  C_3
REMARK    2  A    between atoms: C_2  and  C_15
REMARK    3  A    between atoms: C_4  and  C_5
REMARK    4  A    between atoms: C_24  and  O_25
REMARK                            x       y       z     vdW  Elec       q    Type
REMARK                         _______ _______ _______ _____ _____    ______ ____
ROOT
ATOM      1  O   UNL     1       7.835   4.955  17.241  0.00  0.00    +0.000 OA
ATOM      2  C   UNL     1       6.966   5.772  17.538  0.00  0.00    +0.000 C 
ENDROOT
BRANCH   2   3
ATOM      3  C   UNL     1       5.636   5.306  18.016  0.00  0.00    +0.000 A 
ATOM      4  C   UNL     1       5.001   6.085  18.987  0.00  0.00    +0.000 A 
ATOM      5  C   UNL     1       3.749   5.716  19.474  0.00  0.00    +0.000 A 
ATOM      6  C   UNL     1       3.105   4.559  19.012  0.00  0.00    +0.000 A 
ATOM      7  C   UNL     1       1.836   4.218  19.507  0.00  0.00    +0.000 A 
ATOM      8  C   UNL     1       1.174   3.072  19.070  0.00  0.00    +0.000 A 
ATOM      9  C   UNL     1       1.778   2.246  18.132  0.00  0.00    +0.000 A 
ATOM     10  C   UNL     1       3.040   2.571  17.628  0.00  0.00    +0.000 A 
ATOM     11  C   UNL     1       3.738   3.733  18.045  0.00  0.00    +0.000 A 
ATOM     12  C   UNL     1       5.017   4.126  17.564  0.00  0.00    +0.000 A 
BRANCH  12  13
ATOM     13  O   UNL     1       5.702   3.357  16.658  0.00  0.00    +0.000 OA
ATOM     14  H   UNL     1       5.222   3.292  15.823  0.00  0.00    +0.000 HD
ENDBRANCH  12  13
ENDBRANCH   2   3
BRANCH   2  15
ATOM     15  C   UNL     1       7.233   7.234  17.526  0.00  0.00    +0.000 C 
ATOM     16  C   UNL     1       8.180   7.771  18.306  0.00  0.00    +0.000 C 
BRANCH  16  17
ATOM     17  C   UNL     1       8.489   9.209  18.332  0.00  0.00    +0.000 A 
ATOM     18  C   UNL     1       7.896  10.107  17.437  0.00  0.00    +0.000 A 
ATOM     19  C   UNL     1       8.174  11.473  17.509  0.00  0.00    +0.000 A 
ATOM     20  C   UNL     1       9.038  11.978  18.489  0.00  0.00    +0.000 A 
ATOM     21  C   UNL     1       9.305  13.353  18.585  0.00  0.00    +0.000 A 
ATOM     22  C   UNL     1      10.162  13.846  19.571  0.00  0.00    +0.000 A 
ATOM     23  C   UNL     1      10.766  12.968  20.467  0.00  0.00    +0.000 A 
ATOM     24  C   UNL     1      10.509  11.598  20.382  0.00  0.00    +0.000 A 
ATOM     25  C   UNL     1       9.642  11.085  19.401  0.00  0.00    +0.000 A 
ATOM     26  C   UNL     1       9.356   9.710  19.312  0.00  0.00    +0.000 A 
ENDBRANCH  16  17
ENDBRANCH   2  15
TORSDOF 4
ENDMDL
