MODEL 1
REMARK VINA RESULT:      -6.4      0.000      0.000
REMARK  Name = 
REMARK  16 active torsions:
REMARK  status: ('A' for Active; 'I' for Inactive)
REMARK    1  A    between atoms: C_1  and  C_2
REMARK    2  A    between atoms: C_2  and  C_3
REMARK    3  A    between atoms: C_3  and  C_4
REMARK    4  A    between atoms: C_4  and  C_5
REMARK    5  A    between atoms: C_5  and  C_6
REMARK    6  A    between atoms: C_6  and  C_7
REMARK    7  A    between atoms: C_7  and  C_8
REMARK    8  A    between atoms: C_8  and  C_9
REMARK    9  A    between atoms: C_9  and  C_10
REMARK   10  A    between atoms: C_10  and  C_11
REMARK   11  A    between atoms: C_11  and  C_12
REMARK   12  A    between atoms: C_12  and  C_13
REMARK   13  A    between atoms: C_13  and  C_14
REMARK   14  A    between atoms: C_14  and  C_15
REMARK   15  A    between atoms: C_15  and  C_16
REMARK   16  A    between atoms: N_18  and  C_19
REMARK                            x       y       z     vdW  Elec       q    Type
REMARK                         _______ _______ _______ _____ _____    ______ ____
ROOT
ATOM      1  C   UNL     1       2.607   7.963  17.762  0.00  0.00    +0.000 C 
ENDROOT
BRANCH   1   2
ATOM      2  C   UNL     1       1.897   9.246  18.137  0.00  0.00    +0.000 C 
ATOM      3  O   UNL     1       2.201  10.321  17.627  0.00  0.00    +0.000 OA
ATOM      4  N   UNL     1       0.917   9.080  19.102  0.00  0.00    +0.000 N 
ATOM      5  H   UNL     1       0.914   8.203  19.614  0.00  0.00    +0.000 HD
BRANCH   4   6
ATOM      6  C   UNL     1       0.094  10.134  19.608  0.00  0.00    +0.000 A 
ATOM      7  C   UNL     1      -0.684  10.927  18.763  0.00  0.00    +0.000 A 
ATOM      8  C   UNL     1      -1.422  11.999  19.268  0.00  0.00    +0.000 A 
ATOM      9  C   UNL     1      -1.400  12.311  20.612  0.00  0.00    +0.000 A 
ATOM     10  N   UNL     1      -2.099  13.394  21.008  0.00  0.00    +0.000 NA
ATOM     11  C   UNL     1      -2.040  13.709  22.317  0.00  0.00    +0.000 A 
ATOM     12  C   UNL     1      -1.319  12.954  23.213  0.00  0.00    +0.000 A 
ATOM     13  N   UNL     1      -0.637  11.851  22.841  0.00  0.00    +0.000 NA
ATOM     14  C   UNL     1      -0.651  11.511  21.515  0.00  0.00    +0.000 A 
ATOM     15  C   UNL     1       0.055  10.408  20.986  0.00  0.00    +0.000 A 
ATOM     16 BR   UNL     1       1.029   9.275  22.187  0.00  0.00    +0.000 Br
ENDBRANCH   4   6
ENDBRANCH   1   2
BRANCH   1  17
ATOM     17  C   UNL     1       2.895   7.177  19.038  0.00  0.00    +0.000 C 
BRANCH  17  18
ATOM     18  C   UNL     1       2.165   5.849  19.100  0.00  0.00    +0.000 C 
BRANCH  18  19
ATOM     19  C   UNL     1       1.776   5.560  20.547  0.00  0.00    +0.000 C 
BRANCH  19  20
ATOM     20  C   UNL     1       1.201   4.161  20.682  0.00  0.00    +0.000 C 
BRANCH  20  21
ATOM     21  C   UNL     1       2.243   3.208  21.254  0.00  0.00    +0.000 C 
BRANCH  21  22
ATOM     22  C   UNL     1       2.778   2.298  20.158  0.00  0.00    +0.000 C 
BRANCH  22  23
ATOM     23  C   UNL     1       1.741   2.114  19.059  0.00  0.00    +0.000 C 
BRANCH  23  24
ATOM     24  C   UNL     1       2.394   2.242  17.690  0.00  0.00    +0.000 C 
BRANCH  24  25
ATOM     25  C   UNL     1       3.872   2.585  17.831  0.00  0.00    +0.000 C 
BRANCH  25  26
ATOM     26  C   UNL     1       4.209   3.840  17.036  0.00  0.00    +0.000 C 
BRANCH  26  27
ATOM     27  C   UNL     1       5.294   4.649  17.738  0.00  0.00    +0.000 C 
BRANCH  27  28
ATOM     28  C   UNL     1       6.632   4.493  17.023  0.00  0.00    +0.000 C 
BRANCH  28  30
ATOM     29  C   UNL     1       6.923   6.952  17.430  0.00  0.00    +0.000 C 
ATOM     30  C   UNL     1       7.097   5.820  16.433  0.00  0.00    +0.000 C 
ENDBRANCH  28  30
ENDBRANCH  27  28
ENDBRANCH  26  27
ENDBRANCH  25  26
ENDBRANCH  24  25
ENDBRANCH  23  24
ENDBRANCH  22  23
ENDBRANCH  21  22
ENDBRANCH  20  21
ENDBRANCH  19  20
ENDBRANCH  18  19
ENDBRANCH  17  18
ENDBRANCH   1  17
TORSDOF 15
ENDMDL
MODEL 2
REMARK VINA RESULT:      -6.3      1.253      1.781
REMARK  Name = 
REMARK  16 active torsions:
REMARK  status: ('A' for Active; 'I' for Inactive)
REMARK    1  A    between atoms: C_1  and  C_2
REMARK    2  A    between atoms: C_2  and  C_3
REMARK    3  A    between atoms: C_3  and  C_4
REMARK    4  A    between atoms: C_4  and  C_5
REMARK    5  A    between atoms: C_5  and  C_6
REMARK    6  A    between atoms: C_6  and  C_7
REMARK    7  A    between atoms: C_7  and  C_8
REMARK    8  A    between atoms: C_8  and  C_9
REMARK    9  A    between atoms: C_9  and  C_10
REMARK   10  A    between atoms: C_10  and  C_11
REMARK   11  A    between atoms: C_11  and  C_12
REMARK   12  A    between atoms: C_12  and  C_13
REMARK   13  A    between atoms: C_13  and  C_14
REMARK   14  A    between atoms: C_14  and  C_15
REMARK   15  A    between atoms: C_15  and  C_16
REMARK   16  A    between atoms: N_18  and  C_19
REMARK                            x       y       z     vdW  Elec       q    Type
REMARK                         _______ _______ _______ _____ _____    ______ ____
ROOT
ATOM      1  C   UNL     1       2.388   7.032  18.504  0.00  0.00    +0.000 C 
ENDROOT
BRANCH   1   2
ATOM      2  C   UNL     1       1.881   8.458  18.489  0.00  0.00    +0.000 C 
ATOM      3  O   UNL     1       1.823   9.108  17.448  0.00  0.00    +0.000 OA
ATOM      4  N   UNL     1       1.524   8.937  19.738  0.00  0.00    +0.000 N 
ATOM      5  H   UNL     1       1.830   8.402  20.545  0.00  0.00    +0.000 HD
BRANCH   4   6
ATOM      6  C   UNL     1       0.997  10.244  19.983  0.00  0.00    +0.000 A 
ATOM      7  C   UNL     1       1.069  11.255  19.023  0.00  0.00    +0.000 A 
ATOM      8  C   UNL     1       0.617  12.544  19.309  0.00  0.00    +0.000 A 
ATOM      9  C   UNL     1       0.096  12.861  20.546  0.00  0.00    +0.000 A 
ATOM     10  N   UNL     1      -0.268  14.142  20.757  0.00  0.00    +0.000 NA
ATOM     11  C   UNL     1      -0.742  14.446  21.981  0.00  0.00    +0.000 A 
ATOM     12  C   UNL     1      -0.869  13.494  22.966  0.00  0.00    +0.000 A 
ATOM     13  N   UNL     1      -0.537  12.201  22.766  0.00  0.00    +0.000 NA
ATOM     14  C   UNL     1      -0.029  11.857  21.543  0.00  0.00    +0.000 A 
ATOM     15  C   UNL     1       0.398  10.550  21.216  0.00  0.00    +0.000 A 
ATOM     16 BR   UNL     1       0.191   9.161  22.520  0.00  0.00    +0.000 Br
ENDBRANCH   4   6
ENDBRANCH   1   2
BRANCH   1  17
ATOM     17  C   UNL     1       2.435   6.550  19.952  0.00  0.00    +0.000 C 
BRANCH  17  18
ATOM     18  C   UNL     1       1.404   5.480  20.259  0.00  0.00    +0.000 C 
BRANCH  18  19
ATOM     19  C   UNL     1       2.121   4.179  20.605  0.00  0.00    +0.000 C 
BRANCH  19  20
ATOM     20  C   UNL     1       1.322   2.978  20.132  0.00  0.00    +0.000 C 
BRANCH  20  21
ATOM     21  C   UNL     1       1.190   2.988  18.614  0.00  0.00    +0.000 C 
BRANCH  21  22
ATOM     22  C   UNL     1       2.466   2.463  17.975  0.00  0.00    +0.000 C 
BRANCH  22  23
ATOM     23  C   UNL     1       3.149   3.554  17.162  0.00  0.00    +0.000 C 
BRANCH  23  24
ATOM     24  C   UNL     1       4.601   3.705  17.596  0.00  0.00    +0.000 C 
BRANCH  24  25
ATOM     25  C   UNL     1       5.429   4.342  16.487  0.00  0.00    +0.000 C 
BRANCH  25  26
ATOM     26  C   UNL     1       4.913   5.740  16.170  0.00  0.00    +0.000 C 
BRANCH  26  27
ATOM     27  C   UNL     1       5.758   6.799  16.870  0.00  0.00    +0.000 C 
BRANCH  27  28
ATOM     28  C   UNL     1       7.201   6.327  17.018  0.00  0.00    +0.000 C 
BRANCH  28  30
ATOM     29  C   UNL     1       7.777   5.684  19.375  0.00  0.00    +0.000 C 
ATOM     30  C   UNL     1       7.799   6.796  18.341  0.00  0.00    +0.000 C 
ENDBRANCH  28  30
ENDBRANCH  27  28
ENDBRANCH  26  27
ENDBRANCH  25  26
ENDBRANCH  24  25
ENDBRANCH  23  24
ENDBRANCH  22  23
ENDBRANCH  21  22
ENDBRANCH  20  21
ENDBRANCH  19  20
ENDBRANCH  18  19
ENDBRANCH  17  18
ENDBRANCH   1  17
TORSDOF 15
ENDMDL
MODEL 3
REMARK VINA RESULT:      -6.2      1.284      2.296
REMARK  Name = 
REMARK  16 active torsions:
REMARK  status: ('A' for Active; 'I' for Inactive)
REMARK    1  A    between atoms: C_1  and  C_2
REMARK    2  A    between atoms: C_2  and  C_3
REMARK    3  A    between atoms: C_3  and  C_4
REMARK    4  A    between atoms: C_4  and  C_5
REMARK    5  A    between atoms: C_5  and  C_6
REMARK    6  A    between atoms: C_6  and  C_7
REMARK    7  A    between atoms: C_7  and  C_8
REMARK    8  A    between atoms: C_8  and  C_9
REMARK    9  A    between atoms: C_9  and  C_10
REMARK   10  A    between atoms: C_10  and  C_11
REMARK   11  A    between atoms: C_11  and  C_12
REMARK   12  A    between atoms: C_12  and  C_13
REMARK   13  A    between atoms: C_13  and  C_14
REMARK   14  A    between atoms: C_14  and  C_15
REMARK   15  A    between atoms: C_15  and  C_16
REMARK   16  A    between atoms: N_18  and  C_19
REMARK                            x       y       z     vdW  Elec       q    Type
REMARK                         _______ _______ _______ _____ _____    ______ ____
ROOT
ATOM      1  C   UNL     1       2.803   6.059  20.188  0.00  0.00    +0.000 C 
ENDROOT
BRANCH   1   2
ATOM      2  C   UNL     1       2.177   7.289  19.567  0.00  0.00    +0.000 C 
ATOM      3  O   UNL     1       2.235   7.498  18.358  0.00  0.00    +0.000 OA
ATOM      4  N   UNL     1       1.575   8.133  20.485  0.00  0.00    +0.000 N 
ATOM      5  H   UNL     1       1.790   7.981  21.466  0.00  0.00    +0.000 HD
BRANCH   4   6
ATOM      6  C   UNL     1       0.898   9.346  20.146  0.00  0.00    +0.000 A 
ATOM      7  C   UNL     1       0.898   9.847  18.843  0.00  0.00    +0.000 A 
ATOM      8  C   UNL     1       0.296  11.070  18.547  0.00  0.00    +0.000 A 
ATOM      9  C   UNL     1      -0.309  11.825  19.531  0.00  0.00    +0.000 A 
ATOM     10  N   UNL     1      -0.820  13.020  19.171  0.00  0.00    +0.000 NA
ATOM     11  C   UNL     1      -1.375  13.763  20.148  0.00  0.00    +0.000 A 
ATOM     12  C   UNL     1      -1.438  13.320  21.448  0.00  0.00    +0.000 A 
ATOM     13  N   UNL     1      -0.958  12.115  21.824  0.00  0.00    +0.000 NA
ATOM     14  C   UNL     1      -0.364  11.340  20.865  0.00  0.00    +0.000 A 
ATOM     15  C   UNL     1       0.217  10.081  21.131  0.00  0.00    +0.000 A 
ATOM     16 BR   UNL     1       0.109   9.374  22.910  0.00  0.00    +0.000 Br
ENDBRANCH   4   6
ENDBRANCH   1   2
BRANCH   1  17
ATOM     17  C   UNL     1       1.685   5.134  20.664  0.00  0.00    +0.000 C 
BRANCH  17  18
ATOM     18  C   UNL     1       2.184   3.983  21.517  0.00  0.00    +0.000 C 
BRANCH  18  19
ATOM     19  C   UNL     1       1.631   2.674  20.963  0.00  0.00    +0.000 C 
BRANCH  19  20
ATOM     20  C   UNL     1       0.965   2.895  19.616  0.00  0.00    +0.000 C 
BRANCH  20  21
ATOM     21  C   UNL     1       1.528   1.933  18.578  0.00  0.00    +0.000 C 
BRANCH  21  22
ATOM     22  C   UNL     1       2.245   2.706  17.482  0.00  0.00    +0.000 C 
BRANCH  22  23
ATOM     23  C   UNL     1       3.653   3.083  17.922  0.00  0.00    +0.000 C 
BRANCH  23  24
ATOM     24  C   UNL     1       4.065   4.407  17.294  0.00  0.00    +0.000 C 
BRANCH  24  25
ATOM     25  C   UNL     1       5.015   4.175  16.125  0.00  0.00    +0.000 C 
BRANCH  25  26
ATOM     26  C   UNL     1       5.590   5.496  15.632  0.00  0.00    +0.000 C 
BRANCH  26  27
ATOM     27  C   UNL     1       6.874   5.840  16.381  0.00  0.00    +0.000 C 
BRANCH  27  28
ATOM     28  C   UNL     1       6.659   7.042  17.295  0.00  0.00    +0.000 C 
BRANCH  28  30
ATOM     29  C   UNL     1       8.143   8.932  18.019  0.00  0.00    +0.000 C 
ATOM     30  C   UNL     1       7.950   7.425  18.010  0.00  0.00    +0.000 C 
ENDBRANCH  28  30
ENDBRANCH  27  28
ENDBRANCH  26  27
ENDBRANCH  25  26
ENDBRANCH  24  25
ENDBRANCH  23  24
ENDBRANCH  22  23
ENDBRANCH  21  22
ENDBRANCH  20  21
ENDBRANCH  19  20
ENDBRANCH  18  19
ENDBRANCH  17  18
ENDBRANCH   1  17
TORSDOF 15
ENDMDL
MODEL 4
REMARK VINA RESULT:      -6.1      6.744      9.176
REMARK  Name = 
REMARK  16 active torsions:
REMARK  status: ('A' for Active; 'I' for Inactive)
REMARK    1  A    between atoms: C_1  and  C_2
REMARK    2  A    between atoms: C_2  and  C_3
REMARK    3  A    between atoms: C_3  and  C_4
REMARK    4  A    between atoms: C_4  and  C_5
REMARK    5  A    between atoms: C_5  and  C_6
REMARK    6  A    between atoms: C_6  and  C_7
REMARK    7  A    between atoms: C_7  and  C_8
REMARK    8  A    between atoms: C_8  and  C_9
REMARK    9  A    between atoms: C_9  and  C_10
REMARK   10  A    between atoms: C_10  and  C_11
REMARK   11  A    between atoms: C_11  and  C_12
REMARK   12  A    between atoms: C_12  and  C_13
REMARK   13  A    between atoms: C_13  and  C_14
REMARK   14  A    between atoms: C_14  and  C_15
REMARK   15  A    between atoms: C_15  and  C_16
REMARK   16  A    between atoms: N_18  and  C_19
REMARK                            x       y       z     vdW  Elec       q    Type
REMARK                         _______ _______ _______ _____ _____    ______ ____
ROOT
ATOM      1  C   UNL     1       9.207   9.526  18.997  0.00  0.00    +0.000 C 
ENDROOT
BRANCH   1   2
ATOM      2  C   UNL     1       9.601  10.961  19.273  0.00  0.00    +0.000 C 
ATOM      3  O   UNL     1       9.445  11.469  20.380  0.00  0.00    +0.000 OA
ATOM      4  N   UNL     1      10.116  11.621  18.169  0.00  0.00    +0.000 N 
ATOM      5  H   UNL     1       9.982  11.184  17.263  0.00  0.00    +0.000 HD
BRANCH   4   6
ATOM      6  C   UNL     1      10.579  12.974  18.179  0.00  0.00    +0.000 A 
ATOM      7  C   UNL     1      11.916  13.290  18.421  0.00  0.00    +0.000 A 
ATOM      8  C   UNL     1      12.333  14.620  18.500  0.00  0.00    +0.000 A 
ATOM      9  C   UNL     1      11.438  15.659  18.351  0.00  0.00    +0.000 A 
ATOM     10  N   UNL     1      11.913  16.913  18.495  0.00  0.00    +0.000 NA
ATOM     11  C   UNL     1      11.022  17.917  18.383  0.00  0.00    +0.000 A 
ATOM     12  C   UNL     1       9.694  17.682  18.114  0.00  0.00    +0.000 A 
ATOM     13  N   UNL     1       9.204  16.436  17.938  0.00  0.00    +0.000 NA
ATOM     14  C   UNL     1      10.073  15.386  18.068  0.00  0.00    +0.000 A 
ATOM     15  C   UNL     1       9.684  14.033  17.952  0.00  0.00    +0.000 A 
ATOM     16 BR   UNL     1       7.861  13.634  17.516  0.00  0.00    +0.000 Br
ENDBRANCH   4   6
ENDBRANCH   1   2
BRANCH   1  17
ATOM     17  C   UNL     1       8.208   9.511  17.844  0.00  0.00    +0.000 C 
BRANCH  17  18
ATOM     18  C   UNL     1       7.352   8.259  17.810  0.00  0.00    +0.000 C 
BRANCH  18  19
ATOM     19  C   UNL     1       8.177   7.077  18.313  0.00  0.00    +0.000 C 
BRANCH  19  20
ATOM     20  C   UNL     1       7.276   5.928  18.731  0.00  0.00    +0.000 C 
BRANCH  20  21
ATOM     21  C   UNL     1       7.398   4.769  17.750  0.00  0.00    +0.000 C 
BRANCH  21  22
ATOM     22  C   UNL     1       7.111   5.249  16.335  0.00  0.00    +0.000 C 
BRANCH  22  23
ATOM     23  C   UNL     1       5.620   5.478  16.136  0.00  0.00    +0.000 C 
BRANCH  23  24
ATOM     24  C   UNL     1       4.882   4.147  16.097  0.00  0.00    +0.000 C 
BRANCH  24  25
ATOM     25  C   UNL     1       3.976   3.999  17.313  0.00  0.00    +0.000 C 
BRANCH  25  26
ATOM     26  C   UNL     1       3.538   5.366  17.822  0.00  0.00    +0.000 C 
BRANCH  26  27
ATOM     27  C   UNL     1       2.136   5.296  18.419  0.00  0.00    +0.000 C 
BRANCH  27  28
ATOM     28  C   UNL     1       2.157   5.685  19.894  0.00  0.00    +0.000 C 
BRANCH  28  30
ATOM     29  C   UNL     1       0.942   3.586  20.540  0.00  0.00    +0.000 C 
ATOM     30  C   UNL     1       2.168   4.449  20.787  0.00  0.00    +0.000 C 
ENDBRANCH  28  30
ENDBRANCH  27  28
ENDBRANCH  26  27
ENDBRANCH  25  26
ENDBRANCH  24  25
ENDBRANCH  23  24
ENDBRANCH  22  23
ENDBRANCH  21  22
ENDBRANCH  20  21
ENDBRANCH  19  20
ENDBRANCH  18  19
ENDBRANCH  17  18
ENDBRANCH   1  17
TORSDOF 15
ENDMDL
MODEL 5
REMARK VINA RESULT:      -6.0      2.064      2.581
REMARK  Name = 
REMARK  16 active torsions:
REMARK  status: ('A' for Active; 'I' for Inactive)
REMARK    1  A    between atoms: C_1  and  C_2
REMARK    2  A    between atoms: C_2  and  C_3
REMARK    3  A    between atoms: C_3  and  C_4
REMARK    4  A    between atoms: C_4  and  C_5
REMARK    5  A    between atoms: C_5  and  C_6
REMARK    6  A    between atoms: C_6  and  C_7
REMARK    7  A    between atoms: C_7  and  C_8
REMARK    8  A    between atoms: C_8  and  C_9
REMARK    9  A    between atoms: C_9  and  C_10
REMARK   10  A    between atoms: C_10  and  C_11
REMARK   11  A    between atoms: C_11  and  C_12
REMARK   12  A    between atoms: C_12  and  C_13
REMARK   13  A    between atoms: C_13  and  C_14
REMARK   14  A    between atoms: C_14  and  C_15
REMARK   15  A    between atoms: C_15  and  C_16
REMARK   16  A    between atoms: N_18  and  C_19
REMARK                            x       y       z     vdW  Elec       q    Type
REMARK                         _______ _______ _______ _____ _____    ______ ____
ROOT
ATOM      1  C   UNL     1       2.274   6.359  18.722  0.00  0.00    +0.000 C 
ENDROOT
BRANCH   1   2
ATOM      2  C   UNL     1       2.299   7.868  18.606  0.00  0.00    +0.000 C 
ATOM      3  O   UNL     1       3.074   8.441  17.845  0.00  0.00    +0.000 OA
ATOM      4  N   UNL     1       1.399   8.508  19.442  0.00  0.00    +0.000 N 
ATOM      5  H   UNL     1       0.983   7.955  20.186  0.00  0.00    +0.000 HD
BRANCH   4   6
ATOM      6  C   UNL     1       1.217   9.925  19.503  0.00  0.00    +0.000 A 
ATOM      7  C   UNL     1       1.594  10.759  18.449  0.00  0.00    +0.000 A 
ATOM      8  C   UNL     1       1.478  12.145  18.557  0.00  0.00    +0.000 A 
ATOM      9  C   UNL     1       0.997  12.734  19.709  0.00  0.00    +0.000 A 
ATOM     10  N   UNL     1       0.967  14.081  19.751  0.00  0.00    +0.000 NA
ATOM     11  C   UNL     1       0.530  14.643  20.895  0.00  0.00    +0.000 A 
ATOM     12  C   UNL     1       0.113  13.884  21.963  0.00  0.00    +0.000 A 
ATOM     13  N   UNL     1       0.108  12.534  21.930  0.00  0.00    +0.000 NA
ATOM     14  C   UNL     1       0.569  11.924  20.794  0.00  0.00    +0.000 A 
ATOM     15  C   UNL     1       0.658  10.522  20.645  0.00  0.00    +0.000 A 
ATOM     16 BR   UNL     1       0.035   9.402  22.070  0.00  0.00    +0.000 Br
ENDBRANCH   4   6
ENDBRANCH   1   2
BRANCH   1  17
ATOM     17  C   UNL     1       2.181   5.989  20.200  0.00  0.00    +0.000 C 
BRANCH  17  18
ATOM     18  C   UNL     1       1.266   4.808  20.463  0.00  0.00    +0.000 C 
BRANCH  18  19
ATOM     19  C   UNL     1       2.029   3.752  21.257  0.00  0.00    +0.000 C 
BRANCH  19  20
ATOM     20  C   UNL     1       1.835   2.374  20.649  0.00  0.00    +0.000 C 
BRANCH  20  21
ATOM     21  C   UNL     1       1.435   2.488  19.184  0.00  0.00    +0.000 C 
BRANCH  21  22
ATOM     22  C   UNL     1       2.538   1.932  18.295  0.00  0.00    +0.000 C 
BRANCH  22  23
ATOM     23  C   UNL     1       3.772   2.822  18.348  0.00  0.00    +0.000 C 
BRANCH  23  24
ATOM     24  C   UNL     1       3.902   3.621  17.059  0.00  0.00    +0.000 C 
BRANCH  24  25
ATOM     25  C   UNL     1       5.099   4.560  17.127  0.00  0.00    +0.000 C 
BRANCH  25  26
ATOM     26  C   UNL     1       5.338   5.223  15.777  0.00  0.00    +0.000 C 
BRANCH  26  27
ATOM     27  C   UNL     1       5.407   4.180  14.667  0.00  0.00    +0.000 C 
BRANCH  27  28
ATOM     28  C   UNL     1       6.628   4.411  13.784  0.00  0.00    +0.000 C 
BRANCH  28  30
ATOM     29  C   UNL     1       5.013   3.457  12.117  0.00  0.00    +0.000 C 
ATOM     30  C   UNL     1       6.477   3.706  12.440  0.00  0.00    +0.000 C 
ENDBRANCH  28  30
ENDBRANCH  27  28
ENDBRANCH  26  27
ENDBRANCH  25  26
ENDBRANCH  24  25
ENDBRANCH  23  24
ENDBRANCH  22  23
ENDBRANCH  21  22
ENDBRANCH  20  21
ENDBRANCH  19  20
ENDBRANCH  18  19
ENDBRANCH  17  18
ENDBRANCH   1  17
TORSDOF 15
ENDMDL
MODEL 6
REMARK VINA RESULT:      -6.0      1.186      1.364
REMARK  Name = 
REMARK  16 active torsions:
REMARK  status: ('A' for Active; 'I' for Inactive)
REMARK    1  A    between atoms: C_1  and  C_2
REMARK    2  A    between atoms: C_2  and  C_3
REMARK    3  A    between atoms: C_3  and  C_4
REMARK    4  A    between atoms: C_4  and  C_5
REMARK    5  A    between atoms: C_5  and  C_6
REMARK    6  A    between atoms: C_6  and  C_7
REMARK    7  A    between atoms: C_7  and  C_8
REMARK    8  A    between atoms: C_8  and  C_9
REMARK    9  A    between atoms: C_9  and  C_10
REMARK   10  A    between atoms: C_10  and  C_11
REMARK   11  A    between atoms: C_11  and  C_12
REMARK   12  A    between atoms: C_12  and  C_13
REMARK   13  A    between atoms: C_13  and  C_14
REMARK   14  A    between atoms: C_14  and  C_15
REMARK   15  A    between atoms: C_15  and  C_16
REMARK   16  A    between atoms: N_18  and  C_19
REMARK                            x       y       z     vdW  Elec       q    Type
REMARK                         _______ _______ _______ _____ _____    ______ ____
ROOT
ATOM      1  C   UNL     1       2.350   7.619  18.644  0.00  0.00    +0.000 C 
ENDROOT
BRANCH   1   2
ATOM      2  C   UNL     1       1.685   8.978  18.696  0.00  0.00    +0.000 C 
ATOM      3  O   UNL     1       1.332   9.560  17.674  0.00  0.00    +0.000 OA
ATOM      4  N   UNL     1       1.548   9.483  19.979  0.00  0.00    +0.000 N 
ATOM      5  H   UNL     1       2.080   9.030  20.715  0.00  0.00    +0.000 HD
BRANCH   4   6
ATOM      6  C   UNL     1       0.934  10.736  20.293  0.00  0.00    +0.000 A 
ATOM      7  C   UNL     1       1.053  11.843  19.450  0.00  0.00    +0.000 A 
ATOM      8  C   UNL     1       0.510  13.077  19.811  0.00  0.00    +0.000 A 
ATOM      9  C   UNL     1      -0.151  13.243  21.011  0.00  0.00    +0.000 A 
ATOM     10  N   UNL     1      -0.598  14.481  21.306  0.00  0.00    +0.000 NA
ATOM     11  C   UNL     1      -1.210  14.638  22.496  0.00  0.00    +0.000 A 
ATOM     12  C   UNL     1      -1.389  13.586  23.364  0.00  0.00    +0.000 A 
ATOM     13  N   UNL     1      -0.975  12.334  23.074  0.00  0.00    +0.000 NA
ATOM     14  C   UNL     1      -0.327  12.138  21.884  0.00  0.00    +0.000 A 
ATOM     15  C   UNL     1       0.196  10.890  21.479  0.00  0.00    +0.000 A 
ATOM     16 BR   UNL     1      -0.074   9.366  22.610  0.00  0.00    +0.000 Br
ENDBRANCH   4   6
ENDBRANCH   1   2
BRANCH   1  17
ATOM     17  C   UNL     1       2.141   6.925  19.987  0.00  0.00    +0.000 C 
BRANCH  17  18
ATOM     18  C   UNL     1       3.058   5.735  20.194  0.00  0.00    +0.000 C 
BRANCH  18  19
ATOM     19  C   UNL     1       2.321   4.671  21.002  0.00  0.00    +0.000 C 
BRANCH  19  20
ATOM     20  C   UNL     1       0.956   4.384  20.401  0.00  0.00    +0.000 C 
BRANCH  20  21
ATOM     21  C   UNL     1       0.888   2.952  19.887  0.00  0.00    +0.000 C 
BRANCH  21  22
ATOM     22  C   UNL     1       1.558   2.853  18.524  0.00  0.00    +0.000 C 
BRANCH  22  23
ATOM     23  C   UNL     1       2.807   1.986  18.600  0.00  0.00    +0.000 C 
BRANCH  23  24
ATOM     24  C   UNL     1       3.900   2.557  17.709  0.00  0.00    +0.000 C 
BRANCH  24  25
ATOM     25  C   UNL     1       3.531   3.958  17.236  0.00  0.00    +0.000 C 
BRANCH  25  26
ATOM     26  C   UNL     1       4.699   4.599  16.498  0.00  0.00    +0.000 C 
BRANCH  26  27
ATOM     27  C   UNL     1       5.970   4.534  17.337  0.00  0.00    +0.000 C 
BRANCH  27  28
ATOM     28  C   UNL     1       6.180   5.838  18.100  0.00  0.00    +0.000 C 
BRANCH  28  30
ATOM     29  C   UNL     1       7.728   7.790  17.797  0.00  0.00    +0.000 C 
ATOM     30  C   UNL     1       6.628   6.956  17.164  0.00  0.00    +0.000 C 
ENDBRANCH  28  30
ENDBRANCH  27  28
ENDBRANCH  26  27
ENDBRANCH  25  26
ENDBRANCH  24  25
ENDBRANCH  23  24
ENDBRANCH  22  23
ENDBRANCH  21  22
ENDBRANCH  20  21
ENDBRANCH  19  20
ENDBRANCH  18  19
ENDBRANCH  17  18
ENDBRANCH   1  17
TORSDOF 15
ENDMDL
MODEL 7
REMARK VINA RESULT:      -5.9      1.002      1.409
REMARK  Name = 
REMARK  16 active torsions:
REMARK  status: ('A' for Active; 'I' for Inactive)
REMARK    1  A    between atoms: C_1  and  C_2
REMARK    2  A    between atoms: C_2  and  C_3
REMARK    3  A    between atoms: C_3  and  C_4
REMARK    4  A    between atoms: C_4  and  C_5
REMARK    5  A    between atoms: C_5  and  C_6
REMARK    6  A    between atoms: C_6  and  C_7
REMARK    7  A    between atoms: C_7  and  C_8
REMARK    8  A    between atoms: C_8  and  C_9
REMARK    9  A    between atoms: C_9  and  C_10
REMARK   10  A    between atoms: C_10  and  C_11
REMARK   11  A    between atoms: C_11  and  C_12
REMARK   12  A    between atoms: C_12  and  C_13
REMARK   13  A    between atoms: C_13  and  C_14
REMARK   14  A    between atoms: C_14  and  C_15
REMARK   15  A    between atoms: C_15  and  C_16
REMARK   16  A    between atoms: N_18  and  C_19
REMARK                            x       y       z     vdW  Elec       q    Type
REMARK                         _______ _______ _______ _____ _____    ______ ____
ROOT
ATOM      1  C   UNL     1       2.904   7.976  17.747  0.00  0.00    +0.000 C 
ENDROOT
BRANCH   1   2
ATOM      2  C   UNL     1       2.105   9.196  18.151  0.00  0.00    +0.000 C 
ATOM      3  O   UNL     1       2.394  10.318  17.743  0.00  0.00    +0.000 OA
ATOM      4  N   UNL     1       1.062   8.918  19.020  0.00  0.00    +0.000 N 
ATOM      5  H   UNL     1       1.062   8.008  19.468  0.00  0.00    +0.000 HD
BRANCH   4   6
ATOM      6  C   UNL     1       0.151   9.896  19.529  0.00  0.00    +0.000 A 
ATOM      7  C   UNL     1      -0.780  10.530  18.705  0.00  0.00    +0.000 A 
ATOM      8  C   UNL     1      -1.609  11.535  19.205  0.00  0.00    +0.000 A 
ATOM      9  C   UNL     1      -1.529  11.939  20.522  0.00  0.00    +0.000 A 
ATOM     10  N   UNL     1      -2.328  12.952  20.910  0.00  0.00    +0.000 NA
ATOM     11  C   UNL     1      -2.214  13.361  22.189  0.00  0.00    +0.000 A 
ATOM     12  C   UNL     1      -1.339  12.762  23.066  0.00  0.00    +0.000 A 
ATOM     13  N   UNL     1      -0.552  11.727  22.704  0.00  0.00    +0.000 NA
ATOM     14  C   UNL     1      -0.620  11.299  21.406  0.00  0.00    +0.000 A 
ATOM     15  C   UNL     1       0.179  10.256  20.887  0.00  0.00    +0.000 A 
ATOM     16 BR   UNL     1       1.374   9.335  22.069  0.00  0.00    +0.000 Br
ENDBRANCH   4   6
ENDBRANCH   1   2
BRANCH   1  17
ATOM     17  C   UNL     1       2.379   6.773  18.527  0.00  0.00    +0.000 C 
BRANCH  17  18
ATOM     18  C   UNL     1       2.426   5.480  17.735  0.00  0.00    +0.000 C 
BRANCH  18  19
ATOM     19  C   UNL     1       1.382   4.517  18.289  0.00  0.00    +0.000 C 
BRANCH  19  20
ATOM     20  C   UNL     1       1.354   4.562  19.807  0.00  0.00    +0.000 C 
BRANCH  20  21
ATOM     21  C   UNL     1       0.876   3.231  20.373  0.00  0.00    +0.000 C 
BRANCH  21  22
ATOM     22  C   UNL     1       2.068   2.351  20.718  0.00  0.00    +0.000 C 
BRANCH  22  23
ATOM     23  C   UNL     1       3.360   3.154  20.675  0.00  0.00    +0.000 C 
BRANCH  23  24
ATOM     24  C   UNL     1       4.373   2.474  19.765  0.00  0.00    +0.000 C 
BRANCH  24  25
ATOM     25  C   UNL     1       4.751   3.386  18.605  0.00  0.00    +0.000 C 
BRANCH  25  26
ATOM     26  C   UNL     1       5.800   4.401  19.041  0.00  0.00    +0.000 C 
BRANCH  26  27
ATOM     27  C   UNL     1       6.590   4.911  17.841  0.00  0.00    +0.000 C 
BRANCH  27  28
ATOM     28  C   UNL     1       5.900   6.118  17.214  0.00  0.00    +0.000 C 
BRANCH  28  30
ATOM     29  C   UNL     1       6.221   4.684  15.180  0.00  0.00    +0.000 C 
ATOM     30  C   UNL     1       5.401   5.798  15.809  0.00  0.00    +0.000 C 
ENDBRANCH  28  30
ENDBRANCH  27  28
ENDBRANCH  26  27
ENDBRANCH  25  26
ENDBRANCH  24  25
ENDBRANCH  23  24
ENDBRANCH  22  23
ENDBRANCH  21  22
ENDBRANCH  20  21
ENDBRANCH  19  20
ENDBRANCH  18  19
ENDBRANCH  17  18
ENDBRANCH   1  17
TORSDOF 15
ENDMDL
MODEL 8
REMARK VINA RESULT:      -5.8      1.395      1.983
REMARK  Name = 
REMARK  16 active torsions:
REMARK  status: ('A' for Active; 'I' for Inactive)
REMARK    1  A    between atoms: C_1  and  C_2
REMARK    2  A    between atoms: C_2  and  C_3
REMARK    3  A    between atoms: C_3  and  C_4
REMARK    4  A    between atoms: C_4  and  C_5
REMARK    5  A    between atoms: C_5  and  C_6
REMARK    6  A    between atoms: C_6  and  C_7
REMARK    7  A    between atoms: C_7  and  C_8
REMARK    8  A    between atoms: C_8  and  C_9
REMARK    9  A    between atoms: C_9  and  C_10
REMARK   10  A    between atoms: C_10  and  C_11
REMARK   11  A    between atoms: C_11  and  C_12
REMARK   12  A    between atoms: C_12  and  C_13
REMARK   13  A    between atoms: C_13  and  C_14
REMARK   14  A    between atoms: C_14  and  C_15
REMARK   15  A    between atoms: C_15  and  C_16
REMARK   16  A    between atoms: N_18  and  C_19
REMARK                            x       y       z     vdW  Elec       q    Type
REMARK                         _______ _______ _______ _____ _____    ______ ____
ROOT
ATOM      1  C   UNL     1       2.737   8.111  17.697  0.00  0.00    +0.000 C 
ENDROOT
BRANCH   1   2
ATOM      2  C   UNL     1       2.046   9.375  18.160  0.00  0.00    +0.000 C 
ATOM      3  O   UNL     1       2.284  10.464  17.642  0.00  0.00    +0.000 OA
ATOM      4  N   UNL     1       1.166   9.178  19.211  0.00  0.00    +0.000 N 
ATOM      5  H   UNL     1       1.224   8.293  19.705  0.00  0.00    +0.000 HD
BRANCH   4   6
ATOM      6  C   UNL     1       0.378  10.210  19.811  0.00  0.00    +0.000 A 
ATOM      7  C   UNL     1       0.761  10.825  21.004  0.00  0.00    +0.000 A 
ATOM      8  C   UNL     1      -0.059  11.777  21.612  0.00  0.00    +0.000 A 
ATOM      9  C   UNL     1      -1.272  12.132  21.060  0.00  0.00    +0.000 A 
ATOM     10  N   UNL     1      -2.027  13.020  21.739  0.00  0.00    +0.000 NA
ATOM     11  C   UNL     1      -3.225  13.331  21.207  0.00  0.00    +0.000 A 
ATOM     12  C   UNL     1      -3.654  12.788  20.019  0.00  0.00    +0.000 A 
ATOM     13  N   UNL     1      -2.901  11.920  19.310  0.00  0.00    +0.000 NA
ATOM     14  C   UNL     1      -1.687  11.559  19.828  0.00  0.00    +0.000 A 
ATOM     15  C   UNL     1      -0.822  10.629  19.212  0.00  0.00    +0.000 A 
ATOM     16 BR   UNL     1      -1.328   9.880  17.521  0.00  0.00    +0.000 Br
ENDBRANCH   4   6
ENDBRANCH   1   2
BRANCH   1  17
ATOM     17  C   UNL     1       2.623   7.064  18.802  0.00  0.00    +0.000 C 
BRANCH  17  18
ATOM     18  C   UNL     1       1.877   5.817  18.369  0.00  0.00    +0.000 C 
BRANCH  18  19
ATOM     19  C   UNL     1       1.597   4.951  19.594  0.00  0.00    +0.000 C 
BRANCH  19  20
ATOM     20  C   UNL     1       2.882   4.645  20.344  0.00  0.00    +0.000 C 
BRANCH  20  21
ATOM     21  C   UNL     1       3.256   3.177  20.186  0.00  0.00    +0.000 C 
BRANCH  21  22
ATOM     22  C   UNL     1       2.229   2.466  19.317  0.00  0.00    +0.000 C 
BRANCH  22  23
ATOM     23  C   UNL     1       2.860   1.992  18.016  0.00  0.00    +0.000 C 
BRANCH  23  24
ATOM     24  C   UNL     1       4.162   2.736  17.759  0.00  0.00    +0.000 C 
BRANCH  24  25
ATOM     25  C   UNL     1       4.004   3.712  16.599  0.00  0.00    +0.000 C 
BRANCH  25  26
ATOM     26  C   UNL     1       5.016   4.844  16.710  0.00  0.00    +0.000 C 
BRANCH  26  27
ATOM     27  C   UNL     1       6.422   4.344  16.396  0.00  0.00    +0.000 C 
BRANCH  27  28
ATOM     28  C   UNL     1       7.412   4.818  17.455  0.00  0.00    +0.000 C 
BRANCH  28  30
ATOM     29  C   UNL     1       7.655   7.303  17.703  0.00  0.00    +0.000 C 
ATOM     30  C   UNL     1       6.901   6.068  18.164  0.00  0.00    +0.000 C 
ENDBRANCH  28  30
ENDBRANCH  27  28
ENDBRANCH  26  27
ENDBRANCH  25  26
ENDBRANCH  24  25
ENDBRANCH  23  24
ENDBRANCH  22  23
ENDBRANCH  21  22
ENDBRANCH  20  21
ENDBRANCH  19  20
ENDBRANCH  18  19
ENDBRANCH  17  18
ENDBRANCH   1  17
TORSDOF 15
ENDMDL
MODEL 9
REMARK VINA RESULT:      -5.8      2.928      4.544
REMARK  Name = 
REMARK  16 active torsions:
REMARK  status: ('A' for Active; 'I' for Inactive)
REMARK    1  A    between atoms: C_1  and  C_2
REMARK    2  A    between atoms: C_2  and  C_3
REMARK    3  A    between atoms: C_3  and  C_4
REMARK    4  A    between atoms: C_4  and  C_5
REMARK    5  A    between atoms: C_5  and  C_6
REMARK    6  A    between atoms: C_6  and  C_7
REMARK    7  A    between atoms: C_7  and  C_8
REMARK    8  A    between atoms: C_8  and  C_9
REMARK    9  A    between atoms: C_9  and  C_10
REMARK   10  A    between atoms: C_10  and  C_11
REMARK   11  A    between atoms: C_11  and  C_12
REMARK   12  A    between atoms: C_12  and  C_13
REMARK   13  A    between atoms: C_13  and  C_14
REMARK   14  A    between atoms: C_14  and  C_15
REMARK   15  A    between atoms: C_15  and  C_16
REMARK   16  A    between atoms: N_18  and  C_19
REMARK                            x       y       z     vdW  Elec       q    Type
REMARK                         _______ _______ _______ _____ _____    ______ ____
ROOT
ATOM      1  C   UNL     1       2.831   4.797  20.457  0.00  0.00    +0.000 C 
ENDROOT
BRANCH   1   2
ATOM      2  C   UNL     1       1.758   5.862  20.545  0.00  0.00    +0.000 C 
ATOM      3  O   UNL     1       0.566   5.571  20.584  0.00  0.00    +0.000 OA
ATOM      4  N   UNL     1       2.255   7.155  20.552  0.00  0.00    +0.000 N 
ATOM      5  H   UNL     1       3.225   7.281  20.282  0.00  0.00    +0.000 HD
BRANCH   4   6
ATOM      6  C   UNL     1       1.447   8.331  20.649  0.00  0.00    +0.000 A 
ATOM      7  C   UNL     1       0.889   8.740  21.862  0.00  0.00    +0.000 A 
ATOM      8  C   UNL     1       0.043   9.847  21.922  0.00  0.00    +0.000 A 
ATOM      9  C   UNL     1      -0.276  10.565  20.788  0.00  0.00    +0.000 A 
ATOM     10  N   UNL     1      -1.143  11.589  20.925  0.00  0.00    +0.000 NA
ATOM     11  C   UNL     1      -1.474  12.259  19.804  0.00  0.00    +0.000 A 
ATOM     12  C   UNL     1      -0.940  11.932  18.579  0.00  0.00    +0.000 A 
ATOM     13  N   UNL     1      -0.048  10.929  18.426  0.00  0.00    +0.000 NA
ATOM     14  C   UNL     1       0.295  10.208  19.538  0.00  0.00    +0.000 A 
ATOM     15  C   UNL     1       1.181   9.108  19.510  0.00  0.00    +0.000 A 
ATOM     16 BR   UNL     1       2.011   8.636  17.848  0.00  0.00    +0.000 Br
ENDBRANCH   4   6
ENDBRANCH   1   2
BRANCH   1  17
ATOM     17  C   UNL     1       2.176   3.483  20.044  0.00  0.00    +0.000 C 
BRANCH  17  18
ATOM     18  C   UNL     1       3.153   2.491  19.442  0.00  0.00    +0.000 C 
BRANCH  18  19
ATOM     19  C   UNL     1       3.189   2.679  17.929  0.00  0.00    +0.000 C 
BRANCH  19  20
ATOM     20  C   UNL     1       4.352   3.566  17.521  0.00  0.00    +0.000 C 
BRANCH  20  21
ATOM     21  C   UNL     1       3.864   4.970  17.192  0.00  0.00    +0.000 C 
BRANCH  21  22
ATOM     22  C   UNL     1       5.044   5.926  17.098  0.00  0.00    +0.000 C 
BRANCH  22  23
ATOM     23  C   UNL     1       6.342   5.159  16.885  0.00  0.00    +0.000 C 
BRANCH  23  24
ATOM     24  C   UNL     1       6.867   5.393  15.475  0.00  0.00    +0.000 C 
BRANCH  24  25
ATOM     25  C   UNL     1       5.792   5.078  14.443  0.00  0.00    +0.000 C 
BRANCH  25  26
ATOM     26  C   UNL     1       5.931   3.646  13.944  0.00  0.00    +0.000 C 
BRANCH  26  27
ATOM     27  C   UNL     1       5.892   3.598  12.420  0.00  0.00    +0.000 C 
BRANCH  27  28
ATOM     28  C   UNL     1       7.263   3.241  11.856  0.00  0.00    +0.000 C 
BRANCH  28  30
ATOM     29  C   UNL     1       5.994   1.136  11.345  0.00  0.00    +0.000 C 
ATOM     30  C   UNL     1       7.187   2.000  10.972  0.00  0.00    +0.000 C 
ENDBRANCH  28  30
ENDBRANCH  27  28
ENDBRANCH  26  27
ENDBRANCH  25  26
ENDBRANCH  24  25
ENDBRANCH  23  24
ENDBRANCH  22  23
ENDBRANCH  21  22
ENDBRANCH  20  21
ENDBRANCH  19  20
ENDBRANCH  18  19
ENDBRANCH  17  18
ENDBRANCH   1  17
TORSDOF 15
ENDMDL
