MODEL 1
REMARK VINA RESULT:      -9.1      0.000      0.000
REMARK  Name = 
REMARK  9 active torsions:
REMARK  status: ('A' for Active; 'I' for Inactive)
REMARK    1  A    between atoms: C_2  and  O_3
REMARK    2  A    between atoms: C_2  and  C_4
REMARK    3  A    between atoms: C_11  and  C_12
REMARK    4  A    between atoms: C_12  and  C_13
REMARK    5  A    between atoms: C_13  and  N_14
REMARK    6  A    between atoms: C_15  and  C_17
REMARK    7  A    between atoms: N_22  and  C_23
REMARK    8  A    between atoms: C_23  and  C_24
REMARK    9  A    between atoms: C_27  and  C_28
REMARK                            x       y       z     vdW  Elec       q    Type
REMARK                         _______ _______ _______ _____ _____    ______ ____
ROOT
ATOM      1  C   UNL     1       6.045   3.932  13.943  0.00  0.00    +0.000 A 
ATOM      2  C   UNL     1       5.301   3.354  14.979  0.00  0.00    +0.000 A 
ATOM      3  C   UNL     1       5.436   3.789  16.307  0.00  0.00    +0.000 A 
ATOM      4  C   UNL     1       6.341   4.835  16.545  0.00  0.00    +0.000 A 
ATOM      5  C   UNL     1       7.060   5.441  15.524  0.00  0.00    +0.000 A 
ATOM      6  C   UNL     1       6.921   4.994  14.201  0.00  0.00    +0.000 A 
ATOM      7  N   UNL     1       7.838   6.455  16.009  0.00  0.00    +0.000 NA
ATOM      8  C   UNL     1       7.597   6.512  17.306  0.00  0.00    +0.000 A 
ATOM      9  N   UNL     1       6.756   5.490  17.690  0.00  0.00    +0.000 N 
ENDROOT
BRANCH   1  11
ATOM     10  O   UNL     1       4.782   3.507  11.974  0.00  0.00    +0.000 OA
ATOM     11  C   UNL     1       5.842   3.413  12.568  0.00  0.00    +0.000 C 
BRANCH  11  12
ATOM     12  O   UNL     1       6.921   2.780  12.060  0.00  0.00    +0.000 OA
ATOM     13  H   UNL     1       6.750   2.218  11.284  0.00  0.00    +0.000 HD
ENDBRANCH  11  12
ENDBRANCH   1  11
BRANCH   8  14
ATOM     14  C   UNL     1       8.146   7.569  18.212  0.00  0.00    +0.000 C 
BRANCH  14  15
ATOM     15  C   UNL     1       7.550   8.947  17.924  0.00  0.00    +0.000 C 
BRANCH  15  16
ATOM     16  N   UNL     1       8.549   9.983  17.723  0.00  0.00    +0.000 N 
ATOM     17  C   UNL     1       9.235  10.568  18.769  0.00  0.00    +0.000 C 
ATOM     18  O   UNL     1       8.971  10.292  19.939  0.00  0.00    +0.000 OA
ATOM     19  H   UNL     1       8.899  10.149  16.787  0.00  0.00    +0.000 HD
BRANCH  17  20
ATOM     20  C   UNL     1      10.281  11.516  18.404  0.00  0.00    +0.000 A 
ATOM     21  C   UNL     1      10.228  12.440  17.374  0.00  0.00    +0.000 A 
ATOM     22  C   UNL     1      11.409  13.230  17.278  0.00  0.00    +0.000 A 
ATOM     23  C   UNL     1      12.333  12.885  18.238  0.00  0.00    +0.000 A 
ATOM     24  S   UNL     1      11.775  11.616  19.240  0.00  0.00    +0.000 S 
ENDBRANCH  17  20
ENDBRANCH  15  16
ENDBRANCH  14  15
ENDBRANCH   8  14
BRANCH   9  25
ATOM     25  C   UNL     1       6.381   5.135  19.058  0.00  0.00    +0.000 C 
BRANCH  25  26
ATOM     26  C   UNL     1       4.933   4.709  19.218  0.00  0.00    +0.000 A 
ATOM     27  C   UNL     1       3.844   5.583  19.078  0.00  0.00    +0.000 A 
ATOM     28  C   UNL     1       2.552   5.179  19.420  0.00  0.00    +0.000 A 
ATOM     29  C   UNL     1       2.311   3.889  19.904  0.00  0.00    +0.000 A 
ATOM     30  C   UNL     1       3.373   2.974  19.930  0.00  0.00    +0.000 A 
ATOM     31  C   UNL     1       4.667   3.379  19.589  0.00  0.00    +0.000 A 
BRANCH  29  32
ATOM     32  C   UNL     1       0.960   3.507  20.457  0.00  0.00    +0.000 C 
ATOM     33  F   UNL     1       0.132   4.574  20.650  0.00  0.00    +0.000 F 
ATOM     34  F   UNL     1       0.279   2.643  19.659  0.00  0.00    +0.000 F 
ATOM     35  F   UNL     1       1.060   2.899  21.673  0.00  0.00    +0.000 F 
ENDBRANCH  29  32
ENDBRANCH  25  26
ENDBRANCH   9  25
TORSDOF 9
ENDMDL
MODEL 2
REMARK VINA RESULT:      -8.9      1.271      1.508
REMARK  Name = 
REMARK  9 active torsions:
REMARK  status: ('A' for Active; 'I' for Inactive)
REMARK    1  A    between atoms: C_2  and  O_3
REMARK    2  A    between atoms: C_2  and  C_4
REMARK    3  A    between atoms: C_11  and  C_12
REMARK    4  A    between atoms: C_12  and  C_13
REMARK    5  A    between atoms: C_13  and  N_14
REMARK    6  A    between atoms: C_15  and  C_17
REMARK    7  A    between atoms: N_22  and  C_23
REMARK    8  A    between atoms: C_23  and  C_24
REMARK    9  A    between atoms: C_27  and  C_28
REMARK                            x       y       z     vdW  Elec       q    Type
REMARK                         _______ _______ _______ _____ _____    ______ ____
ROOT
ATOM      1  C   UNL     1       6.271   4.119  13.958  0.00  0.00    +0.000 A 
ATOM      2  C   UNL     1       5.529   3.434  14.928  0.00  0.00    +0.000 A 
ATOM      3  C   UNL     1       5.600   3.787  16.285  0.00  0.00    +0.000 A 
ATOM      4  C   UNL     1       6.437   4.862  16.621  0.00  0.00    +0.000 A 
ATOM      5  C   UNL     1       7.152   5.573  15.666  0.00  0.00    +0.000 A 
ATOM      6  C   UNL     1       7.079   5.208  14.314  0.00  0.00    +0.000 A 
ATOM      7  N   UNL     1       7.857   6.592  16.242  0.00  0.00    +0.000 NA
ATOM      8  C   UNL     1       7.574   6.550  17.531  0.00  0.00    +0.000 A 
ATOM      9  N   UNL     1       6.781   5.461  17.820  0.00  0.00    +0.000 N 
ENDROOT
BRANCH   1  11
ATOM     10  O   UNL     1       5.153   3.108  12.119  0.00  0.00    +0.000 OA
ATOM     11  C   UNL     1       6.140   3.684  12.546  0.00  0.00    +0.000 C 
BRANCH  11  12
ATOM     12  O   UNL     1       7.234   3.933  11.794  0.00  0.00    +0.000 OA
ATOM     13  H   UNL     1       7.915   4.485  12.217  0.00  0.00    +0.000 HD
ENDBRANCH  11  12
ENDBRANCH   1  11
BRANCH   8  14
ATOM     14  C   UNL     1       8.036   7.572  18.523  0.00  0.00    +0.000 C 
BRANCH  14  15
ATOM     15  C   UNL     1       8.246   8.946  17.884  0.00  0.00    +0.000 C 
BRANCH  15  16
ATOM     16  N   UNL     1       8.604   9.982  18.837  0.00  0.00    +0.000 N 
ATOM     17  C   UNL     1       9.585  10.921  18.584  0.00  0.00    +0.000 C 
ATOM     18  O   UNL     1      10.264  10.871  17.559  0.00  0.00    +0.000 OA
ATOM     19  H   UNL     1       7.992  10.151  19.627  0.00  0.00    +0.000 HD
BRANCH  17  20
ATOM     20  C   UNL     1       9.758  11.960  19.590  0.00  0.00    +0.000 A 
ATOM     21  C   UNL     1      10.382  13.182  19.410  0.00  0.00    +0.000 A 
ATOM     22  C   UNL     1      10.381  13.984  20.587  0.00  0.00    +0.000 A 
ATOM     23  C   UNL     1       9.756  13.348  21.637  0.00  0.00    +0.000 A 
ATOM     24  S   UNL     1       9.183  11.798  21.198  0.00  0.00    +0.000 S 
ENDBRANCH  17  20
ENDBRANCH  15  16
ENDBRANCH  14  15
ENDBRANCH   8  14
BRANCH   9  25
ATOM     25  C   UNL     1       6.385   4.996  19.149  0.00  0.00    +0.000 C 
BRANCH  25  26
ATOM     26  C   UNL     1       4.921   4.612  19.265  0.00  0.00    +0.000 A 
ATOM     27  C   UNL     1       3.866   5.535  19.201  0.00  0.00    +0.000 A 
ATOM     28  C   UNL     1       2.557   5.152  19.501  0.00  0.00    +0.000 A 
ATOM     29  C   UNL     1       2.266   3.833  19.867  0.00  0.00    +0.000 A 
ATOM     30  C   UNL     1       3.292   2.880  19.815  0.00  0.00    +0.000 A 
ATOM     31  C   UNL     1       4.603   3.266  19.515  0.00  0.00    +0.000 A 
BRANCH  29  32
ATOM     32  C   UNL     1       0.898   3.454  20.379  0.00  0.00    +0.000 C 
ATOM     33  F   UNL     1       0.930   2.781  21.565  0.00  0.00    +0.000 F 
ATOM     34  F   UNL     1       0.084   4.525  20.577  0.00  0.00    +0.000 F 
ATOM     35  F   UNL     1       0.238   2.633  19.513  0.00  0.00    +0.000 F 
ENDBRANCH  29  32
ENDBRANCH  25  26
ENDBRANCH   9  25
TORSDOF 9
ENDMDL
MODEL 3
REMARK VINA RESULT:      -8.5      1.431      1.785
REMARK  Name = 
REMARK  9 active torsions:
REMARK  status: ('A' for Active; 'I' for Inactive)
REMARK    1  A    between atoms: C_2  and  O_3
REMARK    2  A    between atoms: C_2  and  C_4
REMARK    3  A    between atoms: C_11  and  C_12
REMARK    4  A    between atoms: C_12  and  C_13
REMARK    5  A    between atoms: C_13  and  N_14
REMARK    6  A    between atoms: C_15  and  C_17
REMARK    7  A    between atoms: N_22  and  C_23
REMARK    8  A    between atoms: C_23  and  C_24
REMARK    9  A    between atoms: C_27  and  C_28
REMARK                            x       y       z     vdW  Elec       q    Type
REMARK                         _______ _______ _______ _____ _____    ______ ____
ROOT
ATOM      1  C   UNL     1       6.324   4.117  14.051  0.00  0.00    +0.000 A 
ATOM      2  C   UNL     1       5.616   3.405  15.027  0.00  0.00    +0.000 A 
ATOM      3  C   UNL     1       5.693   3.753  16.385  0.00  0.00    +0.000 A 
ATOM      4  C   UNL     1       6.501   4.852  16.716  0.00  0.00    +0.000 A 
ATOM      5  C   UNL     1       7.181   5.589  15.756  0.00  0.00    +0.000 A 
ATOM      6  C   UNL     1       7.102   5.229  14.403  0.00  0.00    +0.000 A 
ATOM      7  N   UNL     1       7.861   6.627  16.329  0.00  0.00    +0.000 NA
ATOM      8  C   UNL     1       7.596   6.570  17.621  0.00  0.00    +0.000 A 
ATOM      9  N   UNL     1       6.840   5.455  17.913  0.00  0.00    +0.000 N 
ENDROOT
BRANCH   1  11
ATOM     10  O   UNL     1       5.267   2.990  12.243  0.00  0.00    +0.000 OA
ATOM     11  C   UNL     1       6.188   3.685  12.638  0.00  0.00    +0.000 C 
BRANCH  11  12
ATOM     12  O   UNL     1       7.205   4.085  11.845  0.00  0.00    +0.000 OA
ATOM     13  H   UNL     1       7.107   3.875  10.900  0.00  0.00    +0.000 HD
ENDBRANCH  11  12
ENDBRANCH   1  11
BRANCH   8  14
ATOM     14  C   UNL     1       8.038   7.601  18.612  0.00  0.00    +0.000 C 
BRANCH  14  15
ATOM     15  C   UNL     1       8.375   8.936  17.948  0.00  0.00    +0.000 C 
BRANCH  15  16
ATOM     16  N   UNL     1       8.704   9.990  18.893  0.00  0.00    +0.000 N 
ATOM     17  C   UNL     1       9.612  10.990  18.606  0.00  0.00    +0.000 C 
ATOM     18  O   UNL     1      10.249  10.989  17.553  0.00  0.00    +0.000 OA
ATOM     19  H   UNL     1       8.116  10.115  19.708  0.00  0.00    +0.000 HD
BRANCH  17  20
ATOM     20  C   UNL     1       9.759  12.035  19.612  0.00  0.00    +0.000 A 
ATOM     21  C   UNL     1      10.312  13.288  19.419  0.00  0.00    +0.000 A 
ATOM     22  C   UNL     1      10.303  14.085  20.599  0.00  0.00    +0.000 A 
ATOM     23  C   UNL     1       9.744  13.414  21.663  0.00  0.00    +0.000 A 
ATOM     24  S   UNL     1       9.240  11.838  21.235  0.00  0.00    +0.000 S 
ENDBRANCH  17  20
ENDBRANCH  15  16
ENDBRANCH  14  15
ENDBRANCH   8  14
BRANCH   9  25
ATOM     25  C   UNL     1       6.476   4.971  19.244  0.00  0.00    +0.000 C 
BRANCH  25  26
ATOM     26  C   UNL     1       5.047   4.471  19.357  0.00  0.00    +0.000 A 
ATOM     27  C   UNL     1       4.707   3.127  19.568  0.00  0.00    +0.000 A 
ATOM     28  C   UNL     1       3.380   2.699  19.475  0.00  0.00    +0.000 A 
ATOM     29  C   UNL     1       2.357   3.606  19.177  0.00  0.00    +0.000 A 
ATOM     30  C   UNL     1       2.673   4.968  19.087  0.00  0.00    +0.000 A 
ATOM     31  C   UNL     1       4.002   5.395  19.178  0.00  0.00    +0.000 A 
BRANCH  29  32
ATOM     32  C   UNL     1       0.956   3.126  18.884  0.00  0.00    +0.000 C 
ATOM     33  F   UNL     1       0.386   3.743  17.810  0.00  0.00    +0.000 F 
ATOM     34  F   UNL     1       0.889   1.792  18.632  0.00  0.00    +0.000 F 
ATOM     35  F   UNL     1       0.110   3.356  19.929  0.00  0.00    +0.000 F 
ENDBRANCH  29  32
ENDBRANCH  25  26
ENDBRANCH   9  25
TORSDOF 9
ENDMDL
MODEL 4
REMARK VINA RESULT:      -8.2      6.015      8.617
REMARK  Name = 
REMARK  9 active torsions:
REMARK  status: ('A' for Active; 'I' for Inactive)
REMARK    1  A    between atoms: C_2  and  O_3
REMARK    2  A    between atoms: C_2  and  C_4
REMARK    3  A    between atoms: C_11  and  C_12
REMARK    4  A    between atoms: C_12  and  C_13
REMARK    5  A    between atoms: C_13  and  N_14
REMARK    6  A    between atoms: C_15  and  C_17
REMARK    7  A    between atoms: N_22  and  C_23
REMARK    8  A    between atoms: C_23  and  C_24
REMARK    9  A    between atoms: C_27  and  C_28
REMARK                            x       y       z     vdW  Elec       q    Type
REMARK                         _______ _______ _______ _____ _____    ______ ____
ROOT
ATOM      1  C   UNL     1       2.859   3.654  20.548  0.00  0.00    +0.000 A 
ATOM      2  C   UNL     1       4.216   3.539  20.219  0.00  0.00    +0.000 A 
ATOM      3  C   UNL     1       4.844   4.466  19.373  0.00  0.00    +0.000 A 
ATOM      4  C   UNL     1       4.054   5.518  18.884  0.00  0.00    +0.000 A 
ATOM      5  C   UNL     1       2.717   5.665  19.228  0.00  0.00    +0.000 A 
ATOM      6  C   UNL     1       2.098   4.729  20.070  0.00  0.00    +0.000 A 
ATOM      7  N   UNL     1       2.186   6.786  18.654  0.00  0.00    +0.000 NA
ATOM      8  C   UNL     1       3.170   7.356  17.984  0.00  0.00    +0.000 A 
ATOM      9  N   UNL     1       4.304   6.574  18.025  0.00  0.00    +0.000 N 
ENDROOT
BRANCH   1  11
ATOM     10  O   UNL     1       1.071   2.518  21.629  0.00  0.00    +0.000 OA
ATOM     11  C   UNL     1       2.272   2.632  21.449  0.00  0.00    +0.000 C 
BRANCH  11  12
ATOM     12  O   UNL     1       3.191   1.879  22.091  0.00  0.00    +0.000 OA
ATOM     13  H   UNL     1       4.118   2.146  21.957  0.00  0.00    +0.000 HD
ENDBRANCH  11  12
ENDBRANCH   1  11
BRANCH   8  14
ATOM     14  C   UNL     1       3.059   8.685  17.304  0.00  0.00    +0.000 C 
BRANCH  14  15
ATOM     15  C   UNL     1       2.296   9.706  18.148  0.00  0.00    +0.000 C 
BRANCH  15  16
ATOM     16  N   UNL     1       0.924   9.910  17.716  0.00  0.00    +0.000 N 
ATOM     17  C   UNL     1      -0.113  10.117  18.604  0.00  0.00    +0.000 C 
ATOM     18  O   UNL     1       0.068  10.057  19.820  0.00  0.00    +0.000 OA
ATOM     19  H   UNL     1       0.743  10.102  16.738  0.00  0.00    +0.000 HD
BRANCH  17  20
ATOM     20  C   UNL     1      -1.415  10.411  18.018  0.00  0.00    +0.000 A 
ATOM     21  C   UNL     1      -1.986   9.778  16.928  0.00  0.00    +0.000 A 
ATOM     22  C   UNL     1      -3.275  10.290  16.603  0.00  0.00    +0.000 A 
ATOM     23  C   UNL     1      -3.651  11.304  17.454  0.00  0.00    +0.000 A 
ATOM     24  S   UNL     1      -2.454  11.631  18.630  0.00  0.00    +0.000 S 
ENDBRANCH  17  20
ENDBRANCH  15  16
ENDBRANCH  14  15
ENDBRANCH   8  14
BRANCH   9  25
ATOM     25  C   UNL     1       5.545   6.794  17.284  0.00  0.00    +0.000 C 
BRANCH  25  26
ATOM     26  C   UNL     1       5.787   5.799  16.163  0.00  0.00    +0.000 A 
ATOM     27  C   UNL     1       7.036   5.600  15.555  0.00  0.00    +0.000 A 
ATOM     28  C   UNL     1       7.159   4.813  14.408  0.00  0.00    +0.000 A 
ATOM     29  C   UNL     1       6.037   4.196  13.842  0.00  0.00    +0.000 A 
ATOM     30  C   UNL     1       4.810   4.291  14.513  0.00  0.00    +0.000 A 
ATOM     31  C   UNL     1       4.688   5.081  15.660  0.00  0.00    +0.000 A 
BRANCH  29  32
ATOM     32  C   UNL     1       6.124   3.508  12.502  0.00  0.00    +0.000 C 
ATOM     33  F   UNL     1       6.332   2.163  12.597  0.00  0.00    +0.000 F 
ATOM     34  F   UNL     1       5.006   3.663  11.745  0.00  0.00    +0.000 F 
ATOM     35  F   UNL     1       7.158   3.984  11.751  0.00  0.00    +0.000 F 
ENDBRANCH  29  32
ENDBRANCH  25  26
ENDBRANCH   9  25
TORSDOF 9
ENDMDL
MODEL 5
REMARK VINA RESULT:      -8.2      1.439      1.997
REMARK  Name = 
REMARK  9 active torsions:
REMARK  status: ('A' for Active; 'I' for Inactive)
REMARK    1  A    between atoms: C_2  and  O_3
REMARK    2  A    between atoms: C_2  and  C_4
REMARK    3  A    between atoms: C_11  and  C_12
REMARK    4  A    between atoms: C_12  and  C_13
REMARK    5  A    between atoms: C_13  and  N_14
REMARK    6  A    between atoms: C_15  and  C_17
REMARK    7  A    between atoms: N_22  and  C_23
REMARK    8  A    between atoms: C_23  and  C_24
REMARK    9  A    between atoms: C_27  and  C_28
REMARK                            x       y       z     vdW  Elec       q    Type
REMARK                         _______ _______ _______ _____ _____    ______ ____
ROOT
ATOM      1  C   UNL     1       6.172   3.663  13.193  0.00  0.00    +0.000 A 
ATOM      2  C   UNL     1       4.881   4.173  13.386  0.00  0.00    +0.000 A 
ATOM      3  C   UNL     1       4.583   5.017  14.467  0.00  0.00    +0.000 A 
ATOM      4  C   UNL     1       5.638   5.334  15.338  0.00  0.00    +0.000 A 
ATOM      5  C   UNL     1       6.930   4.863  15.140  0.00  0.00    +0.000 A 
ATOM      6  C   UNL     1       7.215   4.017  14.059  0.00  0.00    +0.000 A 
ATOM      7  N   UNL     1       7.777   5.346  16.099  0.00  0.00    +0.000 NA
ATOM      8  C   UNL     1       7.047   6.128  16.872  0.00  0.00    +0.000 A 
ATOM      9  N   UNL     1       5.721   6.084  16.497  0.00  0.00    +0.000 N 
ENDROOT
BRANCH   1  11
ATOM     10  O   UNL     1       7.504   2.608  11.530  0.00  0.00    +0.000 OA
ATOM     11  C   UNL     1       6.403   2.779  12.025  0.00  0.00    +0.000 C 
BRANCH  11  12
ATOM     12  O   UNL     1       5.275   2.227  11.527  0.00  0.00    +0.000 OA
ATOM     13  H   UNL     1       4.572   2.053  12.178  0.00  0.00    +0.000 HD
ENDBRANCH  11  12
ENDBRANCH   1  11
BRANCH   8  14
ATOM     14  C   UNL     1       7.606   6.966  17.980  0.00  0.00    +0.000 C 
BRANCH  14  15
ATOM     15  C   UNL     1       7.644   8.452  17.621  0.00  0.00    +0.000 C 
BRANCH  15  16
ATOM     16  N   UNL     1       8.649   9.202  18.354  0.00  0.00    +0.000 N 
ATOM     17  C   UNL     1       8.793  10.570  18.231  0.00  0.00    +0.000 C 
ATOM     18  O   UNL     1       8.120  11.212  17.426  0.00  0.00    +0.000 OA
ATOM     19  H   UNL     1       9.132   8.751  19.122  0.00  0.00    +0.000 HD
BRANCH  17  20
ATOM     20  C   UNL     1       9.774  11.196  19.109  0.00  0.00    +0.000 A 
ATOM     21  C   UNL     1      11.094  11.475  18.798  0.00  0.00    +0.000 A 
ATOM     22  C   UNL     1      11.795  12.099  19.869  0.00  0.00    +0.000 A 
ATOM     23  C   UNL     1      10.990  12.277  20.971  0.00  0.00    +0.000 A 
ATOM     24  S   UNL     1       9.405  11.691  20.709  0.00  0.00    +0.000 S 
ENDBRANCH  17  20
ENDBRANCH  15  16
ENDBRANCH  14  15
ENDBRANCH   8  14
BRANCH   9  25
ATOM     25  C   UNL     1       4.594   6.695  17.199  0.00  0.00    +0.000 C 
BRANCH  25  26
ATOM     26  C   UNL     1       3.852   5.751  18.128  0.00  0.00    +0.000 A 
ATOM     27  C   UNL     1       4.481   4.972  19.112  0.00  0.00    +0.000 A 
ATOM     28  C   UNL     1       3.775   3.988  19.807  0.00  0.00    +0.000 A 
ATOM     29  C   UNL     1       2.420   3.759  19.543  0.00  0.00    +0.000 A 
ATOM     30  C   UNL     1       1.757   4.614  18.651  0.00  0.00    +0.000 A 
ATOM     31  C   UNL     1       2.465   5.598  17.954  0.00  0.00    +0.000 A 
BRANCH  29  32
ATOM     32  C   UNL     1       1.702   2.576  20.144  0.00  0.00    +0.000 C 
ATOM     33  F   UNL     1       1.706   1.474  19.340  0.00  0.00    +0.000 F 
ATOM     34  F   UNL     1       2.228   2.176  21.331  0.00  0.00    +0.000 F 
ATOM     35  F   UNL     1       0.387   2.846  20.385  0.00  0.00    +0.000 F 
ENDBRANCH  29  32
ENDBRANCH  25  26
ENDBRANCH   9  25
TORSDOF 9
ENDMDL
MODEL 6
REMARK VINA RESULT:      -8.1      2.559      3.216
REMARK  Name = 
REMARK  9 active torsions:
REMARK  status: ('A' for Active; 'I' for Inactive)
REMARK    1  A    between atoms: C_2  and  O_3
REMARK    2  A    between atoms: C_2  and  C_4
REMARK    3  A    between atoms: C_11  and  C_12
REMARK    4  A    between atoms: C_12  and  C_13
REMARK    5  A    between atoms: C_13  and  N_14
REMARK    6  A    between atoms: C_15  and  C_17
REMARK    7  A    between atoms: N_22  and  C_23
REMARK    8  A    between atoms: C_23  and  C_24
REMARK    9  A    between atoms: C_27  and  C_28
REMARK                            x       y       z     vdW  Elec       q    Type
REMARK                         _______ _______ _______ _____ _____    ______ ____
ROOT
ATOM      1  C   UNL     1       6.334   4.043  13.645  0.00  0.00    +0.000 A 
ATOM      2  C   UNL     1       5.174   3.677  14.340  0.00  0.00    +0.000 A 
ATOM      3  C   UNL     1       4.911   4.163  15.630  0.00  0.00    +0.000 A 
ATOM      4  C   UNL     1       5.857   5.040  16.185  0.00  0.00    +0.000 A 
ATOM      5  C   UNL     1       6.994   5.439  15.495  0.00  0.00    +0.000 A 
ATOM      6  C   UNL     1       7.249   4.942  14.208  0.00  0.00    +0.000 A 
ATOM      7  N   UNL     1       7.729   6.322  16.235  0.00  0.00    +0.000 NA
ATOM      8  C   UNL     1       7.060   6.505  17.358  0.00  0.00    +0.000 A 
ATOM      9  N   UNL     1       5.957   5.679  17.407  0.00  0.00    +0.000 N 
ENDROOT
BRANCH   1  11
ATOM     10  O   UNL     1       7.245   4.018  11.448  0.00  0.00    +0.000 OA
ATOM     11  C   UNL     1       6.536   3.485  12.285  0.00  0.00    +0.000 C 
BRANCH  11  12
ATOM     12  O   UNL     1       5.819   2.366  12.044  0.00  0.00    +0.000 OA
ATOM     13  H   UNL     1       5.647   1.804  12.819  0.00  0.00    +0.000 HD
ENDBRANCH  11  12
ENDBRANCH   1  11
BRANCH   8  14
ATOM     14  C   UNL     1       7.445   7.499  18.409  0.00  0.00    +0.000 C 
BRANCH  14  15
ATOM     15  C   UNL     1       8.336   8.611  17.856  0.00  0.00    +0.000 C 
BRANCH  15  16
ATOM     16  N   UNL     1       8.554   9.702  18.791  0.00  0.00    +0.000 N 
ATOM     17  C   UNL     1       9.417  10.748  18.527  0.00  0.00    +0.000 C 
ATOM     18  O   UNL     1      10.108  10.761  17.509  0.00  0.00    +0.000 OA
ATOM     19  H   UNL     1       7.919   9.810  19.572  0.00  0.00    +0.000 HD
BRANCH  17  20
ATOM     20  C   UNL     1       9.451  11.819  19.514  0.00  0.00    +0.000 A 
ATOM     21  C   UNL     1       9.874  11.713  20.827  0.00  0.00    +0.000 A 
ATOM     22  C   UNL     1       9.794  12.945  21.536  0.00  0.00    +0.000 A 
ATOM     23  C   UNL     1       9.308  13.960  20.743  0.00  0.00    +0.000 A 
ATOM     24  S   UNL     1       8.951  13.422  19.160  0.00  0.00    +0.000 S 
ENDBRANCH  17  20
ENDBRANCH  15  16
ENDBRANCH  14  15
ENDBRANCH   8  14
BRANCH   9  25
ATOM     25  C   UNL     1       5.061   5.486  18.546  0.00  0.00    +0.000 C 
BRANCH  25  26
ATOM     26  C   UNL     1       3.866   6.422  18.566  0.00  0.00    +0.000 A 
ATOM     27  C   UNL     1       3.569   7.328  17.537  0.00  0.00    +0.000 A 
ATOM     28  C   UNL     1       2.570   8.292  17.695  0.00  0.00    +0.000 A 
ATOM     29  C   UNL     1       1.836   8.370  18.884  0.00  0.00    +0.000 A 
ATOM     30  C   UNL     1       2.043   7.393  19.866  0.00  0.00    +0.000 A 
ATOM     31  C   UNL     1       3.045   6.430  19.708  0.00  0.00    +0.000 A 
BRANCH  29  32
ATOM     32  C   UNL     1       0.895   9.522  19.139  0.00  0.00    +0.000 C 
ATOM     33  F   UNL     1       1.518  10.631  19.632  0.00  0.00    +0.000 F 
ATOM     34  F   UNL     1       0.230   9.928  18.025  0.00  0.00    +0.000 F 
ATOM     35  F   UNL     1      -0.063   9.205  20.056  0.00  0.00    +0.000 F 
ENDBRANCH  29  32
ENDBRANCH  25  26
ENDBRANCH   9  25
TORSDOF 9
ENDMDL
MODEL 7
REMARK VINA RESULT:      -8.1      5.831      8.139
REMARK  Name = 
REMARK  9 active torsions:
REMARK  status: ('A' for Active; 'I' for Inactive)
REMARK    1  A    between atoms: C_2  and  O_3
REMARK    2  A    between atoms: C_2  and  C_4
REMARK    3  A    between atoms: C_11  and  C_12
REMARK    4  A    between atoms: C_12  and  C_13
REMARK    5  A    between atoms: C_13  and  N_14
REMARK    6  A    between atoms: C_15  and  C_17
REMARK    7  A    between atoms: N_22  and  C_23
REMARK    8  A    between atoms: C_23  and  C_24
REMARK    9  A    between atoms: C_27  and  C_28
REMARK                            x       y       z     vdW  Elec       q    Type
REMARK                         _______ _______ _______ _____ _____    ______ ____
ROOT
ATOM      1  C   UNL     1       2.845   3.535  20.591  0.00  0.00    +0.000 A 
ATOM      2  C   UNL     1       4.200   3.408  20.260  0.00  0.00    +0.000 A 
ATOM      3  C   UNL     1       4.840   4.344  19.433  0.00  0.00    +0.000 A 
ATOM      4  C   UNL     1       4.064   5.416  18.965  0.00  0.00    +0.000 A 
ATOM      5  C   UNL     1       2.729   5.573  19.312  0.00  0.00    +0.000 A 
ATOM      6  C   UNL     1       2.098   4.629  20.135  0.00  0.00    +0.000 A 
ATOM      7  N   UNL     1       2.212   6.712  18.761  0.00  0.00    +0.000 NA
ATOM      8  C   UNL     1       3.204   7.283  18.102  0.00  0.00    +0.000 A 
ATOM      9  N   UNL     1       4.327   6.485  18.127  0.00  0.00    +0.000 N 
ENDROOT
BRANCH   1  11
ATOM     10  O   UNL     1       1.042   2.399  21.647  0.00  0.00    +0.000 OA
ATOM     11  C   UNL     1       2.244   2.502  21.472  0.00  0.00    +0.000 C 
BRANCH  11  12
ATOM     12  O   UNL     1       3.153   1.728  22.102  0.00  0.00    +0.000 OA
ATOM     13  H   UNL     1       4.064   2.072  22.109  0.00  0.00    +0.000 HD
ENDBRANCH  11  12
ENDBRANCH   1  11
BRANCH   8  14
ATOM     14  C   UNL     1       3.110   8.626  17.448  0.00  0.00    +0.000 C 
BRANCH  14  15
ATOM     15  C   UNL     1       1.723   9.250  17.602  0.00  0.00    +0.000 C 
BRANCH  15  16
ATOM     16  N   UNL     1       1.241   9.269  18.972  0.00  0.00    +0.000 N 
ATOM     17  C   UNL     1       1.027  10.443  19.670  0.00  0.00    +0.000 C 
ATOM     18  O   UNL     1       1.314  11.535  19.181  0.00  0.00    +0.000 OA
ATOM     19  H   UNL     1       0.865   8.418  19.370  0.00  0.00    +0.000 HD
BRANCH  17  20
ATOM     20  C   UNL     1       0.443  10.305  20.998  0.00  0.00    +0.000 A 
ATOM     21  C   UNL     1       0.780   9.357  21.948  0.00  0.00    +0.000 A 
ATOM     22  C   UNL     1       0.033   9.491  23.153  0.00  0.00    +0.000 A 
ATOM     23  C   UNL     1      -0.858  10.539  23.088  0.00  0.00    +0.000 A 
ATOM     24  S   UNL     1      -0.789  11.346  21.582  0.00  0.00    +0.000 S 
ENDBRANCH  17  20
ENDBRANCH  15  16
ENDBRANCH  14  15
ENDBRANCH   8  14
BRANCH   9  25
ATOM     25  C   UNL     1       5.571   6.704  17.391  0.00  0.00    +0.000 C 
BRANCH  25  26
ATOM     26  C   UNL     1       5.793   5.740  16.240  0.00  0.00    +0.000 A 
ATOM     27  C   UNL     1       6.993   5.651  15.518  0.00  0.00    +0.000 A 
ATOM     28  C   UNL     1       7.076   4.883  14.354  0.00  0.00    +0.000 A 
ATOM     29  C   UNL     1       5.963   4.176  13.885  0.00  0.00    +0.000 A 
ATOM     30  C   UNL     1       4.799   4.162  14.666  0.00  0.00    +0.000 A 
ATOM     31  C   UNL     1       4.717   4.933  15.829  0.00  0.00    +0.000 A 
BRANCH  29  32
ATOM     32  C   UNL     1       5.985   3.504  12.534  0.00  0.00    +0.000 C 
ATOM     33  F   UNL     1       4.831   3.673  11.826  0.00  0.00    +0.000 F 
ATOM     34  F   UNL     1       6.987   3.948  11.730  0.00  0.00    +0.000 F 
ATOM     35  F   UNL     1       6.155   2.155  12.638  0.00  0.00    +0.000 F 
ENDBRANCH  29  32
ENDBRANCH  25  26
ENDBRANCH   9  25
TORSDOF 9
ENDMDL
MODEL 8
REMARK VINA RESULT:      -7.8      8.200     10.736
REMARK  Name = 
REMARK  9 active torsions:
REMARK  status: ('A' for Active; 'I' for Inactive)
REMARK    1  A    between atoms: C_2  and  O_3
REMARK    2  A    between atoms: C_2  and  C_4
REMARK    3  A    between atoms: C_11  and  C_12
REMARK    4  A    between atoms: C_12  and  C_13
REMARK    5  A    between atoms: C_13  and  N_14
REMARK    6  A    between atoms: C_15  and  C_17
REMARK    7  A    between atoms: N_22  and  C_23
REMARK    8  A    between atoms: C_23  and  C_24
REMARK    9  A    between atoms: C_27  and  C_28
REMARK                            x       y       z     vdW  Elec       q    Type
REMARK                         _______ _______ _______ _____ _____    ______ ____
ROOT
ATOM      1  C   UNL     1      -3.834  11.110  18.195  0.00  0.00    +0.000 A 
ATOM      2  C   UNL     1      -3.380  12.034  19.144  0.00  0.00    +0.000 A 
ATOM      3  C   UNL     1      -2.037  12.063  19.552  0.00  0.00    +0.000 A 
ATOM      4  C   UNL     1      -1.171  11.132  18.956  0.00  0.00    +0.000 A 
ATOM      5  C   UNL     1      -1.600  10.233  17.989  0.00  0.00    +0.000 A 
ATOM      6  C   UNL     1      -2.945  10.210  17.593  0.00  0.00    +0.000 A 
ATOM      7  N   UNL     1      -0.561   9.466  17.541  0.00  0.00    +0.000 NA
ATOM      8  C   UNL     1       0.511   9.887  18.187  0.00  0.00    +0.000 A 
ATOM      9  N   UNL     1       0.171  10.843  19.121  0.00  0.00    +0.000 N 
ENDROOT
BRANCH   1  11
ATOM     10  O   UNL     1      -6.135  10.562  18.448  0.00  0.00    +0.000 OA
ATOM     11  C   UNL     1      -5.269  11.147  17.819  0.00  0.00    +0.000 C 
BRANCH  11  12
ATOM     12  O   UNL     1      -5.518  11.840  16.687  0.00  0.00    +0.000 OA
ATOM     13  H   UNL     1      -4.798  12.420  16.384  0.00  0.00    +0.000 HD
ENDBRANCH  11  12
ENDBRANCH   1  11
BRANCH   8  14
ATOM     14  C   UNL     1       1.900   9.404  17.908  0.00  0.00    +0.000 C 
BRANCH  14  15
ATOM     15  C   UNL     1       2.081   7.927  18.261  0.00  0.00    +0.000 C 
BRANCH  15  16
ATOM     16  N   UNL     1       3.334   7.365  17.785  0.00  0.00    +0.000 N 
ATOM     17  C   UNL     1       3.630   6.019  17.883  0.00  0.00    +0.000 C 
ATOM     18  O   UNL     1       2.870   5.240  18.456  0.00  0.00    +0.000 OA
ATOM     19  H   UNL     1       3.928   7.929  17.191  0.00  0.00    +0.000 HD
BRANCH  17  20
ATOM     20  C   UNL     1       4.879   5.588  17.267  0.00  0.00    +0.000 A 
ATOM     21  C   UNL     1       5.236   5.745  15.939  0.00  0.00    +0.000 A 
ATOM     22  C   UNL     1       6.530   5.224  15.649  0.00  0.00    +0.000 A 
ATOM     23  C   UNL     1       7.123   4.681  16.766  0.00  0.00    +0.000 A 
ATOM     24  S   UNL     1       6.122   4.799  18.147  0.00  0.00    +0.000 S 
ENDBRANCH  17  20
ENDBRANCH  15  16
ENDBRANCH  14  15
ENDBRANCH   8  14
BRANCH   9  25
ATOM     25  C   UNL     1       1.054  11.435  20.125  0.00  0.00    +0.000 C 
BRANCH  25  26
ATOM     26  C   UNL     1       1.675  12.756  19.709  0.00  0.00    +0.000 A 
ATOM     27  C   UNL     1       1.487  13.959  20.406  0.00  0.00    +0.000 A 
ATOM     28  C   UNL     1       1.926  15.174  19.874  0.00  0.00    +0.000 A 
ATOM     29  C   UNL     1       2.572  15.218  18.634  0.00  0.00    +0.000 A 
ATOM     30  C   UNL     1       2.871  14.009  17.990  0.00  0.00    +0.000 A 
ATOM     31  C   UNL     1       2.429  12.794  18.523  0.00  0.00    +0.000 A 
BRANCH  29  32
ATOM     32  C   UNL     1       2.875  16.535  17.964  0.00  0.00    +0.000 C 
ATOM     33  F   UNL     1       3.237  16.407  16.655  0.00  0.00    +0.000 F 
ATOM     34  F   UNL     1       1.826  17.400  17.981  0.00  0.00    +0.000 F 
ATOM     35  F   UNL     1       3.911  17.187  18.565  0.00  0.00    +0.000 F 
ENDBRANCH  29  32
ENDBRANCH  25  26
ENDBRANCH   9  25
TORSDOF 9
ENDMDL
MODEL 9
REMARK VINA RESULT:      -7.8      1.352      1.642
REMARK  Name = 
REMARK  9 active torsions:
REMARK  status: ('A' for Active; 'I' for Inactive)
REMARK    1  A    between atoms: C_2  and  O_3
REMARK    2  A    between atoms: C_2  and  C_4
REMARK    3  A    between atoms: C_11  and  C_12
REMARK    4  A    between atoms: C_12  and  C_13
REMARK    5  A    between atoms: C_13  and  N_14
REMARK    6  A    between atoms: C_15  and  C_17
REMARK    7  A    between atoms: N_22  and  C_23
REMARK    8  A    between atoms: C_23  and  C_24
REMARK    9  A    between atoms: C_27  and  C_28
REMARK                            x       y       z     vdW  Elec       q    Type
REMARK                         _______ _______ _______ _____ _____    ______ ____
ROOT
ATOM      1  C   UNL     1       6.166   3.766  13.259  0.00  0.00    +0.000 A 
ATOM      2  C   UNL     1       4.873   4.250  13.497  0.00  0.00    +0.000 A 
ATOM      3  C   UNL     1       4.590   5.063  14.606  0.00  0.00    +0.000 A 
ATOM      4  C   UNL     1       5.662   5.376  15.456  0.00  0.00    +0.000 A 
ATOM      5  C   UNL     1       6.955   4.932  15.215  0.00  0.00    +0.000 A 
ATOM      6  C   UNL     1       7.226   4.116  14.106  0.00  0.00    +0.000 A 
ATOM      7  N   UNL     1       7.819   5.405  16.163  0.00  0.00    +0.000 NA
ATOM      8  C   UNL     1       7.097   6.156  16.973  0.00  0.00    +0.000 A 
ATOM      9  N   UNL     1       5.763   6.099  16.631  0.00  0.00    +0.000 N 
ENDROOT
BRANCH   1  11
ATOM     10  O   UNL     1       7.478   2.740  11.561  0.00  0.00    +0.000 OA
ATOM     11  C   UNL     1       6.381   2.914  12.063  0.00  0.00    +0.000 C 
BRANCH  11  12
ATOM     12  O   UNL     1       5.243   2.397  11.552  0.00  0.00    +0.000 OA
ATOM     13  H   UNL     1       4.807   2.938  10.870  0.00  0.00    +0.000 HD
ENDBRANCH  11  12
ENDBRANCH   1  11
BRANCH   8  14
ATOM     14  C   UNL     1       7.671   6.976  18.086  0.00  0.00    +0.000 C 
BRANCH  14  15
ATOM     15  C   UNL     1       7.613   8.475  17.793  0.00  0.00    +0.000 C 
BRANCH  15  16
ATOM     16  N   UNL     1       8.706   9.227  18.383  0.00  0.00    +0.000 N 
ATOM     17  C   UNL     1       8.864  10.586  18.191  0.00  0.00    +0.000 C 
ATOM     18  O   UNL     1       8.121  11.214  17.438  0.00  0.00    +0.000 OA
ATOM     19  H   UNL     1       9.260   8.794  19.112  0.00  0.00    +0.000 HD
BRANCH  17  20
ATOM     20  C   UNL     1       9.947  11.220  18.933  0.00  0.00    +0.000 A 
ATOM     21  C   UNL     1      11.123  11.720  18.401  0.00  0.00    +0.000 A 
ATOM     22  C   UNL     1      11.979  12.287  19.388  0.00  0.00    +0.000 A 
ATOM     23  C   UNL     1      11.433  12.201  20.649  0.00  0.00    +0.000 A 
ATOM     24  S   UNL     1       9.902  11.439  20.634  0.00  0.00    +0.000 S 
ENDBRANCH  17  20
ENDBRANCH  15  16
ENDBRANCH  14  15
ENDBRANCH   8  14
BRANCH   9  25
ATOM     25  C   UNL     1       4.645   6.674  17.376  0.00  0.00    +0.000 C 
BRANCH  25  26
ATOM     26  C   UNL     1       3.813   5.657  18.137  0.00  0.00    +0.000 A 
ATOM     27  C   UNL     1       2.621   5.971  18.807  0.00  0.00    +0.000 A 
ATOM     28  C   UNL     1       2.001   5.039  19.643  0.00  0.00    +0.000 A 
ATOM     29  C   UNL     1       2.552   3.766  19.826  0.00  0.00    +0.000 A 
ATOM     30  C   UNL     1       3.674   3.405  19.067  0.00  0.00    +0.000 A 
ATOM     31  C   UNL     1       4.295   4.340  18.231  0.00  0.00    +0.000 A 
BRANCH  29  32
ATOM     32  C   UNL     1       2.002   2.826  20.871  0.00  0.00    +0.000 C 
ATOM     33  F   UNL     1       0.807   3.231  21.388  0.00  0.00    +0.000 F 
ATOM     34  F   UNL     1       1.802   1.565  20.405  0.00  0.00    +0.000 F 
ATOM     35  F   UNL     1       2.840   2.706  21.940  0.00  0.00    +0.000 F 
ENDBRANCH  29  32
ENDBRANCH  25  26
ENDBRANCH   9  25
TORSDOF 9
ENDMDL
