MODEL 1
REMARK VINA RESULT:      -8.3      0.000      0.000
REMARK  Name = 
REMARK  5 active torsions:
REMARK  status: ('A' for Active; 'I' for Inactive)
REMARK    1  A    between atoms: C_1  and  C_2
REMARK    2  A    between atoms: C_2  and  N_3
REMARK    3  A    between atoms: C_2  and  C_18
REMARK    4  A    between atoms: C_10  and  C_11
REMARK    5  A    between atoms: C_11  and  C_12
REMARK                            x       y       z     vdW  Elec       q    Type
REMARK                         _______ _______ _______ _____ _____    ______ ____
ROOT
ATOM      1  N   UNL     1       4.087   5.891  18.821  0.00  0.00    +0.000 N 
ATOM      2  C   UNL     1       4.721   5.815  17.604  0.00  0.00    +0.000 C 
ATOM      3  O   UNL     1       4.141   5.922  16.528  0.00  0.00    +0.000 OA
ATOM      4  N   UNL     1       6.073   5.537  17.689  0.00  0.00    +0.000 N 
ATOM      5  C   UNL     1       6.825   5.201  18.779  0.00  0.00    +0.000 C 
ATOM      6  O   UNL     1       6.665   5.420  19.962  0.00  0.00    +0.000 OA
ATOM      7  C   UNL     1       7.911   4.587  17.901  0.00  0.00    +0.000 C 
ATOM      8  C   UNL     1       6.905   4.774  16.733  0.00  0.00    +0.000 C 
ATOM      9  H   UNL     1       4.652   5.775  19.655  0.00  0.00    +0.000 HD
ENDROOT
BRANCH   1  11
ATOM     10  C   UNL     1       2.365   7.130  20.048  0.00  0.00    +0.000 C 
ATOM     11  C   UNL     1       2.654   6.071  18.982  0.00  0.00    +0.000 C 
BRANCH  11  12
ATOM     12  C   UNL     1       1.979   4.745  19.306  0.00  0.00    +0.000 A 
ATOM     13  C   UNL     1       1.805   4.358  20.645  0.00  0.00    +0.000 A 
ATOM     14  C   UNL     1       1.194   3.143  20.968  0.00  0.00    +0.000 A 
ATOM     15  C   UNL     1       0.743   2.298  19.959  0.00  0.00    +0.000 A 
ATOM     16  C   UNL     1       0.903   2.664  18.625  0.00  0.00    +0.000 A 
ATOM     17  C   UNL     1       1.515   3.879  18.300  0.00  0.00    +0.000 A 
ENDBRANCH  11  12
ENDBRANCH   1  11
BRANCH   8  18
ATOM     18  C   UNL     1       7.372   5.567  15.518  0.00  0.00    +0.000 C 
BRANCH  18  19
ATOM     19  C   UNL     1       6.944   4.864  14.240  0.00  0.00    +0.000 A 
ATOM     20  C   UNL     1       5.809   4.040  14.202  0.00  0.00    +0.000 A 
ATOM     21  C   UNL     1       5.459   3.365  13.026  0.00  0.00    +0.000 A 
ATOM     22  C   UNL     1       6.228   3.515  11.877  0.00  0.00    +0.000 A 
ATOM     23  C   UNL     1       7.347   4.345  11.894  0.00  0.00    +0.000 A 
ATOM     24  C   UNL     1       7.701   5.016  13.069  0.00  0.00    +0.000 A 
ENDBRANCH  18  19
ENDBRANCH   8  18
TORSDOF 4
ENDMDL
MODEL 2
REMARK VINA RESULT:      -8.3      0.076      1.008
REMARK  Name = 
REMARK  5 active torsions:
REMARK  status: ('A' for Active; 'I' for Inactive)
REMARK    1  A    between atoms: C_1  and  C_2
REMARK    2  A    between atoms: C_2  and  N_3
REMARK    3  A    between atoms: C_2  and  C_18
REMARK    4  A    between atoms: C_10  and  C_11
REMARK    5  A    between atoms: C_11  and  C_12
REMARK                            x       y       z     vdW  Elec       q    Type
REMARK                         _______ _______ _______ _____ _____    ______ ____
ROOT
ATOM      1  N   UNL     1       4.084   5.901  18.761  0.00  0.00    +0.000 N 
ATOM      2  C   UNL     1       4.733   5.817  17.553  0.00  0.00    +0.000 C 
ATOM      3  O   UNL     1       4.167   5.923  16.469  0.00  0.00    +0.000 OA
ATOM      4  N   UNL     1       6.083   5.534  17.655  0.00  0.00    +0.000 N 
ATOM      5  C   UNL     1       6.820   5.198  18.756  0.00  0.00    +0.000 C 
ATOM      6  O   UNL     1       6.646   5.422  19.936  0.00  0.00    +0.000 OA
ATOM      7  C   UNL     1       7.914   4.576  17.894  0.00  0.00    +0.000 C 
ATOM      8  C   UNL     1       6.923   4.764  16.712  0.00  0.00    +0.000 C 
ATOM      9  H   UNL     1       4.638   5.785  19.603  0.00  0.00    +0.000 HD
ENDROOT
BRANCH   1  11
ATOM     10  C   UNL     1       2.353   7.151  19.963  0.00  0.00    +0.000 C 
ATOM     11  C   UNL     1       2.650   6.087  18.905  0.00  0.00    +0.000 C 
BRANCH  11  12
ATOM     12  C   UNL     1       1.965   4.766  19.224  0.00  0.00    +0.000 A 
ATOM     13  C   UNL     1       1.712   4.415  20.561  0.00  0.00    +0.000 A 
ATOM     14  C   UNL     1       1.091   3.205  20.881  0.00  0.00    +0.000 A 
ATOM     15  C   UNL     1       0.708   2.328  19.871  0.00  0.00    +0.000 A 
ATOM     16  C   UNL     1       0.947   2.658  18.538  0.00  0.00    +0.000 A 
ATOM     17  C   UNL     1       1.570   3.868  18.217  0.00  0.00    +0.000 A 
ENDBRANCH  11  12
ENDBRANCH   1  11
BRANCH   8  18
ATOM     18  C   UNL     1       7.409   5.551  15.501  0.00  0.00    +0.000 C 
BRANCH  18  19
ATOM     19  C   UNL     1       7.011   4.834  14.221  0.00  0.00    +0.000 A 
ATOM     20  C   UNL     1       7.729   5.011  13.028  0.00  0.00    +0.000 A 
ATOM     21  C   UNL     1       7.318   4.378  11.849  0.00  0.00    +0.000 A 
ATOM     22  C   UNL     1       6.198   3.553  11.851  0.00  0.00    +0.000 A 
ATOM     23  C   UNL     1       5.486   3.352  13.032  0.00  0.00    +0.000 A 
ATOM     24  C   UNL     1       5.892   3.989  14.209  0.00  0.00    +0.000 A 
ENDBRANCH  18  19
ENDBRANCH   8  18
TORSDOF 4
ENDMDL
MODEL 3
REMARK VINA RESULT:      -8.3      0.073      1.008
REMARK  Name = 
REMARK  5 active torsions:
REMARK  status: ('A' for Active; 'I' for Inactive)
REMARK    1  A    between atoms: C_1  and  C_2
REMARK    2  A    between atoms: C_2  and  N_3
REMARK    3  A    between atoms: C_2  and  C_18
REMARK    4  A    between atoms: C_10  and  C_11
REMARK    5  A    between atoms: C_11  and  C_12
REMARK                            x       y       z     vdW  Elec       q    Type
REMARK                         _______ _______ _______ _____ _____    ______ ____
ROOT
ATOM      1  N   UNL     1       4.114   5.901  18.749  0.00  0.00    +0.000 N 
ATOM      2  C   UNL     1       4.768   5.811  17.544  0.00  0.00    +0.000 C 
ATOM      3  O   UNL     1       4.206   5.912  16.457  0.00  0.00    +0.000 OA
ATOM      4  N   UNL     1       6.116   5.525  17.654  0.00  0.00    +0.000 N 
ATOM      5  C   UNL     1       6.848   5.194  18.759  0.00  0.00    +0.000 C 
ATOM      6  O   UNL     1       6.670   5.424  19.938  0.00  0.00    +0.000 OA
ATOM      7  C   UNL     1       7.945   4.565  17.905  0.00  0.00    +0.000 C 
ATOM      8  C   UNL     1       6.959   4.748  16.719  0.00  0.00    +0.000 C 
ATOM      9  H   UNL     1       4.664   5.790  19.594  0.00  0.00    +0.000 HD
ENDROOT
BRANCH   1  11
ATOM     10  C   UNL     1       2.382   7.209  19.887  0.00  0.00    +0.000 C 
ATOM     11  C   UNL     1       2.680   6.092  18.885  0.00  0.00    +0.000 C 
BRANCH  11  12
ATOM     12  C   UNL     1       1.999   4.787  19.275  0.00  0.00    +0.000 A 
ATOM     13  C   UNL     1       1.537   3.914  18.276  0.00  0.00    +0.000 A 
ATOM     14  C   UNL     1       0.904   2.713  18.608  0.00  0.00    +0.000 A 
ATOM     15  C   UNL     1       0.725   2.363  19.943  0.00  0.00    +0.000 A 
ATOM     16  C   UNL     1       1.178   3.213  20.949  0.00  0.00    +0.000 A 
ATOM     17  C   UNL     1       1.812   4.416  20.618  0.00  0.00    +0.000 A 
ENDBRANCH  11  12
ENDBRANCH   1  11
BRANCH   8  18
ATOM     18  C   UNL     1       7.452   5.528  15.505  0.00  0.00    +0.000 C 
BRANCH  18  19
ATOM     19  C   UNL     1       6.995   4.844  14.226  0.00  0.00    +0.000 A 
ATOM     20  C   UNL     1       5.876   3.998  14.207  0.00  0.00    +0.000 A 
ATOM     21  C   UNL     1       5.499   3.342  13.029  0.00  0.00    +0.000 A 
ATOM     22  C   UNL     1       6.226   3.534  11.857  0.00  0.00    +0.000 A 
ATOM     23  C   UNL     1       7.328   4.386  11.857  0.00  0.00    +0.000 A 
ATOM     24  C   UNL     1       7.709   5.037  13.034  0.00  0.00    +0.000 A 
ENDBRANCH  18  19
ENDBRANCH   8  18
TORSDOF 4
ENDMDL
MODEL 4
REMARK VINA RESULT:      -8.3      0.044      1.422
REMARK  Name = 
REMARK  5 active torsions:
REMARK  status: ('A' for Active; 'I' for Inactive)
REMARK    1  A    between atoms: C_1  and  C_2
REMARK    2  A    between atoms: C_2  and  N_3
REMARK    3  A    between atoms: C_2  and  C_18
REMARK    4  A    between atoms: C_10  and  C_11
REMARK    5  A    between atoms: C_11  and  C_12
REMARK                            x       y       z     vdW  Elec       q    Type
REMARK                         _______ _______ _______ _____ _____    ______ ____
ROOT
ATOM      1  N   UNL     1       4.095   5.907  18.806  0.00  0.00    +0.000 N 
ATOM      2  C   UNL     1       4.735   5.832  17.593  0.00  0.00    +0.000 C 
ATOM      3  O   UNL     1       4.161   5.941  16.514  0.00  0.00    +0.000 OA
ATOM      4  N   UNL     1       6.086   5.552  17.684  0.00  0.00    +0.000 N 
ATOM      5  C   UNL     1       6.832   5.213  18.778  0.00  0.00    +0.000 C 
ATOM      6  O   UNL     1       6.667   5.431  19.961  0.00  0.00    +0.000 OA
ATOM      7  C   UNL     1       7.922   4.599  17.905  0.00  0.00    +0.000 C 
ATOM      8  C   UNL     1       6.922   4.789  16.732  0.00  0.00    +0.000 C 
ATOM      9  H   UNL     1       4.655   5.790  19.644  0.00  0.00    +0.000 HD
ENDROOT
BRANCH   1  11
ATOM     10  C   UNL     1       2.369   7.178  19.994  0.00  0.00    +0.000 C 
ATOM     11  C   UNL     1       2.661   6.089  18.961  0.00  0.00    +0.000 C 
BRANCH  11  12
ATOM     12  C   UNL     1       1.988   4.772  19.323  0.00  0.00    +0.000 A 
ATOM     13  C   UNL     1       1.540   3.914  18.305  0.00  0.00    +0.000 A 
ATOM     14  C   UNL     1       0.914   2.702  18.612  0.00  0.00    +0.000 A 
ATOM     15  C   UNL     1       0.730   2.327  19.939  0.00  0.00    +0.000 A 
ATOM     16  C   UNL     1       1.170   3.162  20.963  0.00  0.00    +0.000 A 
ATOM     17  C   UNL     1       1.796   4.375  20.658  0.00  0.00    +0.000 A 
ENDBRANCH  11  12
ENDBRANCH   1  11
BRANCH   8  18
ATOM     18  C   UNL     1       7.397   5.583  15.520  0.00  0.00    +0.000 C 
BRANCH  18  19
ATOM     19  C   UNL     1       7.011   4.861  14.240  0.00  0.00    +0.000 A 
ATOM     20  C   UNL     1       7.731   5.043  13.049  0.00  0.00    +0.000 A 
ATOM     21  C   UNL     1       7.330   4.405  11.870  0.00  0.00    +0.000 A 
ATOM     22  C   UNL     1       6.217   3.569  11.869  0.00  0.00    +0.000 A 
ATOM     23  C   UNL     1       5.503   3.363  13.048  0.00  0.00    +0.000 A 
ATOM     24  C   UNL     1       5.899   4.005  14.226  0.00  0.00    +0.000 A 
ENDBRANCH  18  19
ENDBRANCH   8  18
TORSDOF 4
ENDMDL
MODEL 5
REMARK VINA RESULT:      -7.3      1.659      2.474
REMARK  Name = 
REMARK  5 active torsions:
REMARK  status: ('A' for Active; 'I' for Inactive)
REMARK    1  A    between atoms: C_1  and  C_2
REMARK    2  A    between atoms: C_2  and  N_3
REMARK    3  A    between atoms: C_2  and  C_18
REMARK    4  A    between atoms: C_10  and  C_11
REMARK    5  A    between atoms: C_11  and  C_12
REMARK                            x       y       z     vdW  Elec       q    Type
REMARK                         _______ _______ _______ _____ _____    ______ ____
ROOT
ATOM      1  N   UNL     1       5.152   3.454  19.617  0.00  0.00    +0.000 N 
ATOM      2  C   UNL     1       5.213   3.840  18.299  0.00  0.00    +0.000 C 
ATOM      3  O   UNL     1       4.556   3.315  17.406  0.00  0.00    +0.000 OA
ATOM      4  N   UNL     1       6.136   4.838  18.046  0.00  0.00    +0.000 N 
ATOM      5  C   UNL     1       7.072   5.388  18.876  0.00  0.00    +0.000 C 
ATOM      6  O   UNL     1       7.121   5.473  20.086  0.00  0.00    +0.000 OA
ATOM      7  C   UNL     1       7.891   5.898  17.694  0.00  0.00    +0.000 C 
ATOM      8  C   UNL     1       6.932   5.048  16.817  0.00  0.00    +0.000 C 
ATOM      9  H   UNL     1       5.746   3.941  20.279  0.00  0.00    +0.000 HD
ENDROOT
BRANCH   1  11
ATOM     10  C   UNL     1       4.691   1.058  19.383  0.00  0.00    +0.000 C 
ATOM     11  C   UNL     1       4.334   2.357  20.107  0.00  0.00    +0.000 C 
BRANCH  11  12
ATOM     12  C   UNL     1       2.854   2.690  19.974  0.00  0.00    +0.000 A 
ATOM     13  C   UNL     1       2.049   1.953  19.090  0.00  0.00    +0.000 A 
ATOM     14  C   UNL     1       0.689   2.242  18.945  0.00  0.00    +0.000 A 
ATOM     15  C   UNL     1       0.112   3.270  19.685  0.00  0.00    +0.000 A 
ATOM     16  C   UNL     1       0.891   4.011  20.570  0.00  0.00    +0.000 A 
ATOM     17  C   UNL     1       2.252   3.722  20.714  0.00  0.00    +0.000 A 
ENDBRANCH  11  12
ENDBRANCH   1  11
BRANCH   8  18
ATOM     18  C   UNL     1       6.190   5.758  15.690  0.00  0.00    +0.000 C 
BRANCH  18  19
ATOM     19  C   UNL     1       6.388   5.007  14.383  0.00  0.00    +0.000 A 
ATOM     20  C   UNL     1       7.483   5.268  13.545  0.00  0.00    +0.000 A 
ATOM     21  C   UNL     1       7.621   4.599  12.324  0.00  0.00    +0.000 A 
ATOM     22  C   UNL     1       6.677   3.653  11.932  0.00  0.00    +0.000 A 
ATOM     23  C   UNL     1       5.595   3.369  12.763  0.00  0.00    +0.000 A 
ATOM     24  C   UNL     1       5.453   4.042  13.980  0.00  0.00    +0.000 A 
ENDBRANCH  18  19
ENDBRANCH   8  18
TORSDOF 4
ENDMDL
MODEL 6
REMARK VINA RESULT:      -7.2      1.190      2.748
REMARK  Name = 
REMARK  5 active torsions:
REMARK  status: ('A' for Active; 'I' for Inactive)
REMARK    1  A    between atoms: C_1  and  C_2
REMARK    2  A    between atoms: C_2  and  N_3
REMARK    3  A    between atoms: C_2  and  C_18
REMARK    4  A    between atoms: C_10  and  C_11
REMARK    5  A    between atoms: C_11  and  C_12
REMARK                            x       y       z     vdW  Elec       q    Type
REMARK                         _______ _______ _______ _____ _____    ______ ____
ROOT
ATOM      1  N   UNL     1       4.112   5.545  19.089  0.00  0.00    +0.000 N 
ATOM      2  C   UNL     1       4.677   5.556  17.837  0.00  0.00    +0.000 C 
ATOM      3  O   UNL     1       4.028   5.639  16.799  0.00  0.00    +0.000 OA
ATOM      4  N   UNL     1       6.051   5.396  17.837  0.00  0.00    +0.000 N 
ATOM      5  C   UNL     1       6.892   5.099  18.872  0.00  0.00    +0.000 C 
ATOM      6  O   UNL     1       6.784   5.273  20.069  0.00  0.00    +0.000 OA
ATOM      7  C   UNL     1       7.974   4.605  17.916  0.00  0.00    +0.000 C 
ATOM      8  C   UNL     1       6.888   4.733  16.813  0.00  0.00    +0.000 C 
ATOM      9  H   UNL     1       4.733   5.458  19.887  0.00  0.00    +0.000 HD
ENDROOT
BRANCH   1  11
ATOM     10  C   UNL     1       1.935   4.705  18.341  0.00  0.00    +0.000 C 
ATOM     11  C   UNL     1       2.681   5.594  19.337  0.00  0.00    +0.000 C 
BRANCH  11  12
ATOM     12  C   UNL     1       2.177   7.031  19.300  0.00  0.00    +0.000 A 
ATOM     13  C   UNL     1       1.660   7.621  20.465  0.00  0.00    +0.000 A 
ATOM     14  C   UNL     1       1.187   8.936  20.454  0.00  0.00    +0.000 A 
ATOM     15  C   UNL     1       1.226   9.683  19.282  0.00  0.00    +0.000 A 
ATOM     16  C   UNL     1       1.738   9.118  18.116  0.00  0.00    +0.000 A 
ATOM     17  C   UNL     1       2.211   7.802  18.125  0.00  0.00    +0.000 A 
ENDBRANCH  11  12
ENDBRANCH   1  11
BRANCH   8  18
ATOM     18  C   UNL     1       7.213   5.595  15.598  0.00  0.00    +0.000 C 
BRANCH  18  19
ATOM     19  C   UNL     1       6.817   4.869  14.323  0.00  0.00    +0.000 A 
ATOM     20  C   UNL     1       5.678   4.052  14.268  0.00  0.00    +0.000 A 
ATOM     21  C   UNL     1       5.358   3.355  13.097  0.00  0.00    +0.000 A 
ATOM     22  C   UNL     1       6.161   3.476  11.967  0.00  0.00    +0.000 A 
ATOM     23  C   UNL     1       7.285   4.299  12.001  0.00  0.00    +0.000 A 
ATOM     24  C   UNL     1       7.609   4.992  13.172  0.00  0.00    +0.000 A 
ENDBRANCH  18  19
ENDBRANCH   8  18
TORSDOF 4
ENDMDL
MODEL 7
REMARK VINA RESULT:      -7.2      1.941      7.227
REMARK  Name = 
REMARK  5 active torsions:
REMARK  status: ('A' for Active; 'I' for Inactive)
REMARK    1  A    between atoms: C_1  and  C_2
REMARK    2  A    between atoms: C_2  and  N_3
REMARK    3  A    between atoms: C_2  and  C_18
REMARK    4  A    between atoms: C_10  and  C_11
REMARK    5  A    between atoms: C_11  and  C_12
REMARK                            x       y       z     vdW  Elec       q    Type
REMARK                         _______ _______ _______ _____ _____    ______ ____
ROOT
ATOM      1  N   UNL     1       6.609   5.110  14.539  0.00  0.00    +0.000 N 
ATOM      2  C   UNL     1       6.032   4.394  15.560  0.00  0.00    +0.000 C 
ATOM      3  O   UNL     1       6.075   3.170  15.641  0.00  0.00    +0.000 OA
ATOM      4  N   UNL     1       5.330   5.169  16.466  0.00  0.00    +0.000 N 
ATOM      5  C   UNL     1       5.023   6.499  16.417  0.00  0.00    +0.000 C 
ATOM      6  O   UNL     1       5.557   7.426  15.843  0.00  0.00    +0.000 OA
ATOM      7  C   UNL     1       3.880   6.322  17.412  0.00  0.00    +0.000 C 
ATOM      8  C   UNL     1       4.123   4.798  17.235  0.00  0.00    +0.000 C 
ATOM      9  H   UNL     1       6.506   6.119  14.553  0.00  0.00    +0.000 HD
ENDROOT
BRANCH   1  11
ATOM     10  C   UNL     1       8.024   5.580  12.594  0.00  0.00    +0.000 C 
ATOM     11  C   UNL     1       7.308   4.507  13.416  0.00  0.00    +0.000 C 
BRANCH  11  12
ATOM     12  C   UNL     1       6.350   3.687  12.564  0.00  0.00    +0.000 A 
ATOM     13  C   UNL     1       6.793   2.497  11.963  0.00  0.00    +0.000 A 
ATOM     14  C   UNL     1       5.934   1.730  11.170  0.00  0.00    +0.000 A 
ATOM     15  C   UNL     1       4.619   2.137  10.970  0.00  0.00    +0.000 A 
ATOM     16  C   UNL     1       4.159   3.312  11.559  0.00  0.00    +0.000 A 
ATOM     17  C   UNL     1       5.017   4.081  12.351  0.00  0.00    +0.000 A 
ENDBRANCH  11  12
ENDBRANCH   1  11
BRANCH   8  18
ATOM     18  C   UNL     1       4.392   3.974  18.489  0.00  0.00    +0.000 C 
BRANCH  18  19
ATOM     19  C   UNL     1       3.080   3.588  19.151  0.00  0.00    +0.000 A 
ATOM     20  C   UNL     1       2.099   2.857  18.464  0.00  0.00    +0.000 A 
ATOM     21  C   UNL     1       0.878   2.551  19.077  0.00  0.00    +0.000 A 
ATOM     22  C   UNL     1       0.629   2.960  20.383  0.00  0.00    +0.000 A 
ATOM     23  C   UNL     1       1.600   3.671  21.085  0.00  0.00    +0.000 A 
ATOM     24  C   UNL     1       2.818   3.982  20.472  0.00  0.00    +0.000 A 
ENDBRANCH  18  19
ENDBRANCH   8  18
TORSDOF 4
ENDMDL
MODEL 8
REMARK VINA RESULT:      -7.2      3.681      7.931
REMARK  Name = 
REMARK  5 active torsions:
REMARK  status: ('A' for Active; 'I' for Inactive)
REMARK    1  A    between atoms: C_1  and  C_2
REMARK    2  A    between atoms: C_2  and  N_3
REMARK    3  A    between atoms: C_2  and  C_18
REMARK    4  A    between atoms: C_10  and  C_11
REMARK    5  A    between atoms: C_11  and  C_12
REMARK                            x       y       z     vdW  Elec       q    Type
REMARK                         _______ _______ _______ _____ _____    ______ ____
ROOT
ATOM      1  N   UNL     1       3.112   6.326  18.344  0.00  0.00    +0.000 N 
ATOM      2  C   UNL     1       2.494   7.550  18.241  0.00  0.00    +0.000 C 
ATOM      3  O   UNL     1       2.666   8.320  17.301  0.00  0.00    +0.000 OA
ATOM      4  N   UNL     1       1.704   7.876  19.328  0.00  0.00    +0.000 N 
ATOM      5  C   UNL     1       1.561   7.232  20.524  0.00  0.00    +0.000 C 
ATOM      6  O   UNL     1       1.732   6.071  20.835  0.00  0.00    +0.000 OA
ATOM      7  C   UNL     1       1.026   8.493  21.195  0.00  0.00    +0.000 C 
ATOM      8  C   UNL     1       1.440   9.220  19.887  0.00  0.00    +0.000 C 
ATOM      9  H   UNL     1       2.916   5.767  19.167  0.00  0.00    +0.000 HD
ENDROOT
BRANCH   1  11
ATOM     10  C   UNL     1       3.856   4.312  17.164  0.00  0.00    +0.000 C 
ATOM     11  C   UNL     1       4.067   5.812  17.377  0.00  0.00    +0.000 C 
BRANCH  11  12
ATOM     12  C   UNL     1       5.492   6.126  17.810  0.00  0.00    +0.000 A 
ATOM     13  C   UNL     1       6.071   5.418  18.876  0.00  0.00    +0.000 A 
ATOM     14  C   UNL     1       7.375   5.692  19.297  0.00  0.00    +0.000 A 
ATOM     15  C   UNL     1       8.124   6.674  18.656  0.00  0.00    +0.000 A 
ATOM     16  C   UNL     1       7.570   7.386  17.594  0.00  0.00    +0.000 A 
ATOM     17  C   UNL     1       6.264   7.114  17.173  0.00  0.00    +0.000 A 
ENDBRANCH  11  12
ENDBRANCH   1  11
BRANCH   8  18
ATOM     18  C   UNL     1       0.370  10.019  19.153  0.00  0.00    +0.000 C 
BRANCH  18  19
ATOM     19  C   UNL     1       0.854  11.439  18.910  0.00  0.00    +0.000 A 
ATOM     20  C   UNL     1       2.113  11.699  18.350  0.00  0.00    +0.000 A 
ATOM     21  C   UNL     1       2.559  13.016  18.179  0.00  0.00    +0.000 A 
ATOM     22  C   UNL     1       1.748  14.083  18.550  0.00  0.00    +0.000 A 
ATOM     23  C   UNL     1       0.486  13.841  19.090  0.00  0.00    +0.000 A 
ATOM     24  C   UNL     1       0.043  12.527  19.268  0.00  0.00    +0.000 A 
ENDBRANCH  18  19
ENDBRANCH   8  18
TORSDOF 4
ENDMDL
MODEL 9
REMARK VINA RESULT:      -7.2      5.259      8.085
REMARK  Name = 
REMARK  5 active torsions:
REMARK  status: ('A' for Active; 'I' for Inactive)
REMARK    1  A    between atoms: C_1  and  C_2
REMARK    2  A    between atoms: C_2  and  N_3
REMARK    3  A    between atoms: C_2  and  C_18
REMARK    4  A    between atoms: C_10  and  C_11
REMARK    5  A    between atoms: C_11  and  C_12
REMARK                            x       y       z     vdW  Elec       q    Type
REMARK                         _______ _______ _______ _____ _____    ______ ____
ROOT
ATOM      1  N   UNL     1       0.079  11.330  19.214  0.00  0.00    +0.000 N 
ATOM      2  C   UNL     1       0.661  10.101  19.012  0.00  0.00    +0.000 C 
ATOM      3  O   UNL     1       0.750   9.564  17.912  0.00  0.00    +0.000 OA
ATOM      4  N   UNL     1       1.083   9.479  20.173  0.00  0.00    +0.000 N 
ATOM      5  C   UNL     1       0.887   9.843  21.475  0.00  0.00    +0.000 C 
ATOM      6  O   UNL     1       0.668  10.924  21.982  0.00  0.00    +0.000 OA
ATOM      7  C   UNL     1       1.159   8.424  21.964  0.00  0.00    +0.000 C 
ATOM      8  C   UNL     1       1.127   8.029  20.462  0.00  0.00    +0.000 C 
ATOM      9  H   UNL     1       0.040  11.683  20.164  0.00  0.00    +0.000 HD
ENDROOT
BRANCH   1  11
ATOM     10  C   UNL     1      -0.380  13.617  18.464  0.00  0.00    +0.000 C 
ATOM     11  C   UNL     1      -0.530  12.125  18.162  0.00  0.00    +0.000 C 
BRANCH  11  12
ATOM     12  C   UNL     1      -1.989  11.732  17.967  0.00  0.00    +0.000 A 
ATOM     13  C   UNL     1      -2.929  12.017  18.971  0.00  0.00    +0.000 A 
ATOM     14  C   UNL     1      -4.272  11.661  18.819  0.00  0.00    +0.000 A 
ATOM     15  C   UNL     1      -4.698  11.019  17.660  0.00  0.00    +0.000 A 
ATOM     16  C   UNL     1      -3.782  10.730  16.651  0.00  0.00    +0.000 A 
ATOM     17  C   UNL     1      -2.437  11.084  16.803  0.00  0.00    +0.000 A 
ENDBRANCH  11  12
ENDBRANCH   1  11
BRANCH   8  18
ATOM     18  C   UNL     1       2.341   7.302  19.896  0.00  0.00    +0.000 C 
BRANCH  18  19
ATOM     19  C   UNL     1       1.973   5.870  19.543  0.00  0.00    +0.000 A 
ATOM     20  C   UNL     1       2.112   5.378  18.237  0.00  0.00    +0.000 A 
ATOM     21  C   UNL     1       1.723   4.070  17.924  0.00  0.00    +0.000 A 
ATOM     22  C   UNL     1       1.206   3.237  18.911  0.00  0.00    +0.000 A 
ATOM     23  C   UNL     1       1.081   3.705  20.217  0.00  0.00    +0.000 A 
ATOM     24  C   UNL     1       1.463   5.014  20.531  0.00  0.00    +0.000 A 
ENDBRANCH  18  19
ENDBRANCH   8  18
TORSDOF 4
ENDMDL
