MODEL 1
REMARK VINA RESULT:      -7.4      0.000      0.000
REMARK  Name = 
REMARK  7 active torsions:
REMARK  status: ('A' for Active; 'I' for Inactive)
REMARK    1  A    between atoms: C_1  and  C_2
REMARK    2  A    between atoms: C_5  and  O_6
REMARK    3  A    between atoms: O_6  and  C_7
REMARK    4  A    between atoms: C_7  and  C_8
REMARK    5  A    between atoms: C_8  and  C_9
REMARK    6  A    between atoms: C_9  and  C_10
REMARK    7  A    between atoms: N_12  and  C_13
REMARK                            x       y       z     vdW  Elec       q    Type
REMARK                         _______ _______ _______ _____ _____    ______ ____
ROOT
ATOM      1  C   UNL     1       1.940   4.537  20.268  0.00  0.00    +0.000 C 
ATOM      2  O   UNL     1       1.092   4.314  19.409  0.00  0.00    +0.000 OA
ATOM      3  N   UNL     1       2.571   5.750  20.502  0.00  0.00    +0.000 N 
ATOM      4  H   UNL     1       3.363   5.759  21.133  0.00  0.00    +0.000 HD
ENDROOT
BRANCH   3   5
ATOM      5  C   UNL     1       2.270   6.975  19.860  0.00  0.00    +0.000 A 
ATOM      6  C   UNL     1       2.658   7.253  18.547  0.00  0.00    +0.000 A 
ATOM      7  C   UNL     1       2.344   8.470  17.944  0.00  0.00    +0.000 A 
ATOM      8  C   UNL     1       1.637   9.430  18.657  0.00  0.00    +0.000 A 
ATOM      9  C   UNL     1       1.219   9.162  19.959  0.00  0.00    +0.000 A 
ATOM     10  C   UNL     1       1.534   7.940  20.564  0.00  0.00    +0.000 A 
ATOM     11  O   UNL     1       0.504  10.064  20.710  0.00  0.00    +0.000 OA
ATOM     12  C   UNL     1      -0.049  11.104  19.893  0.00  0.00    +0.000 C 
ATOM     13  C   UNL     1       0.977  11.633  18.903  0.00  0.00    +0.000 C 
ATOM     14  O   UNL     1       1.383  10.606  17.998  0.00  0.00    +0.000 OA
ENDBRANCH   3   5
BRANCH   1  15
ATOM     15  C   UNL     1       2.438   3.405  21.144  0.00  0.00    +0.000 C 
BRANCH  15  16
ATOM     16  C   UNL     1       2.874   2.219  20.288  0.00  0.00    +0.000 C 
BRANCH  16  17
ATOM     17  C   UNL     1       4.244   2.445  19.653  0.00  0.00    +0.000 C 
BRANCH  17  18
ATOM     18  O   UNL     1       4.050   2.987  18.348  0.00  0.00    +0.000 OA
BRANCH  18  23
ATOM     19  C   UNL     1       7.411   7.465  17.417  0.00  0.00    +0.000 C 
ATOM     20  C   UNL     1       6.512   6.287  17.643  0.00  0.00    +0.000 A 
ATOM     21  C   UNL     1       6.440   5.663  18.894  0.00  0.00    +0.000 A 
ATOM     22  C   UNL     1       5.605   4.560  19.084  0.00  0.00    +0.000 A 
ATOM     23  C   UNL     1       4.821   4.075  18.039  0.00  0.00    +0.000 A 
ATOM     24  C   UNL     1       4.900   4.682  16.785  0.00  0.00    +0.000 A 
ATOM     25  C   UNL     1       5.742   5.782  16.591  0.00  0.00    +0.000 A 
ENDBRANCH  18  23
ENDBRANCH  17  18
ENDBRANCH  16  17
ENDBRANCH  15  16
ENDBRANCH   1  15
TORSDOF 6
ENDMDL
MODEL 2
REMARK VINA RESULT:      -7.3      4.108      7.156
REMARK  Name = 
REMARK  7 active torsions:
REMARK  status: ('A' for Active; 'I' for Inactive)
REMARK    1  A    between atoms: C_1  and  C_2
REMARK    2  A    between atoms: C_5  and  O_6
REMARK    3  A    between atoms: O_6  and  C_7
REMARK    4  A    between atoms: C_7  and  C_8
REMARK    5  A    between atoms: C_8  and  C_9
REMARK    6  A    between atoms: C_9  and  C_10
REMARK    7  A    between atoms: N_12  and  C_13
REMARK                            x       y       z     vdW  Elec       q    Type
REMARK                         _______ _______ _______ _____ _____    ______ ____
ROOT
ATOM      1  C   UNL     1       7.250   5.784  18.493  0.00  0.00    +0.000 C 
ATOM      2  O   UNL     1       7.754   4.671  18.602  0.00  0.00    +0.000 OA
ATOM      3  N   UNL     1       5.906   6.062  18.291  0.00  0.00    +0.000 N 
ATOM      4  H   UNL     1       5.648   7.013  18.061  0.00  0.00    +0.000 HD
ENDROOT
BRANCH   3   5
ATOM      5  C   UNL     1       4.860   5.109  18.280  0.00  0.00    +0.000 A 
ATOM      6  C   UNL     1       4.623   4.261  17.194  0.00  0.00    +0.000 A 
ATOM      7  C   UNL     1       3.583   3.333  17.217  0.00  0.00    +0.000 A 
ATOM      8  C   UNL     1       2.760   3.248  18.332  0.00  0.00    +0.000 A 
ATOM      9  C   UNL     1       2.995   4.067  19.435  0.00  0.00    +0.000 A 
ATOM     10  C   UNL     1       4.040   4.999  19.412  0.00  0.00    +0.000 A 
ATOM     11  O   UNL     1       2.226   4.020  20.572  0.00  0.00    +0.000 OA
ATOM     12  C   UNL     1       1.435   2.824  20.621  0.00  0.00    +0.000 C 
ATOM     13  C   UNL     1       0.771   2.548  19.281  0.00  0.00    +0.000 C 
ATOM     14  O   UNL     1       1.751   2.321  18.268  0.00  0.00    +0.000 OA
ENDBRANCH   3   5
BRANCH   1  15
ATOM     15  C   UNL     1       8.138   7.013  18.506  0.00  0.00    +0.000 C 
BRANCH  15  16
ATOM     16  C   UNL     1       7.574   8.089  17.581  0.00  0.00    +0.000 C 
BRANCH  16  17
ATOM     17  C   UNL     1       8.356   9.397  17.682  0.00  0.00    +0.000 C 
BRANCH  17  18
ATOM     18  O   UNL     1       8.951   9.465  18.977  0.00  0.00    +0.000 OA
BRANCH  18  23
ATOM     19  C   UNL     1      10.741  14.482  20.937  0.00  0.00    +0.000 C 
ATOM     20  C   UNL     1      10.267  13.166  20.398  0.00  0.00    +0.000 A 
ATOM     21  C   UNL     1       9.776  12.171  21.251  0.00  0.00    +0.000 A 
ATOM     22  C   UNL     1       9.349  10.946  20.733  0.00  0.00    +0.000 A 
ATOM     23  C   UNL     1       9.390  10.703  19.361  0.00  0.00    +0.000 A 
ATOM     24  C   UNL     1       9.894  11.684  18.507  0.00  0.00    +0.000 A 
ATOM     25  C   UNL     1      10.329  12.909  19.025  0.00  0.00    +0.000 A 
ENDBRANCH  18  23
ENDBRANCH  17  18
ENDBRANCH  16  17
ENDBRANCH  15  16
ENDBRANCH   1  15
TORSDOF 6
ENDMDL
MODEL 3
REMARK VINA RESULT:      -7.2      2.103      6.120
REMARK  Name = 
REMARK  7 active torsions:
REMARK  status: ('A' for Active; 'I' for Inactive)
REMARK    1  A    between atoms: C_1  and  C_2
REMARK    2  A    between atoms: C_5  and  O_6
REMARK    3  A    between atoms: O_6  and  C_7
REMARK    4  A    between atoms: C_7  and  C_8
REMARK    5  A    between atoms: C_8  and  C_9
REMARK    6  A    between atoms: C_9  and  C_10
REMARK    7  A    between atoms: N_12  and  C_13
REMARK                            x       y       z     vdW  Elec       q    Type
REMARK                         _______ _______ _______ _____ _____    ______ ____
ROOT
ATOM      1  C   UNL     1       3.954   2.912  19.647  0.00  0.00    +0.000 C 
ATOM      2  O   UNL     1       3.965   1.935  18.905  0.00  0.00    +0.000 OA
ATOM      3  N   UNL     1       4.672   4.086  19.469  0.00  0.00    +0.000 N 
ATOM      4  H   UNL     1       4.695   4.748  20.235  0.00  0.00    +0.000 HD
ENDROOT
BRANCH   3   5
ATOM      5  C   UNL     1       5.465   4.405  18.342  0.00  0.00    +0.000 A 
ATOM      6  C   UNL     1       6.667   5.112  18.440  0.00  0.00    +0.000 A 
ATOM      7  C   UNL     1       7.424   5.409  17.308  0.00  0.00    +0.000 A 
ATOM      8  C   UNL     1       6.980   5.004  16.056  0.00  0.00    +0.000 A 
ATOM      9  C   UNL     1       5.797   4.276  15.940  0.00  0.00    +0.000 A 
ATOM     10  C   UNL     1       5.037   3.978  17.076  0.00  0.00    +0.000 A 
ATOM     11  O   UNL     1       5.313   3.834  14.732  0.00  0.00    +0.000 OA
ATOM     12  C   UNL     1       6.321   3.889  13.712  0.00  0.00    +0.000 C 
ATOM     13  C   UNL     1       7.078   5.206  13.754  0.00  0.00    +0.000 C 
ATOM     14  O   UNL     1       7.774   5.350  14.993  0.00  0.00    +0.000 OA
ENDBRANCH   3   5
BRANCH   1  15
ATOM     15  C   UNL     1       3.151   2.870  20.932  0.00  0.00    +0.000 C 
BRANCH  15  16
ATOM     16  C   UNL     1       1.659   2.776  20.627  0.00  0.00    +0.000 C 
BRANCH  16  17
ATOM     17  C   UNL     1       1.066   4.130  20.244  0.00  0.00    +0.000 C 
BRANCH  17  18
ATOM     18  O   UNL     1       1.838   5.151  20.875  0.00  0.00    +0.000 OA
BRANCH  18  23
ATOM     19  C   UNL     1       1.937  10.003  17.932  0.00  0.00    +0.000 C 
ATOM     20  C   UNL     1       1.908   8.734  18.728  0.00  0.00    +0.000 A 
ATOM     21  C   UNL     1       2.352   7.526  18.179  0.00  0.00    +0.000 A 
ATOM     22  C   UNL     1       2.308   6.351  18.931  0.00  0.00    +0.000 A 
ATOM     23  C   UNL     1       1.837   6.366  20.244  0.00  0.00    +0.000 A 
ATOM     24  C   UNL     1       1.378   7.563  20.793  0.00  0.00    +0.000 A 
ATOM     25  C   UNL     1       1.414   8.740  20.036  0.00  0.00    +0.000 A 
ENDBRANCH  18  23
ENDBRANCH  17  18
ENDBRANCH  16  17
ENDBRANCH  15  16
ENDBRANCH   1  15
TORSDOF 6
ENDMDL
MODEL 4
REMARK VINA RESULT:      -7.2      0.997      1.307
REMARK  Name = 
REMARK  7 active torsions:
REMARK  status: ('A' for Active; 'I' for Inactive)
REMARK    1  A    between atoms: C_1  and  C_2
REMARK    2  A    between atoms: C_5  and  O_6
REMARK    3  A    between atoms: O_6  and  C_7
REMARK    4  A    between atoms: C_7  and  C_8
REMARK    5  A    between atoms: C_8  and  C_9
REMARK    6  A    between atoms: C_9  and  C_10
REMARK    7  A    between atoms: N_12  and  C_13
REMARK                            x       y       z     vdW  Elec       q    Type
REMARK                         _______ _______ _______ _____ _____    ______ ____
ROOT
ATOM      1  C   UNL     1       1.653   4.292  20.640  0.00  0.00    +0.000 C 
ATOM      2  O   UNL     1       0.742   4.097  19.842  0.00  0.00    +0.000 OA
ATOM      3  N   UNL     1       2.380   5.464  20.786  0.00  0.00    +0.000 N 
ATOM      4  H   UNL     1       3.206   5.440  21.371  0.00  0.00    +0.000 HD
ENDROOT
BRANCH   3   5
ATOM      5  C   UNL     1       2.128   6.681  20.109  0.00  0.00    +0.000 A 
ATOM      6  C   UNL     1       2.495   6.893  18.778  0.00  0.00    +0.000 A 
ATOM      7  C   UNL     1       2.230   8.105  18.141  0.00  0.00    +0.000 A 
ATOM      8  C   UNL     1       1.597   9.126  18.837  0.00  0.00    +0.000 A 
ATOM      9  C   UNL     1       1.199   8.924  20.158  0.00  0.00    +0.000 A 
ATOM     10  C   UNL     1       1.465   7.708  20.797  0.00  0.00    +0.000 A 
ATOM     11  O   UNL     1       0.555   9.889  20.895  0.00  0.00    +0.000 OA
ATOM     12  C   UNL     1       0.037  10.930  20.056  0.00  0.00    +0.000 C 
ATOM     13  C   UNL     1       1.063  11.368  19.023  0.00  0.00    +0.000 C 
ATOM     14  O   UNL     1       1.388  10.290  18.144  0.00  0.00    +0.000 OA
ENDBRANCH   3   5
BRANCH   1  15
ATOM     15  C   UNL     1       2.120   3.162  21.536  0.00  0.00    +0.000 C 
BRANCH  15  16
ATOM     16  C   UNL     1       3.457   2.611  21.047  0.00  0.00    +0.000 C 
BRANCH  16  17
ATOM     17  C   UNL     1       3.686   2.896  19.564  0.00  0.00    +0.000 C 
BRANCH  17  18
ATOM     18  O   UNL     1       4.687   3.906  19.450  0.00  0.00    +0.000 OA
BRANCH  18  23
ATOM     19  C   UNL     1       7.013   4.863  14.362  0.00  0.00    +0.000 C 
ATOM     20  C   UNL     1       6.378   4.611  15.696  0.00  0.00    +0.000 A 
ATOM     21  C   UNL     1       7.099   4.780  16.883  0.00  0.00    +0.000 A 
ATOM     22  C   UNL     1       6.495   4.531  18.117  0.00  0.00    +0.000 A 
ATOM     23  C   UNL     1       5.163   4.125  18.185  0.00  0.00    +0.000 A 
ATOM     24  C   UNL     1       4.443   3.938  17.005  0.00  0.00    +0.000 A 
ATOM     25  C   UNL     1       5.050   4.181  15.768  0.00  0.00    +0.000 A 
ENDBRANCH  18  23
ENDBRANCH  17  18
ENDBRANCH  16  17
ENDBRANCH  15  16
ENDBRANCH   1  15
TORSDOF 6
ENDMDL
MODEL 5
REMARK VINA RESULT:      -7.2      2.105      6.456
REMARK  Name = 
REMARK  7 active torsions:
REMARK  status: ('A' for Active; 'I' for Inactive)
REMARK    1  A    between atoms: C_1  and  C_2
REMARK    2  A    between atoms: C_5  and  O_6
REMARK    3  A    between atoms: O_6  and  C_7
REMARK    4  A    between atoms: C_7  and  C_8
REMARK    5  A    between atoms: C_8  and  C_9
REMARK    6  A    between atoms: C_9  and  C_10
REMARK    7  A    between atoms: N_12  and  C_13
REMARK                            x       y       z     vdW  Elec       q    Type
REMARK                         _______ _______ _______ _____ _____    ______ ____
ROOT
ATOM      1  C   UNL     1       3.314   2.613  19.063  0.00  0.00    +0.000 C 
ATOM      2  O   UNL     1       3.718   1.532  18.645  0.00  0.00    +0.000 OA
ATOM      3  N   UNL     1       3.835   3.860  18.751  0.00  0.00    +0.000 N 
ATOM      4  H   UNL     1       3.511   4.656  19.286  0.00  0.00    +0.000 HD
ENDROOT
BRANCH   3   5
ATOM      5  C   UNL     1       4.861   4.114  17.809  0.00  0.00    +0.000 A 
ATOM      6  C   UNL     1       6.157   4.474  18.185  0.00  0.00    +0.000 A 
ATOM      7  C   UNL     1       7.145   4.716  17.231  0.00  0.00    +0.000 A 
ATOM      8  C   UNL     1       6.839   4.606  15.881  0.00  0.00    +0.000 A 
ATOM      9  C   UNL     1       5.558   4.223  15.486  0.00  0.00    +0.000 A 
ATOM     10  C   UNL     1       4.568   3.979  16.444  0.00  0.00    +0.000 A 
ATOM     11  O   UNL     1       5.199   4.081  14.167  0.00  0.00    +0.000 OA
ATOM     12  C   UNL     1       6.351   4.013  13.315  0.00  0.00    +0.000 C 
ATOM     13  C   UNL     1       7.372   5.078  13.680  0.00  0.00    +0.000 C 
ATOM     14  O   UNL     1       7.861   4.876  15.007  0.00  0.00    +0.000 OA
ENDBRANCH   3   5
BRANCH   1  15
ATOM     15  C   UNL     1       2.184   2.652  20.072  0.00  0.00    +0.000 C 
BRANCH  15  16
ATOM     16  C   UNL     1       2.403   3.781  21.076  0.00  0.00    +0.000 C 
BRANCH  16  17
ATOM     17  C   UNL     1       1.649   5.049  20.684  0.00  0.00    +0.000 C 
BRANCH  17  18
ATOM     18  O   UNL     1       2.583   5.973  20.127  0.00  0.00    +0.000 OA
BRANCH  18  23
ATOM     19  C   UNL     1       0.658  11.111  18.675  0.00  0.00    +0.000 C 
ATOM     20  C   UNL     1       1.163   9.759  19.080  0.00  0.00    +0.000 A 
ATOM     21  C   UNL     1       1.899   8.966  18.192  0.00  0.00    +0.000 A 
ATOM     22  C   UNL     1       2.352   7.705  18.583  0.00  0.00    +0.000 A 
ATOM     23  C   UNL     1       2.092   7.224  19.866  0.00  0.00    +0.000 A 
ATOM     24  C   UNL     1       1.345   8.001  20.750  0.00  0.00    +0.000 A 
ATOM     25  C   UNL     1       0.884   9.263  20.357  0.00  0.00    +0.000 A 
ENDBRANCH  18  23
ENDBRANCH  17  18
ENDBRANCH  16  17
ENDBRANCH  15  16
ENDBRANCH   1  15
TORSDOF 6
ENDMDL
MODEL 6
REMARK VINA RESULT:      -7.1      4.381      7.563
REMARK  Name = 
REMARK  7 active torsions:
REMARK  status: ('A' for Active; 'I' for Inactive)
REMARK    1  A    between atoms: C_1  and  C_2
REMARK    2  A    between atoms: C_5  and  O_6
REMARK    3  A    between atoms: O_6  and  C_7
REMARK    4  A    between atoms: C_7  and  C_8
REMARK    5  A    between atoms: C_8  and  C_9
REMARK    6  A    between atoms: C_9  and  C_10
REMARK    7  A    between atoms: N_12  and  C_13
REMARK                            x       y       z     vdW  Elec       q    Type
REMARK                         _______ _______ _______ _____ _____    ______ ____
ROOT
ATOM      1  C   UNL     1       6.938   6.347  18.039  0.00  0.00    +0.000 C 
ATOM      2  O   UNL     1       7.599   5.617  18.771  0.00  0.00    +0.000 OA
ATOM      3  N   UNL     1       5.618   6.151  17.659  0.00  0.00    +0.000 N 
ATOM      4  H   UNL     1       5.243   6.741  16.926  0.00  0.00    +0.000 HD
ENDROOT
BRANCH   3   5
ATOM      5  C   UNL     1       4.766   5.127  18.136  0.00  0.00    +0.000 A 
ATOM      6  C   UNL     1       4.596   3.913  17.465  0.00  0.00    +0.000 A 
ATOM      7  C   UNL     1       3.749   2.925  17.964  0.00  0.00    +0.000 A 
ATOM      8  C   UNL     1       3.052   3.146  19.144  0.00  0.00    +0.000 A 
ATOM      9  C   UNL     1       3.227   4.340  19.842  0.00  0.00    +0.000 A 
ATOM     10  C   UNL     1       4.079   5.332  19.341  0.00  0.00    +0.000 A 
ATOM     11  O   UNL     1       2.579   4.612  21.023  0.00  0.00    +0.000 OA
ATOM     12  C   UNL     1       2.026   3.423  21.603  0.00  0.00    +0.000 C 
ATOM     13  C   UNL     1       1.312   2.580  20.559  0.00  0.00    +0.000 C 
ATOM     14  O   UNL     1       2.228   2.131  19.558  0.00  0.00    +0.000 OA
ENDBRANCH   3   5
BRANCH   1  15
ATOM     15  C   UNL     1       7.588   7.559  17.402  0.00  0.00    +0.000 C 
BRANCH  15  16
ATOM     16  C   UNL     1       8.378   8.350  18.441  0.00  0.00    +0.000 C 
BRANCH  16  17
ATOM     17  C   UNL     1       8.477   9.830  18.079  0.00  0.00    +0.000 C 
BRANCH  17  18
ATOM     18  O   UNL     1       9.536  10.408  18.840  0.00  0.00    +0.000 OA
BRANCH  18  23
ATOM     19  C   UNL     1      11.324  15.450  16.945  0.00  0.00    +0.000 C 
ATOM     20  C   UNL     1      10.869  14.109  17.434  0.00  0.00    +0.000 A 
ATOM     21  C   UNL     1       9.588  13.931  17.969  0.00  0.00    +0.000 A 
ATOM     22  C   UNL     1       9.185  12.677  18.430  0.00  0.00    +0.000 A 
ATOM     23  C   UNL     1      10.044  11.582  18.350  0.00  0.00    +0.000 A 
ATOM     24  C   UNL     1      11.328  11.755  17.834  0.00  0.00    +0.000 A 
ATOM     25  C   UNL     1      11.736  13.014  17.378  0.00  0.00    +0.000 A 
ENDBRANCH  18  23
ENDBRANCH  17  18
ENDBRANCH  16  17
ENDBRANCH  15  16
ENDBRANCH   1  15
TORSDOF 6
ENDMDL
MODEL 7
REMARK VINA RESULT:      -7.1      4.081      7.110
REMARK  Name = 
REMARK  7 active torsions:
REMARK  status: ('A' for Active; 'I' for Inactive)
REMARK    1  A    between atoms: C_1  and  C_2
REMARK    2  A    between atoms: C_5  and  O_6
REMARK    3  A    between atoms: O_6  and  C_7
REMARK    4  A    between atoms: C_7  and  C_8
REMARK    5  A    between atoms: C_8  and  C_9
REMARK    6  A    between atoms: C_9  and  C_10
REMARK    7  A    between atoms: N_12  and  C_13
REMARK                            x       y       z     vdW  Elec       q    Type
REMARK                         _______ _______ _______ _____ _____    ______ ____
ROOT
ATOM      1  C   UNL     1       6.042   6.455  17.021  0.00  0.00    +0.000 C 
ATOM      2  O   UNL     1       5.089   7.005  16.478  0.00  0.00    +0.000 OA
ATOM      3  N   UNL     1       5.984   5.353  17.862  0.00  0.00    +0.000 N 
ATOM      4  H   UNL     1       6.823   5.098  18.368  0.00  0.00    +0.000 HD
ENDROOT
BRANCH   3   5
ATOM      5  C   UNL     1       4.822   4.602  18.159  0.00  0.00    +0.000 A 
ATOM      6  C   UNL     1       4.264   3.690  17.260  0.00  0.00    +0.000 A 
ATOM      7  C   UNL     1       3.118   2.965  17.585  0.00  0.00    +0.000 A 
ATOM      8  C   UNL     1       2.511   3.153  18.820  0.00  0.00    +0.000 A 
ATOM      9  C   UNL     1       3.068   4.039  19.741  0.00  0.00    +0.000 A 
ATOM     10  C   UNL     1       4.218   4.766  19.414  0.00  0.00    +0.000 A 
ATOM     11  O   UNL     1       2.524   4.256  20.984  0.00  0.00    +0.000 OA
ATOM     12  C   UNL     1       1.584   3.230  21.331  0.00  0.00    +0.000 C 
ATOM     13  C   UNL     1       0.650   2.922  20.173  0.00  0.00    +0.000 C 
ATOM     14  O   UNL     1       1.380   2.414  19.055  0.00  0.00    +0.000 OA
ENDBRANCH   3   5
BRANCH   1  15
ATOM     15  C   UNL     1       7.436   7.026  16.850  0.00  0.00    +0.000 C 
BRANCH  15  16
ATOM     16  C   UNL     1       7.930   7.632  18.162  0.00  0.00    +0.000 C 
BRANCH  16  17
ATOM     17  C   UNL     1       8.286   9.109  18.011  0.00  0.00    +0.000 C 
BRANCH  17  18
ATOM     18  O   UNL     1       8.798   9.576  19.258  0.00  0.00    +0.000 OA
BRANCH  18  23
ATOM     19  C   UNL     1      12.302  14.040  19.340  0.00  0.00    +0.000 C 
ATOM     20  C   UNL     1      11.373  12.866  19.296  0.00  0.00    +0.000 A 
ATOM     21  C   UNL     1      10.872  12.296  20.472  0.00  0.00    +0.000 A 
ATOM     22  C   UNL     1      10.016  11.195  20.413  0.00  0.00    +0.000 A 
ATOM     23  C   UNL     1       9.635  10.657  19.185  0.00  0.00    +0.000 A 
ATOM     24  C   UNL     1      10.143  11.209  18.009  0.00  0.00    +0.000 A 
ATOM     25  C   UNL     1      11.008  12.308  18.067  0.00  0.00    +0.000 A 
ENDBRANCH  18  23
ENDBRANCH  17  18
ENDBRANCH  16  17
ENDBRANCH  15  16
ENDBRANCH   1  15
TORSDOF 6
ENDMDL
MODEL 8
REMARK VINA RESULT:      -7.0      2.083      6.117
REMARK  Name = 
REMARK  7 active torsions:
REMARK  status: ('A' for Active; 'I' for Inactive)
REMARK    1  A    between atoms: C_1  and  C_2
REMARK    2  A    between atoms: C_5  and  O_6
REMARK    3  A    between atoms: O_6  and  C_7
REMARK    4  A    between atoms: C_7  and  C_8
REMARK    5  A    between atoms: C_8  and  C_9
REMARK    6  A    between atoms: C_9  and  C_10
REMARK    7  A    between atoms: N_12  and  C_13
REMARK                            x       y       z     vdW  Elec       q    Type
REMARK                         _______ _______ _______ _____ _____    ______ ____
ROOT
ATOM      1  C   UNL     1       4.133   2.829  20.218  0.00  0.00    +0.000 C 
ATOM      2  O   UNL     1       4.860   1.845  20.129  0.00  0.00    +0.000 OA
ATOM      3  N   UNL     1       4.236   3.997  19.477  0.00  0.00    +0.000 N 
ATOM      4  H   UNL     1       3.674   4.789  19.760  0.00  0.00    +0.000 HD
ENDROOT
BRANCH   3   5
ATOM      5  C   UNL     1       5.137   4.218  18.408  0.00  0.00    +0.000 A 
ATOM      6  C   UNL     1       6.462   4.614  18.609  0.00  0.00    +0.000 A 
ATOM      7  C   UNL     1       7.324   4.822  17.533  0.00  0.00    +0.000 A 
ATOM      8  C   UNL     1       6.862   4.641  16.235  0.00  0.00    +0.000 A 
ATOM      9  C   UNL     1       5.551   4.222  16.016  0.00  0.00    +0.000 A 
ATOM     10  C   UNL     1       4.687   4.012  17.096  0.00  0.00    +0.000 A 
ATOM     11  O   UNL     1       5.041   4.010  14.757  0.00  0.00    +0.000 OA
ATOM     12  C   UNL     1       6.084   3.916  13.778  0.00  0.00    +0.000 C 
ATOM     13  C   UNL     1       7.120   5.012  13.967  0.00  0.00    +0.000 C 
ATOM     14  O   UNL     1       7.768   4.882  15.234  0.00  0.00    +0.000 OA
ENDBRANCH   3   5
BRANCH   1  15
ATOM     15  C   UNL     1       3.039   2.861  21.267  0.00  0.00    +0.000 C 
BRANCH  15  16
ATOM     16  C   UNL     1       1.663   2.840  20.606  0.00  0.00    +0.000 C 
BRANCH  16  17
ATOM     17  C   UNL     1       1.372   4.135  19.851  0.00  0.00    +0.000 C 
BRANCH  17  18
ATOM     18  O   UNL     1       1.928   5.221  20.591  0.00  0.00    +0.000 OA
BRANCH  18  23
ATOM     19  C   UNL     1       1.559  10.447  18.410  0.00  0.00    +0.000 C 
ATOM     20  C   UNL     1       1.659   9.059  18.965  0.00  0.00    +0.000 A 
ATOM     21  C   UNL     1       1.252   8.773  20.273  0.00  0.00    +0.000 A 
ATOM     22  C   UNL     1       1.362   7.475  20.777  0.00  0.00    +0.000 A 
ATOM     23  C   UNL     1       1.863   6.445  19.982  0.00  0.00    +0.000 A 
ATOM     24  C   UNL     1       2.286   6.727  18.683  0.00  0.00    +0.000 A 
ATOM     25  C   UNL     1       2.183   8.028  18.179  0.00  0.00    +0.000 A 
ENDBRANCH  18  23
ENDBRANCH  17  18
ENDBRANCH  16  17
ENDBRANCH  15  16
ENDBRANCH   1  15
TORSDOF 6
ENDMDL
MODEL 9
REMARK VINA RESULT:      -7.0      2.483      6.686
REMARK  Name = 
REMARK  7 active torsions:
REMARK  status: ('A' for Active; 'I' for Inactive)
REMARK    1  A    between atoms: C_1  and  C_2
REMARK    2  A    between atoms: C_5  and  O_6
REMARK    3  A    between atoms: O_6  and  C_7
REMARK    4  A    between atoms: C_7  and  C_8
REMARK    5  A    between atoms: C_8  and  C_9
REMARK    6  A    between atoms: C_9  and  C_10
REMARK    7  A    between atoms: N_12  and  C_13
REMARK                            x       y       z     vdW  Elec       q    Type
REMARK                         _______ _______ _______ _____ _____    ______ ____
ROOT
ATOM      1  C   UNL     1       3.972   3.397  19.005  0.00  0.00    +0.000 C 
ATOM      2  O   UNL     1       5.035   3.214  19.590  0.00  0.00    +0.000 OA
ATOM      3  N   UNL     1       3.812   3.963  17.748  0.00  0.00    +0.000 N 
ATOM      4  H   UNL     1       2.874   4.200  17.451  0.00  0.00    +0.000 HD
ENDROOT
BRANCH   3   5
ATOM      5  C   UNL     1       4.860   4.335  16.872  0.00  0.00    +0.000 A 
ATOM      6  C   UNL     1       5.944   5.116  17.281  0.00  0.00    +0.000 A 
ATOM      7  C   UNL     1       6.959   5.464  16.392  0.00  0.00    +0.000 A 
ATOM      8  C   UNL     1       6.897   5.034  15.073  0.00  0.00    +0.000 A 
ATOM      9  C   UNL     1       5.837   4.232  14.652  0.00  0.00    +0.000 A 
ATOM     10  C   UNL     1       4.818   3.883  15.545  0.00  0.00    +0.000 A 
ATOM     11  O   UNL     1       5.728   3.763  13.365  0.00  0.00    +0.000 OA
ATOM     12  C   UNL     1       6.968   3.884  12.655  0.00  0.00    +0.000 C 
ATOM     13  C   UNL     1       7.602   5.247  12.881  0.00  0.00    +0.000 C 
ATOM     14  O   UNL     1       7.927   5.432  14.259  0.00  0.00    +0.000 OA
ENDBRANCH   3   5
BRANCH   1  15
ATOM     15  C   UNL     1       2.666   3.053  19.695  0.00  0.00    +0.000 C 
BRANCH  15  16
ATOM     16  C   UNL     1       1.691   4.223  19.606  0.00  0.00    +0.000 C 
BRANCH  16  17
ATOM     17  C   UNL     1       2.111   5.388  20.499  0.00  0.00    +0.000 C 
BRANCH  17  18
ATOM     18  O   UNL     1       2.873   6.303  19.715  0.00  0.00    +0.000 OA
BRANCH  18  23
ATOM     19  C   UNL     1       0.177  11.204  18.753  0.00  0.00    +0.000 C 
ATOM     20  C   UNL     1       0.890   9.907  18.984  0.00  0.00    +0.000 A 
ATOM     21  C   UNL     1       0.900   9.303  20.247  0.00  0.00    +0.000 A 
ATOM     22  C   UNL     1       1.579   8.099  20.447  0.00  0.00    +0.000 A 
ATOM     23  C   UNL     1       2.241   7.474  19.391  0.00  0.00    +0.000 A 
ATOM     24  C   UNL     1       2.249   8.078  18.134  0.00  0.00    +0.000 A 
ATOM     25  C   UNL     1       1.576   9.288  17.934  0.00  0.00    +0.000 A 
ENDBRANCH  18  23
ENDBRANCH  17  18
ENDBRANCH  16  17
ENDBRANCH  15  16
ENDBRANCH   1  15
TORSDOF 6
ENDMDL
