MODEL 1
REMARK VINA RESULT:      -8.5      0.000      0.000
REMARK  Name = 
REMARK  2 active torsions:
REMARK  status: ('A' for Active; 'I' for Inactive)
REMARK    1  A    between atoms: C_2  and  C_3
REMARK    2  A    between atoms: C_4  and  C_5
REMARK                            x       y       z     vdW  Elec       q    Type
REMARK                         _______ _______ _______ _____ _____    ______ ____
ROOT
ATOM      1  O   UNL     1       7.786   6.396  16.056  0.00  0.00    +0.000 OA
ATOM      2  C   UNL     1       7.372   6.516  17.205  0.00  0.00    +0.000 C 
ATOM      3  N   UNL     1       6.419   5.695  17.765  0.00  0.00    +0.000 N 
ATOM      4  C   UNL     1       5.765   5.887  19.078  0.00  0.00    +0.000 C 
ATOM      5  C   UNL     1       4.224   5.862  18.959  0.00  0.00    +0.000 C 
ATOM      6  N   UNL     1       3.851   4.639  18.247  0.00  0.00    +0.000 N 
ATOM      7  C   UNL     1       2.790   3.884  18.682  0.00  0.00    +0.000 A 
ATOM      8  C   UNL     1       2.740   2.517  18.411  0.00  0.00    +0.000 A 
ATOM      9  C   UNL     1       1.711   1.733  18.926  0.00  0.00    +0.000 A 
ATOM     10  C   UNL     1       0.728   2.334  19.692  0.00  0.00    +0.000 A 
ATOM     11  C   UNL     1       0.834   3.695  19.916  0.00  0.00    +0.000 A 
ATOM     12  N   UNL     1       1.841   4.465  19.449  0.00  0.00    +0.000 NA
ATOM     13  C   UNL     1       4.401   4.523  16.894  0.00  0.00    +0.000 C 
ATOM     14  C   UNL     1       5.935   4.539  16.993  0.00  0.00    +0.000 C 
ENDROOT
BRANCH   2  15
ATOM     15  C   UNL     1       7.913   7.583  18.074  0.00  0.00    +0.000 C 
ATOM     16  C   UNL     1       8.046   8.818  17.569  0.00  0.00    +0.000 C 
BRANCH  16  17
ATOM     17  C   UNL     1       8.634   9.948  18.300  0.00  0.00    +0.000 A 
ATOM     18  C   UNL     1       8.653  11.248  17.769  0.00  0.00    +0.000 A 
ATOM     19  C   UNL     1       9.161  12.313  18.515  0.00  0.00    +0.000 A 
ATOM     20  C   UNL     1       9.638  12.084  19.798  0.00  0.00    +0.000 A 
ATOM     21  F   UNL     1      10.113  13.108  20.518  0.00  0.00    +0.000 F 
ATOM     22  C   UNL     1       9.623  10.808  20.349  0.00  0.00    +0.000 A 
ATOM     23  C   UNL     1       9.116   9.740  19.601  0.00  0.00    +0.000 A 
ENDBRANCH  16  17
ENDBRANCH   2  15
TORSDOF 2
ENDMDL
MODEL 2
REMARK VINA RESULT:      -8.5      0.386      1.039
REMARK  Name = 
REMARK  2 active torsions:
REMARK  status: ('A' for Active; 'I' for Inactive)
REMARK    1  A    between atoms: C_2  and  C_3
REMARK    2  A    between atoms: C_4  and  C_5
REMARK                            x       y       z     vdW  Elec       q    Type
REMARK                         _______ _______ _______ _____ _____    ______ ____
ROOT
ATOM      1  O   UNL     1       7.732   6.426  16.065  0.00  0.00    +0.000 OA
ATOM      2  C   UNL     1       7.386   6.510  17.240  0.00  0.00    +0.000 C 
ATOM      3  N   UNL     1       6.430   5.703  17.816  0.00  0.00    +0.000 N 
ATOM      4  C   UNL     1       5.856   5.860  19.170  0.00  0.00    +0.000 C 
ATOM      5  C   UNL     1       4.312   5.905  19.136  0.00  0.00    +0.000 C 
ATOM      6  N   UNL     1       3.847   4.734  18.393  0.00  0.00    +0.000 N 
ATOM      7  C   UNL     1       2.779   4.004  18.852  0.00  0.00    +0.000 A 
ATOM      8  C   UNL     1       2.654   2.654  18.524  0.00  0.00    +0.000 A 
ATOM      9  C   UNL     1       1.621   1.890  19.059  0.00  0.00    +0.000 A 
ATOM     10  C   UNL     1       0.708   2.495  19.905  0.00  0.00    +0.000 A 
ATOM     11  C   UNL     1       0.886   3.838  20.184  0.00  0.00    +0.000 A 
ATOM     12  N   UNL     1       1.899   4.587  19.696  0.00  0.00    +0.000 NA
ATOM     13  C   UNL     1       4.318   4.658  17.007  0.00  0.00    +0.000 C 
ATOM     14  C   UNL     1       5.854   4.606  17.020  0.00  0.00    +0.000 C 
ENDROOT
BRANCH   2  15
ATOM     15  C   UNL     1       8.020   7.511  18.124  0.00  0.00    +0.000 C 
ATOM     16  C   UNL     1       8.130   8.775  17.689  0.00  0.00    +0.000 C 
BRANCH  16  17
ATOM     17  C   UNL     1       8.799   9.847  18.437  0.00  0.00    +0.000 A 
ATOM     18  C   UNL     1       8.957   9.795  19.831  0.00  0.00    +0.000 A 
ATOM     19  C   UNL     1       9.654  10.799  20.506  0.00  0.00    +0.000 A 
ATOM     20  C   UNL     1      10.207  11.849  19.787  0.00  0.00    +0.000 A 
ATOM     21  F   UNL     1      10.887  12.805  20.433  0.00  0.00    +0.000 F 
ATOM     22  C   UNL     1      10.071  11.920  18.406  0.00  0.00    +0.000 A 
ATOM     23  C   UNL     1       9.371  10.916  17.730  0.00  0.00    +0.000 A 
ENDBRANCH  16  17
ENDBRANCH   2  15
TORSDOF 2
ENDMDL
MODEL 3
REMARK VINA RESULT:      -7.7      4.717      6.950
REMARK  Name = 
REMARK  2 active torsions:
REMARK  status: ('A' for Active; 'I' for Inactive)
REMARK    1  A    between atoms: C_2  and  C_3
REMARK    2  A    between atoms: C_4  and  C_5
REMARK                            x       y       z     vdW  Elec       q    Type
REMARK                         _______ _______ _______ _____ _____    ______ ____
ROOT
ATOM      1  O   UNL     1       3.051   4.072  19.708  0.00  0.00    +0.000 OA
ATOM      2  C   UNL     1       3.311   5.079  19.056  0.00  0.00    +0.000 C 
ATOM      3  N   UNL     1       3.803   5.053  17.770  0.00  0.00    +0.000 N 
ATOM      4  C   UNL     1       4.286   6.217  16.996  0.00  0.00    +0.000 C 
ATOM      5  C   UNL     1       5.709   5.985  16.440  0.00  0.00    +0.000 C 
ATOM      6  N   UNL     1       5.705   4.713  15.717  0.00  0.00    +0.000 N 
ATOM      7  C   UNL     1       6.339   4.606  14.504  0.00  0.00    +0.000 A 
ATOM      8  C   UNL     1       5.920   3.658  13.571  0.00  0.00    +0.000 A 
ATOM      9  C   UNL     1       6.503   3.606  12.308  0.00  0.00    +0.000 A 
ATOM     10  C   UNL     1       7.517   4.495  12.000  0.00  0.00    +0.000 A 
ATOM     11  C   UNL     1       7.888   5.405  12.973  0.00  0.00    +0.000 A 
ATOM     12  N   UNL     1       7.314   5.489  14.193  0.00  0.00    +0.000 NA
ATOM     13  C   UNL     1       5.351   3.546  16.529  0.00  0.00    +0.000 C 
ATOM     14  C   UNL     1       3.933   3.755  17.086  0.00  0.00    +0.000 C 
ENDROOT
BRANCH   2  15
ATOM     15  C   UNL     1       3.081   6.416  19.644  0.00  0.00    +0.000 C 
ATOM     16  C   UNL     1       1.822   6.864  19.752  0.00  0.00    +0.000 C 
BRANCH  16  17
ATOM     17  C   UNL     1       1.462   8.197  20.251  0.00  0.00    +0.000 A 
ATOM     18  C   UNL     1       1.326   9.301  19.393  0.00  0.00    +0.000 A 
ATOM     19  C   UNL     1       0.920  10.541  19.889  0.00  0.00    +0.000 A 
ATOM     20  C   UNL     1       0.636  10.678  21.240  0.00  0.00    +0.000 A 
ATOM     21  F   UNL     1       0.235  11.865  21.713  0.00  0.00    +0.000 F 
ATOM     22  C   UNL     1       0.756   9.600  22.108  0.00  0.00    +0.000 A 
ATOM     23  C   UNL     1       1.165   8.358  21.613  0.00  0.00    +0.000 A 
ENDBRANCH  16  17
ENDBRANCH   2  15
TORSDOF 2
ENDMDL
MODEL 4
REMARK VINA RESULT:      -7.6      4.913      7.321
REMARK  Name = 
REMARK  2 active torsions:
REMARK  status: ('A' for Active; 'I' for Inactive)
REMARK    1  A    between atoms: C_2  and  C_3
REMARK    2  A    between atoms: C_4  and  C_5
REMARK                            x       y       z     vdW  Elec       q    Type
REMARK                         _______ _______ _______ _____ _____    ______ ____
ROOT
ATOM      1  O   UNL     1       1.845   5.150  20.845  0.00  0.00    +0.000 OA
ATOM      2  C   UNL     1       2.140   6.052  20.067  0.00  0.00    +0.000 C 
ATOM      3  N   UNL     1       2.755   5.844  18.852  0.00  0.00    +0.000 N 
ATOM      4  C   UNL     1       3.279   6.892  17.949  0.00  0.00    +0.000 C 
ATOM      5  C   UNL     1       4.755   6.635  17.569  0.00  0.00    +0.000 C 
ATOM      6  N   UNL     1       4.854   5.266  17.062  0.00  0.00    +0.000 N 
ATOM      7  C   UNL     1       5.605   4.997  15.945  0.00  0.00    +0.000 A 
ATOM      8  C   UNL     1       5.303   3.897  15.142  0.00  0.00    +0.000 A 
ATOM      9  C   UNL     1       6.007   3.672  13.961  0.00  0.00    +0.000 A 
ATOM     10  C   UNL     1       7.022   4.543  13.608  0.00  0.00    +0.000 A 
ATOM     11  C   UNL     1       7.273   5.609  14.453  0.00  0.00    +0.000 A 
ATOM     12  N   UNL     1       6.582   5.859  15.586  0.00  0.00    +0.000 NA
ATOM     13  C   UNL     1       4.455   4.227  18.015  0.00  0.00    +0.000 C 
ATOM     14  C   UNL     1       2.985   4.462  18.400  0.00  0.00    +0.000 C 
ENDROOT
BRANCH   2  15
ATOM     15  C   UNL     1       1.820   7.454  20.410  0.00  0.00    +0.000 C 
ATOM     16  C   UNL     1       0.758   7.698  21.192  0.00  0.00    +0.000 C 
BRANCH  16  17
ATOM     17  C   UNL     1       0.291   9.043  21.550  0.00  0.00    +0.000 A 
ATOM     18  C   UNL     1      -0.476   9.282  22.702  0.00  0.00    +0.000 A 
ATOM     19  C   UNL     1      -0.852  10.581  23.049  0.00  0.00    +0.000 A 
ATOM     20  C   UNL     1      -0.450  11.645  22.254  0.00  0.00    +0.000 A 
ATOM     21  F   UNL     1      -0.799  12.892  22.595  0.00  0.00    +0.000 F 
ATOM     22  C   UNL     1       0.316  11.436  21.113  0.00  0.00    +0.000 A 
ATOM     23  C   UNL     1       0.690  10.134  20.764  0.00  0.00    +0.000 A 
ENDBRANCH  16  17
ENDBRANCH   2  15
TORSDOF 2
ENDMDL
MODEL 5
REMARK VINA RESULT:      -7.5      4.792      7.225
REMARK  Name = 
REMARK  2 active torsions:
REMARK  status: ('A' for Active; 'I' for Inactive)
REMARK    1  A    between atoms: C_2  and  C_3
REMARK    2  A    between atoms: C_4  and  C_5
REMARK                            x       y       z     vdW  Elec       q    Type
REMARK                         _______ _______ _______ _____ _____    ______ ____
ROOT
ATOM      1  O   UNL     1       2.000   4.847  20.392  0.00  0.00    +0.000 OA
ATOM      2  C   UNL     1       2.340   5.787  19.680  0.00  0.00    +0.000 C 
ATOM      3  N   UNL     1       2.949   5.637  18.453  0.00  0.00    +0.000 N 
ATOM      4  C   UNL     1       3.526   6.720  17.627  0.00  0.00    +0.000 C 
ATOM      5  C   UNL     1       4.990   6.420  17.231  0.00  0.00    +0.000 C 
ATOM      6  N   UNL     1       5.026   5.088  16.628  0.00  0.00    +0.000 N 
ATOM      7  C   UNL     1       5.767   4.863  15.495  0.00  0.00    +0.000 A 
ATOM      8  C   UNL     1       5.417   3.839  14.616  0.00  0.00    +0.000 A 
ATOM      9  C   UNL     1       6.114   3.664  13.423  0.00  0.00    +0.000 A 
ATOM     10  C   UNL     1       7.170   4.509  13.133  0.00  0.00    +0.000 A 
ATOM     11  C   UNL     1       7.469   5.500  14.051  0.00  0.00    +0.000 A 
ATOM     12  N   UNL     1       6.786   5.701  15.199  0.00  0.00    +0.000 NA
ATOM     13  C   UNL     1       4.573   4.004  17.504  0.00  0.00    +0.000 C 
ATOM     14  C   UNL     1       3.115   4.281  17.904  0.00  0.00    +0.000 C 
ENDROOT
BRANCH   2  15
ATOM     15  C   UNL     1       2.085   7.175  20.121  0.00  0.00    +0.000 C 
ATOM     16  C   UNL     1       1.009   7.420  20.883  0.00  0.00    +0.000 C 
BRANCH  16  17
ATOM     17  C   UNL     1       0.604   8.759  21.329  0.00  0.00    +0.000 A 
ATOM     18  C   UNL     1       0.710   9.884  20.495  0.00  0.00    +0.000 A 
ATOM     19  C   UNL     1       0.258  11.133  20.925  0.00  0.00    +0.000 A 
ATOM     20  C   UNL     1      -0.316  11.257  22.182  0.00  0.00    +0.000 A 
ATOM     21  F   UNL     1      -0.762  12.452  22.589  0.00  0.00    +0.000 F 
ATOM     22  C   UNL     1      -0.439  10.158  23.023  0.00  0.00    +0.000 A 
ATOM     23  C   UNL     1       0.017   8.907  22.594  0.00  0.00    +0.000 A 
ENDBRANCH  16  17
ENDBRANCH   2  15
TORSDOF 2
ENDMDL
MODEL 6
REMARK VINA RESULT:      -7.5      5.073      7.076
REMARK  Name = 
REMARK  2 active torsions:
REMARK  status: ('A' for Active; 'I' for Inactive)
REMARK    1  A    between atoms: C_2  and  C_3
REMARK    2  A    between atoms: C_4  and  C_5
REMARK                            x       y       z     vdW  Elec       q    Type
REMARK                         _______ _______ _______ _____ _____    ______ ____
ROOT
ATOM      1  O   UNL     1       4.277   2.889  18.661  0.00  0.00    +0.000 OA
ATOM      2  C   UNL     1       4.528   4.022  18.262  0.00  0.00    +0.000 C 
ATOM      3  N   UNL     1       4.057   5.168  18.864  0.00  0.00    +0.000 N 
ATOM      4  C   UNL     1       4.188   6.545  18.341  0.00  0.00    +0.000 C 
ATOM      5  C   UNL     1       2.821   7.262  18.269  0.00  0.00    +0.000 C 
ATOM      6  N   UNL     1       2.187   7.150  19.583  0.00  0.00    +0.000 N 
ATOM      7  C   UNL     1       1.555   8.235  20.139  0.00  0.00    +0.000 A 
ATOM      8  C   UNL     1       1.436   8.347  21.524  0.00  0.00    +0.000 A 
ATOM      9  C   UNL     1       0.874   9.486  22.093  0.00  0.00    +0.000 A 
ATOM     10  C   UNL     1       0.417  10.495  21.265  0.00  0.00    +0.000 A 
ATOM     11  C   UNL     1       0.560  10.317  19.900  0.00  0.00    +0.000 A 
ATOM     12  N   UNL     1       1.128   9.231  19.332  0.00  0.00    +0.000 NA
ATOM     13  C   UNL     1       1.943   5.777  20.032  0.00  0.00    +0.000 C 
ATOM     14  C   UNL     1       3.294   5.048  20.117  0.00  0.00    +0.000 C 
ENDROOT
BRANCH   2  15
ATOM     15  C   UNL     1       5.395   4.210  17.079  0.00  0.00    +0.000 C 
ATOM     16  C   UNL     1       4.846   4.121  15.859  0.00  0.00    +0.000 C 
BRANCH  16  17
ATOM     17  C   UNL     1       5.605   4.217  14.605  0.00  0.00    +0.000 A 
ATOM     18  C   UNL     1       6.824   4.909  14.526  0.00  0.00    +0.000 A 
ATOM     19  C   UNL     1       7.554   4.929  13.336  0.00  0.00    +0.000 A 
ATOM     20  C   UNL     1       7.075   4.245  12.228  0.00  0.00    +0.000 A 
ATOM     21  F   UNL     1       7.782   4.254  11.091  0.00  0.00    +0.000 F 
ATOM     22  C   UNL     1       5.875   3.546  12.283  0.00  0.00    +0.000 A 
ATOM     23  C   UNL     1       5.142   3.528  13.474  0.00  0.00    +0.000 A 
ENDBRANCH  16  17
ENDBRANCH   2  15
TORSDOF 2
ENDMDL
MODEL 7
REMARK VINA RESULT:      -7.5      5.035      7.021
REMARK  Name = 
REMARK  2 active torsions:
REMARK  status: ('A' for Active; 'I' for Inactive)
REMARK    1  A    between atoms: C_2  and  C_3
REMARK    2  A    between atoms: C_4  and  C_5
REMARK                            x       y       z     vdW  Elec       q    Type
REMARK                         _______ _______ _______ _____ _____    ______ ____
ROOT
ATOM      1  O   UNL     1       4.340   2.926  18.709  0.00  0.00    +0.000 OA
ATOM      2  C   UNL     1       4.576   4.058  18.296  0.00  0.00    +0.000 C 
ATOM      3  N   UNL     1       4.090   5.204  18.884  0.00  0.00    +0.000 N 
ATOM      4  C   UNL     1       4.204   6.577  18.345  0.00  0.00    +0.000 C 
ATOM      5  C   UNL     1       2.827   7.276  18.263  0.00  0.00    +0.000 C 
ATOM      6  N   UNL     1       2.194   7.171  19.578  0.00  0.00    +0.000 N 
ATOM      7  C   UNL     1       1.548   8.254  20.121  0.00  0.00    +0.000 A 
ATOM      8  C   UNL     1       1.427   8.381  21.504  0.00  0.00    +0.000 A 
ATOM      9  C   UNL     1       0.850   9.520  22.060  0.00  0.00    +0.000 A 
ATOM     10  C   UNL     1       0.381  10.513  21.219  0.00  0.00    +0.000 A 
ATOM     11  C   UNL     1       0.527  10.321  19.857  0.00  0.00    +0.000 A 
ATOM     12  N   UNL     1       1.109   9.236  19.302  0.00  0.00    +0.000 NA
ATOM     13  C   UNL     1       1.968   5.801  20.044  0.00  0.00    +0.000 C 
ATOM     14  C   UNL     1       3.328   5.090  20.138  0.00  0.00    +0.000 C 
ENDROOT
BRANCH   2  15
ATOM     15  C   UNL     1       5.441   4.243  17.111  0.00  0.00    +0.000 C 
ATOM     16  C   UNL     1       4.917   4.040  15.894  0.00  0.00    +0.000 C 
BRANCH  16  17
ATOM     17  C   UNL     1       5.682   4.121  14.643  0.00  0.00    +0.000 A 
ATOM     18  C   UNL     1       5.244   3.500  13.462  0.00  0.00    +0.000 A 
ATOM     19  C   UNL     1       5.961   3.648  12.274  0.00  0.00    +0.000 A 
ATOM     20  C   UNL     1       7.109   4.428  12.259  0.00  0.00    +0.000 A 
ATOM     21  F   UNL     1       7.788   4.581  11.116  0.00  0.00    +0.000 F 
ATOM     22  C   UNL     1       7.559   5.059  13.413  0.00  0.00    +0.000 A 
ATOM     23  C   UNL     1       6.842   4.908  14.605  0.00  0.00    +0.000 A 
ENDBRANCH  16  17
ENDBRANCH   2  15
TORSDOF 2
ENDMDL
MODEL 8
REMARK VINA RESULT:      -7.3      6.078      8.285
REMARK  Name = 
REMARK  2 active torsions:
REMARK  status: ('A' for Active; 'I' for Inactive)
REMARK    1  A    between atoms: C_2  and  C_3
REMARK    2  A    between atoms: C_4  and  C_5
REMARK                            x       y       z     vdW  Elec       q    Type
REMARK                         _______ _______ _______ _____ _____    ______ ____
ROOT
ATOM      1  O   UNL     1       1.962   5.738  20.706  0.00  0.00    +0.000 OA
ATOM      2  C   UNL     1       2.114   6.702  19.962  0.00  0.00    +0.000 C 
ATOM      3  N   UNL     1       1.686   7.976  20.262  0.00  0.00    +0.000 N 
ATOM      4  C   UNL     1       1.694   9.138  19.347  0.00  0.00    +0.000 C 
ATOM      5  C   UNL     1       0.303   9.807  19.259  0.00  0.00    +0.000 C 
ATOM      6  N   UNL     1      -0.144  10.090  20.623  0.00  0.00    +0.000 N 
ATOM      7  C   UNL     1      -0.735  11.293  20.920  0.00  0.00    +0.000 A 
ATOM      8  C   UNL     1      -0.671  11.809  22.214  0.00  0.00    +0.000 A 
ATOM      9  C   UNL     1      -1.194  13.068  22.498  0.00  0.00    +0.000 A 
ATOM     10  C   UNL     1      -1.795  13.789  21.482  0.00  0.00    +0.000 A 
ATOM     11  C   UNL     1      -1.830  13.216  20.223  0.00  0.00    +0.000 A 
ATOM     12  N   UNL     1      -1.303  12.009  19.924  0.00  0.00    +0.000 NA
ATOM     13  C   UNL     1      -0.273   8.912  21.484  0.00  0.00    +0.000 C 
ATOM     14  C   UNL     1       1.103   8.235  21.589  0.00  0.00    +0.000 C 
ENDROOT
BRANCH   2  15
ATOM     15  C   UNL     1       2.807   6.530  18.667  0.00  0.00    +0.000 C 
ATOM     16  C   UNL     1       3.669   5.512  18.529  0.00  0.00    +0.000 C 
BRANCH  16  17
ATOM     17  C   UNL     1       4.471   5.271  17.324  0.00  0.00    +0.000 A 
ATOM     18  C   UNL     1       4.884   3.981  16.951  0.00  0.00    +0.000 A 
ATOM     19  C   UNL     1       5.592   3.776  15.766  0.00  0.00    +0.000 A 
ATOM     20  C   UNL     1       5.877   4.856  14.943  0.00  0.00    +0.000 A 
ATOM     21  F   UNL     1       6.544   4.657  13.800  0.00  0.00    +0.000 F 
ATOM     22  C   UNL     1       5.473   6.141  15.285  0.00  0.00    +0.000 A 
ATOM     23  C   UNL     1       4.766   6.347  16.474  0.00  0.00    +0.000 A 
ENDBRANCH  16  17
ENDBRANCH   2  15
TORSDOF 2
ENDMDL
MODEL 9
REMARK VINA RESULT:      -7.3      7.089      9.300
REMARK  Name = 
REMARK  2 active torsions:
REMARK  status: ('A' for Active; 'I' for Inactive)
REMARK    1  A    between atoms: C_2  and  C_3
REMARK    2  A    between atoms: C_4  and  C_5
REMARK                            x       y       z     vdW  Elec       q    Type
REMARK                         _______ _______ _______ _____ _____    ______ ____
ROOT
ATOM      1  O   UNL     1       2.133  10.105  17.619  0.00  0.00    +0.000 OA
ATOM      2  C   UNL     1       1.576   9.489  18.522  0.00  0.00    +0.000 C 
ATOM      3  N   UNL     1       0.453   9.941  19.178  0.00  0.00    +0.000 N 
ATOM      4  C   UNL     1      -0.165   9.328  20.374  0.00  0.00    +0.000 C 
ATOM      5  C   UNL     1      -0.352  10.357  21.513  0.00  0.00    +0.000 C 
ATOM      6  N   UNL     1      -1.064  11.509  20.962  0.00  0.00    +0.000 N 
ATOM      7  C   UNL     1      -2.083  12.095  21.673  0.00  0.00    +0.000 A 
ATOM      8  C   UNL     1      -3.099  12.783  21.011  0.00  0.00    +0.000 A 
ATOM      9  C   UNL     1      -4.178  13.303  21.722  0.00  0.00    +0.000 A 
ATOM     10  C   UNL     1      -4.216  13.144  23.096  0.00  0.00    +0.000 A 
ATOM     11  C   UNL     1      -3.172  12.457  23.690  0.00  0.00    +0.000 A 
ATOM     12  N   UNL     1      -2.133  11.922  23.013  0.00  0.00    +0.000 NA
ATOM     13  C   UNL     1      -0.378  12.188  19.861  0.00  0.00    +0.000 C 
ATOM     14  C   UNL     1      -0.189  11.182  18.714  0.00  0.00    +0.000 C 
ENDROOT
BRANCH   2  15
ATOM     15  C   UNL     1       2.101   8.174  18.948  0.00  0.00    +0.000 C 
ATOM     16  C   UNL     1       2.239   7.207  18.029  0.00  0.00    +0.000 C 
BRANCH  16  17
ATOM     17  C   UNL     1       2.681   5.840  18.332  0.00  0.00    +0.000 A 
ATOM     18  C   UNL     1       2.009   4.714  17.831  0.00  0.00    +0.000 A 
ATOM     19  C   UNL     1       2.490   3.428  18.084  0.00  0.00    +0.000 A 
ATOM     20  C   UNL     1       3.653   3.265  18.824  0.00  0.00    +0.000 A 
ATOM     21  F   UNL     1       4.121   2.033  19.054  0.00  0.00    +0.000 F 
ATOM     22  C   UNL     1       4.341   4.365  19.324  0.00  0.00    +0.000 A 
ATOM     23  C   UNL     1       3.857   5.653  19.073  0.00  0.00    +0.000 A 
ENDBRANCH  16  17
ENDBRANCH   2  15
TORSDOF 2
ENDMDL
