MODEL 1
REMARK VINA RESULT:      -8.3      0.000      0.000
REMARK  Name = 
REMARK  5 active torsions:
REMARK  status: ('A' for Active; 'I' for Inactive)
REMARK    1  A    between atoms: C_1  and  O_2
REMARK    2  A    between atoms: O_2  and  C_3
REMARK    3  A    between atoms: C_12  and  C_13
REMARK    4  A    between atoms: C_16  and  S_17
REMARK    5  A    between atoms: S_17  and  C_18
REMARK                            x       y       z     vdW  Elec       q    Type
REMARK                         _______ _______ _______ _____ _____    ______ ____
ROOT
ATOM      1  C   UNL     1      -0.476  11.427  21.485  0.00  0.00    +0.000 A 
ATOM      2  C   UNL     1      -0.256  10.423  22.436  0.00  0.00    +0.000 A 
ATOM      3  C   UNL     1       0.367   9.218  22.072  0.00  0.00    +0.000 A 
ATOM      4  C   UNL     1       0.781   9.027  20.756  0.00  0.00    +0.000 A 
ATOM      5  C   UNL     1       0.546  10.040  19.789  0.00  0.00    +0.000 A 
ATOM      6  C   UNL     1      -0.100  11.221  20.161  0.00  0.00    +0.000 A 
ATOM      7  C   UNL     1       0.931   9.815  18.331  0.00  0.00    +0.000 C 
ATOM      8  C   UNL     1       2.193   8.949  18.152  0.00  0.00    +0.000 C 
ATOM      9  C   UNL     1       2.170   7.795  19.084  0.00  0.00    +0.000 A 
ATOM     10  C   UNL     1       2.713   6.487  19.051  0.00  0.00    +0.000 A 
ATOM     11  N   UNL     1       2.361   5.810  20.162  0.00  0.00    +0.000 NA
ATOM     12  O   UNL     1       1.615   6.704  20.947  0.00  0.00    +0.000 OA
ATOM     13  C   UNL     1       1.510   7.873  20.277  0.00  0.00    +0.000 A 
ENDROOT
BRANCH  10  14
ATOM     14  C   UNL     1       3.490   5.919  17.951  0.00  0.00    +0.000 A 
ATOM     15  C   UNL     1       3.343   4.559  17.638  0.00  0.00    +0.000 A 
ATOM     16  C   UNL     1       4.254   3.909  16.805  0.00  0.00    +0.000 A 
ATOM     17  C   UNL     1       5.301   4.622  16.224  0.00  0.00    +0.000 A 
ATOM     18  C   UNL     1       5.395   6.002  16.449  0.00  0.00    +0.000 A 
ATOM     19  C   UNL     1       4.491   6.651  17.304  0.00  0.00    +0.000 A 
BRANCH  17  20
ATOM     20  S   UNL     1       6.579   3.721  15.374  0.00  0.00    +0.000 S 
BRANCH  20  21
ATOM     21  C   UNL     1       6.220   4.114  13.661  0.00  0.00    +0.000 C 
ATOM     22  F   UNL     1       4.935   4.469  13.439  0.00  0.00    +0.000 F 
ATOM     23  F   UNL     1       6.996   5.143  13.240  0.00  0.00    +0.000 F 
ATOM     24  F   UNL     1       6.492   3.057  12.858  0.00  0.00    +0.000 F 
ENDBRANCH  20  21
ENDBRANCH  17  20
ENDBRANCH  10  14
BRANCH   1  26
ATOM     25  C   UNL     1      -2.045  13.038  20.757  0.00  0.00    +0.000 C 
ATOM     26  O   UNL     1      -1.082  12.631  21.721  0.00  0.00    +0.000 OA
ENDBRANCH   1  26
TORSDOF 4
ENDMDL
MODEL 2
REMARK VINA RESULT:      -8.2      0.724      1.031
REMARK  Name = 
REMARK  5 active torsions:
REMARK  status: ('A' for Active; 'I' for Inactive)
REMARK    1  A    between atoms: C_1  and  O_2
REMARK    2  A    between atoms: O_2  and  C_3
REMARK    3  A    between atoms: C_12  and  C_13
REMARK    4  A    between atoms: C_16  and  S_17
REMARK    5  A    between atoms: S_17  and  C_18
REMARK                            x       y       z     vdW  Elec       q    Type
REMARK                         _______ _______ _______ _____ _____    ______ ____
ROOT
ATOM      1  C   UNL     1      -0.230  10.974  21.543  0.00  0.00    +0.000 A 
ATOM      2  C   UNL     1       0.073   9.919  22.411  0.00  0.00    +0.000 A 
ATOM      3  C   UNL     1       0.721   8.767  21.937  0.00  0.00    +0.000 A 
ATOM      4  C   UNL     1       1.077   8.679  20.594  0.00  0.00    +0.000 A 
ATOM      5  C   UNL     1       0.758   9.744  19.710  0.00  0.00    +0.000 A 
ATOM      6  C   UNL     1       0.089  10.871  20.191  0.00  0.00    +0.000 A 
ATOM      7  C   UNL     1       1.079   9.632  18.224  0.00  0.00    +0.000 C 
ATOM      8  C   UNL     1       2.361   8.831  17.928  0.00  0.00    +0.000 C 
ATOM      9  C   UNL     1       2.426   7.617  18.779  0.00  0.00    +0.000 A 
ATOM     10  C   UNL     1       3.014   6.337  18.632  0.00  0.00    +0.000 A 
ATOM     11  N   UNL     1       2.742   5.574  19.709  0.00  0.00    +0.000 NA
ATOM     12  O   UNL     1       2.003   6.384  20.587  0.00  0.00    +0.000 OA
ATOM     13  C   UNL     1       1.823   7.590  20.004  0.00  0.00    +0.000 A 
ENDROOT
BRANCH  10  14
ATOM     14  C   UNL     1       3.756   5.875  17.461  0.00  0.00    +0.000 A 
ATOM     15  C   UNL     1       3.883   4.496  17.229  0.00  0.00    +0.000 A 
ATOM     16  C   UNL     1       4.806   4.002  16.307  0.00  0.00    +0.000 A 
ATOM     17  C   UNL     1       5.584   4.883  15.558  0.00  0.00    +0.000 A 
ATOM     18  C   UNL     1       5.392   6.262  15.709  0.00  0.00    +0.000 A 
ATOM     19  C   UNL     1       4.477   6.758  16.652  0.00  0.00    +0.000 A 
BRANCH  17  20
ATOM     20  S   UNL     1       6.917   4.223  14.579  0.00  0.00    +0.000 S 
BRANCH  20  21
ATOM     21  C   UNL     1       6.065   3.769  13.067  0.00  0.00    +0.000 C 
ATOM     22  F   UNL     1       6.557   4.369  11.961  0.00  0.00    +0.000 F 
ATOM     23  F   UNL     1       6.145   2.431  12.864  0.00  0.00    +0.000 F 
ATOM     24  F   UNL     1       4.749   4.081  13.144  0.00  0.00    +0.000 F 
ENDBRANCH  20  21
ENDBRANCH  17  20
ENDBRANCH  10  14
BRANCH   1  26
ATOM     25  C   UNL     1      -2.285  12.065  21.957  0.00  0.00    +0.000 C 
ATOM     26  O   UNL     1      -0.867  12.134  21.888  0.00  0.00    +0.000 OA
ENDBRANCH   1  26
TORSDOF 4
ENDMDL
MODEL 3
REMARK VINA RESULT:      -8.2      1.114      1.638
REMARK  Name = 
REMARK  5 active torsions:
REMARK  status: ('A' for Active; 'I' for Inactive)
REMARK    1  A    between atoms: C_1  and  O_2
REMARK    2  A    between atoms: O_2  and  C_3
REMARK    3  A    between atoms: C_12  and  C_13
REMARK    4  A    between atoms: C_16  and  S_17
REMARK    5  A    between atoms: S_17  and  C_18
REMARK                            x       y       z     vdW  Elec       q    Type
REMARK                         _______ _______ _______ _____ _____    ______ ____
ROOT
ATOM      1  C   UNL     1      -0.467  11.928  20.093  0.00  0.00    +0.000 A 
ATOM      2  C   UNL     1      -0.481  11.214  21.297  0.00  0.00    +0.000 A 
ATOM      3  C   UNL     1       0.074   9.926  21.370  0.00  0.00    +0.000 A 
ATOM      4  C   UNL     1       0.655   9.360  20.238  0.00  0.00    +0.000 A 
ATOM      5  C   UNL     1       0.657  10.080  19.013  0.00  0.00    +0.000 A 
ATOM      6  C   UNL     1       0.076  11.348  18.950  0.00  0.00    +0.000 A 
ATOM      7  C   UNL     1       1.227   9.446  17.750  0.00  0.00    +0.000 C 
ATOM      8  C   UNL     1       2.416   8.502  18.015  0.00  0.00    +0.000 C 
ATOM      9  C   UNL     1       2.152   7.650  19.200  0.00  0.00    +0.000 A 
ATOM     10  C   UNL     1       2.570   6.358  19.602  0.00  0.00    +0.000 A 
ATOM     11  N   UNL     1       2.000   6.029  20.779  0.00  0.00    +0.000 NA
ATOM     12  O   UNL     1       1.235   7.141  21.167  0.00  0.00    +0.000 OA
ATOM     13  C   UNL     1       1.336   8.085  20.206  0.00  0.00    +0.000 A 
ENDROOT
BRANCH  10  14
ATOM     14  C   UNL     1       3.443   5.472  18.833  0.00  0.00    +0.000 A 
ATOM     15  C   UNL     1       4.832   5.543  19.024  0.00  0.00    +0.000 A 
ATOM     16  C   UNL     1       5.714   4.939  18.128  0.00  0.00    +0.000 A 
ATOM     17  C   UNL     1       5.220   4.205  17.050  0.00  0.00    +0.000 A 
ATOM     18  C   UNL     1       3.836   4.043  16.911  0.00  0.00    +0.000 A 
ATOM     19  C   UNL     1       2.949   4.670  17.801  0.00  0.00    +0.000 A 
BRANCH  17  20
ATOM     20  S   UNL     1       6.360   3.661  15.796  0.00  0.00    +0.000 S 
BRANCH  20  21
ATOM     21  C   UNL     1       5.986   4.790  14.453  0.00  0.00    +0.000 C 
ATOM     22  F   UNL     1       7.071   5.170  13.741  0.00  0.00    +0.000 F 
ATOM     23  F   UNL     1       5.118   4.218  13.583  0.00  0.00    +0.000 F 
ATOM     24  F   UNL     1       5.397   5.916  14.922  0.00  0.00    +0.000 F 
ENDBRANCH  20  21
ENDBRANCH  17  20
ENDBRANCH  10  14
BRANCH   1  26
ATOM     25  C   UNL     1      -0.041  14.211  19.654  0.00  0.00    +0.000 C 
ATOM     26  O   UNL     1      -0.987  13.179  19.901  0.00  0.00    +0.000 OA
ENDBRANCH   1  26
TORSDOF 4
ENDMDL
MODEL 4
REMARK VINA RESULT:      -8.2      1.730      2.514
REMARK  Name = 
REMARK  5 active torsions:
REMARK  status: ('A' for Active; 'I' for Inactive)
REMARK    1  A    between atoms: C_1  and  O_2
REMARK    2  A    between atoms: O_2  and  C_3
REMARK    3  A    between atoms: C_12  and  C_13
REMARK    4  A    between atoms: C_16  and  S_17
REMARK    5  A    between atoms: S_17  and  C_18
REMARK                            x       y       z     vdW  Elec       q    Type
REMARK                         _______ _______ _______ _____ _____    ______ ____
ROOT
ATOM      1  C   UNL     1      -1.389  11.826  22.346  0.00  0.00    +0.000 A 
ATOM      2  C   UNL     1      -1.456  12.283  21.025  0.00  0.00    +0.000 A 
ATOM      3  C   UNL     1      -0.681  11.682  20.020  0.00  0.00    +0.000 A 
ATOM      4  C   UNL     1       0.151  10.612  20.339  0.00  0.00    +0.000 A 
ATOM      5  C   UNL     1       0.229  10.155  21.682  0.00  0.00    +0.000 A 
ATOM      6  C   UNL     1      -0.527  10.783  22.675  0.00  0.00    +0.000 A 
ATOM      7  C   UNL     1       1.187   9.031  22.057  0.00  0.00    +0.000 C 
ATOM      8  C   UNL     1       1.374   7.982  20.945  0.00  0.00    +0.000 C 
ATOM      9  C   UNL     1       1.510   8.641  19.623  0.00  0.00    +0.000 A 
ATOM     10  C   UNL     1       2.163   8.304  18.413  0.00  0.00    +0.000 A 
ATOM     11  N   UNL     1       2.002   9.289  17.506  0.00  0.00    +0.000 NA
ATOM     12  O   UNL     1       1.197  10.260  18.123  0.00  0.00    +0.000 OA
ATOM     13  C   UNL     1       0.927   9.853  19.383  0.00  0.00    +0.000 A 
ENDROOT
BRANCH  10  14
ATOM     14  C   UNL     1       2.954   7.096  18.184  0.00  0.00    +0.000 A 
ATOM     15  C   UNL     1       4.327   7.215  17.916  0.00  0.00    +0.000 A 
ATOM     16  C   UNL     1       5.059   6.139  17.414  0.00  0.00    +0.000 A 
ATOM     17  C   UNL     1       4.443   4.904  17.221  0.00  0.00    +0.000 A 
ATOM     18  C   UNL     1       3.098   4.748  17.583  0.00  0.00    +0.000 A 
ATOM     19  C   UNL     1       2.357   5.837  18.069  0.00  0.00    +0.000 A 
BRANCH  17  20
ATOM     20  S   UNL     1       5.334   3.631  16.353  0.00  0.00    +0.000 S 
BRANCH  20  21
ATOM     21  C   UNL     1       5.907   4.516  14.902  0.00  0.00    +0.000 C 
ATOM     22  F   UNL     1       5.114   5.550  14.543  0.00  0.00    +0.000 F 
ATOM     23  F   UNL     1       7.147   5.021  15.116  0.00  0.00    +0.000 F 
ATOM     24  F   UNL     1       5.994   3.685  13.835  0.00  0.00    +0.000 F 
ENDBRANCH  20  21
ENDBRANCH  17  20
ENDBRANCH  10  14
BRANCH   1  26
ATOM     25  C   UNL     1      -3.500  12.344  23.274  0.00  0.00    +0.000 C 
ATOM     26  O   UNL     1      -2.084  12.341  23.406  0.00  0.00    +0.000 OA
ENDBRANCH   1  26
TORSDOF 4
ENDMDL
MODEL 5
REMARK VINA RESULT:      -7.9      0.635      1.017
REMARK  Name = 
REMARK  5 active torsions:
REMARK  status: ('A' for Active; 'I' for Inactive)
REMARK    1  A    between atoms: C_1  and  O_2
REMARK    2  A    between atoms: O_2  and  C_3
REMARK    3  A    between atoms: C_12  and  C_13
REMARK    4  A    between atoms: C_16  and  S_17
REMARK    5  A    between atoms: S_17  and  C_18
REMARK                            x       y       z     vdW  Elec       q    Type
REMARK                         _______ _______ _______ _____ _____    ______ ____
ROOT
ATOM      1  C   UNL     1      -0.976  11.850  21.254  0.00  0.00    +0.000 A 
ATOM      2  C   UNL     1      -0.611  10.999  22.304  0.00  0.00    +0.000 A 
ATOM      3  C   UNL     1       0.086   9.807  22.049  0.00  0.00    +0.000 A 
ATOM      4  C   UNL     1       0.428   9.475  20.740  0.00  0.00    +0.000 A 
ATOM      5  C   UNL     1       0.046  10.332  19.674  0.00  0.00    +0.000 A 
ATOM      6  C   UNL     1      -0.671  11.500  19.942  0.00  0.00    +0.000 A 
ATOM      7  C   UNL     1       0.353   9.947  18.231  0.00  0.00    +0.000 C 
ATOM      8  C   UNL     1       1.668   9.162  18.067  0.00  0.00    +0.000 C 
ATOM      9  C   UNL     1       1.803   8.142  19.136  0.00  0.00    +0.000 A 
ATOM     10  C   UNL     1       2.451   6.886  19.227  0.00  0.00    +0.000 A 
ATOM     11  N   UNL     1       2.230   6.335  20.438  0.00  0.00    +0.000 NA
ATOM     12  O   UNL     1       1.465   7.267  21.158  0.00  0.00    +0.000 OA
ATOM     13  C   UNL     1       1.219   8.326  20.356  0.00  0.00    +0.000 A 
ENDROOT
BRANCH  10  14
ATOM     14  C   UNL     1       3.199   6.238  18.152  0.00  0.00    +0.000 A 
ATOM     15  C   UNL     1       2.883   4.917  17.795  0.00  0.00    +0.000 A 
ATOM     16  C   UNL     1       3.739   4.164  16.990  0.00  0.00    +0.000 A 
ATOM     17  C   UNL     1       4.903   4.737  16.482  0.00  0.00    +0.000 A 
ATOM     18  C   UNL     1       5.174   6.085  16.748  0.00  0.00    +0.000 A 
ATOM     19  C   UNL     1       4.323   6.836  17.576  0.00  0.00    +0.000 A 
BRANCH  17  20
ATOM     20  S   UNL     1       6.088   3.685  15.671  0.00  0.00    +0.000 S 
BRANCH  20  21
ATOM     21  C   UNL     1       5.949   4.228  13.967  0.00  0.00    +0.000 C 
ATOM     22  F   UNL     1       6.755   3.559  13.113  0.00  0.00    +0.000 F 
ATOM     23  F   UNL     1       4.678   4.070  13.524  0.00  0.00    +0.000 F 
ATOM     24  F   UNL     1       6.249   5.545  13.857  0.00  0.00    +0.000 F 
ENDBRANCH  20  21
ENDBRANCH  17  20
ENDBRANCH  10  14
BRANCH   1  26
ATOM     25  C   UNL     1      -1.446  13.985  20.355  0.00  0.00    +0.000 C 
ATOM     26  O   UNL     1      -1.664  13.025  21.382  0.00  0.00    +0.000 OA
ENDBRANCH   1  26
TORSDOF 4
ENDMDL
MODEL 6
REMARK VINA RESULT:      -7.9      2.100      2.529
REMARK  Name = 
REMARK  5 active torsions:
REMARK  status: ('A' for Active; 'I' for Inactive)
REMARK    1  A    between atoms: C_1  and  O_2
REMARK    2  A    between atoms: O_2  and  C_3
REMARK    3  A    between atoms: C_12  and  C_13
REMARK    4  A    between atoms: C_16  and  S_17
REMARK    5  A    between atoms: S_17  and  C_18
REMARK                            x       y       z     vdW  Elec       q    Type
REMARK                         _______ _______ _______ _____ _____    ______ ____
ROOT
ATOM      1  C   UNL     1      -1.983  12.698  20.905  0.00  0.00    +0.000 A 
ATOM      2  C   UNL     1      -1.482  12.116  22.075  0.00  0.00    +0.000 A 
ATOM      3  C   UNL     1      -0.675  10.968  22.014  0.00  0.00    +0.000 A 
ATOM      4  C   UNL     1      -0.359  10.413  20.777  0.00  0.00    +0.000 A 
ATOM      5  C   UNL     1      -0.877  10.997  19.590  0.00  0.00    +0.000 A 
ATOM      6  C   UNL     1      -1.701  12.121  19.669  0.00  0.00    +0.000 A 
ATOM      7  C   UNL     1      -0.597  10.359  18.234  0.00  0.00    +0.000 C 
ATOM      8  C   UNL     1       0.786   9.686  18.142  0.00  0.00    +0.000 C 
ATOM      9  C   UNL     1       1.077   8.920  19.379  0.00  0.00    +0.000 A 
ATOM     10  C   UNL     1       1.857   7.776  19.673  0.00  0.00    +0.000 A 
ATOM     11  N   UNL     1       1.752   7.463  20.980  0.00  0.00    +0.000 NA
ATOM     12  O   UNL     1       0.925   8.443  21.551  0.00  0.00    +0.000 OA
ATOM     13  C   UNL     1       0.532   9.291  20.575  0.00  0.00    +0.000 A 
ENDROOT
BRANCH  10  14
ATOM     14  C   UNL     1       2.622   6.998  18.699  0.00  0.00    +0.000 A 
ATOM     15  C   UNL     1       2.601   5.596  18.773  0.00  0.00    +0.000 A 
ATOM     16  C   UNL     1       3.523   4.824  18.065  0.00  0.00    +0.000 A 
ATOM     17  C   UNL     1       4.451   5.439  17.226  0.00  0.00    +0.000 A 
ATOM     18  C   UNL     1       4.411   6.831  17.067  0.00  0.00    +0.000 A 
ATOM     19  C   UNL     1       3.497   7.608  17.796  0.00  0.00    +0.000 A 
BRANCH  17  20
ATOM     20  S   UNL     1       5.762   4.454  16.536  0.00  0.00    +0.000 S 
BRANCH  20  21
ATOM     21  C   UNL     1       7.177   5.018  17.484  0.00  0.00    +0.000 C 
ATOM     22  F   UNL     1       7.661   6.214  17.083  0.00  0.00    +0.000 F 
ATOM     23  F   UNL     1       6.849   5.139  18.794  0.00  0.00    +0.000 F 
ATOM     24  F   UNL     1       8.193   4.125  17.409  0.00  0.00    +0.000 F 
ENDBRANCH  20  21
ENDBRANCH  17  20
ENDBRANCH  10  14
BRANCH   1  26
ATOM     25  C   UNL     1      -2.142  15.050  21.082  0.00  0.00    +0.000 C 
ATOM     26  O   UNL     1      -2.785  13.804  20.844  0.00  0.00    +0.000 OA
ENDBRANCH   1  26
TORSDOF 4
ENDMDL
MODEL 7
REMARK VINA RESULT:      -7.8      1.098      1.398
REMARK  Name = 
REMARK  5 active torsions:
REMARK  status: ('A' for Active; 'I' for Inactive)
REMARK    1  A    between atoms: C_1  and  O_2
REMARK    2  A    between atoms: O_2  and  C_3
REMARK    3  A    between atoms: C_12  and  C_13
REMARK    4  A    between atoms: C_16  and  S_17
REMARK    5  A    between atoms: S_17  and  C_18
REMARK                            x       y       z     vdW  Elec       q    Type
REMARK                         _______ _______ _______ _____ _____    ______ ____
ROOT
ATOM      1  C   UNL     1      -0.132  11.495  21.078  0.00  0.00    +0.000 A 
ATOM      2  C   UNL     1      -0.233  10.593  22.144  0.00  0.00    +0.000 A 
ATOM      3  C   UNL     1       0.229   9.274  22.010  0.00  0.00    +0.000 A 
ATOM      4  C   UNL     1       0.806   8.864  20.811  0.00  0.00    +0.000 A 
ATOM      5  C   UNL     1       0.897   9.775  19.725  0.00  0.00    +0.000 A 
ATOM      6  C   UNL     1       0.406  11.075  19.865  0.00  0.00    +0.000 A 
ATOM      7  C   UNL     1       1.462   9.320  18.385  0.00  0.00    +0.000 C 
ATOM      8  C   UNL     1       2.574   8.261  18.510  0.00  0.00    +0.000 C 
ATOM      9  C   UNL     1       2.214   7.246  19.530  0.00  0.00    +0.000 A 
ATOM     10  C   UNL     1       2.530   5.878  19.717  0.00  0.00    +0.000 A 
ATOM     11  N   UNL     1       1.902   5.400  20.810  0.00  0.00    +0.000 NA
ATOM     12  O   UNL     1       1.202   6.484  21.364  0.00  0.00    +0.000 OA
ATOM     13  C   UNL     1       1.399   7.565  20.578  0.00  0.00    +0.000 A 
ENDROOT
BRANCH  10  14
ATOM     14  C   UNL     1       3.364   5.071  18.828  0.00  0.00    +0.000 A 
ATOM     15  C   UNL     1       4.759   5.103  18.979  0.00  0.00    +0.000 A 
ATOM     16  C   UNL     1       5.603   4.590  17.993  0.00  0.00    +0.000 A 
ATOM     17  C   UNL     1       5.064   3.985  16.859  0.00  0.00    +0.000 A 
ATOM     18  C   UNL     1       3.674   3.856  16.749  0.00  0.00    +0.000 A 
ATOM     19  C   UNL     1       2.826   4.392  17.732  0.00  0.00    +0.000 A 
BRANCH  17  20
ATOM     20  S   UNL     1       6.154   3.567  15.516  0.00  0.00    +0.000 S 
BRANCH  20  21
ATOM     21  C   UNL     1       6.508   5.183  14.821  0.00  0.00    +0.000 C 
ATOM     22  F   UNL     1       5.416   5.964  14.670  0.00  0.00    +0.000 F 
ATOM     23  F   UNL     1       7.375   5.858  15.615  0.00  0.00    +0.000 F 
ATOM     24  F   UNL     1       7.092   5.066  13.604  0.00  0.00    +0.000 F 
ENDBRANCH  20  21
ENDBRANCH  17  20
ENDBRANCH  10  14
BRANCH   1  26
ATOM     25  C   UNL     1      -1.344  13.198  19.974  0.00  0.00    +0.000 C 
ATOM     26  O   UNL     1      -0.559  12.794  21.089  0.00  0.00    +0.000 OA
ENDBRANCH   1  26
TORSDOF 4
ENDMDL
MODEL 8
REMARK VINA RESULT:      -7.7      3.185      4.643
REMARK  Name = 
REMARK  5 active torsions:
REMARK  status: ('A' for Active; 'I' for Inactive)
REMARK    1  A    between atoms: C_1  and  O_2
REMARK    2  A    between atoms: O_2  and  C_3
REMARK    3  A    between atoms: C_12  and  C_13
REMARK    4  A    between atoms: C_16  and  S_17
REMARK    5  A    between atoms: S_17  and  C_18
REMARK                            x       y       z     vdW  Elec       q    Type
REMARK                         _______ _______ _______ _____ _____    ______ ____
ROOT
ATOM      1  C   UNL     1      -3.419  13.144  22.673  0.00  0.00    +0.000 A 
ATOM      2  C   UNL     1      -3.289  13.595  21.354  0.00  0.00    +0.000 A 
ATOM      3  C   UNL     1      -2.337  13.024  20.494  0.00  0.00    +0.000 A 
ATOM      4  C   UNL     1      -1.525  11.990  20.953  0.00  0.00    +0.000 A 
ATOM      5  C   UNL     1      -1.647  11.541  22.295  0.00  0.00    +0.000 A 
ATOM      6  C   UNL     1      -2.579  12.139  23.147  0.00  0.00    +0.000 A 
ATOM      7  C   UNL     1      -0.717  10.460  22.832  0.00  0.00    +0.000 C 
ATOM      8  C   UNL     1      -0.309   9.416  21.775  0.00  0.00    +0.000 C 
ATOM      9  C   UNL     1       0.013  10.078  20.486  0.00  0.00    +0.000 A 
ATOM     10  C   UNL     1       0.867   9.764  19.401  0.00  0.00    +0.000 A 
ATOM     11  N   UNL     1       0.815  10.739  18.471  0.00  0.00    +0.000 NA
ATOM     12  O   UNL     1      -0.119  11.677  18.940  0.00  0.00    +0.000 OA
ATOM     13  C   UNL     1      -0.573  11.262  20.143  0.00  0.00    +0.000 A 
ENDROOT
BRANCH  10  14
ATOM     14  C   UNL     1       1.734   8.590  19.315  0.00  0.00    +0.000 A 
ATOM     15  C   UNL     1       2.453   8.353  18.133  0.00  0.00    +0.000 A 
ATOM     16  C   UNL     1       3.058   7.119  17.894  0.00  0.00    +0.000 A 
ATOM     17  C   UNL     1       3.002   6.115  18.859  0.00  0.00    +0.000 A 
ATOM     18  C   UNL     1       2.375   6.378  20.084  0.00  0.00    +0.000 A 
ATOM     19  C   UNL     1       1.748   7.613  20.315  0.00  0.00    +0.000 A 
BRANCH  17  20
ATOM     20  S   UNL     1       3.564   4.482  18.425  0.00  0.00    +0.000 S 
BRANCH  20  21
ATOM     21  C   UNL     1       2.049   3.720  17.842  0.00  0.00    +0.000 C 
ATOM     22  F   UNL     1       1.343   3.096  18.812  0.00  0.00    +0.000 F 
ATOM     23  F   UNL     1       1.233   4.652  17.292  0.00  0.00    +0.000 F 
ATOM     24  F   UNL     1       2.311   2.803  16.880  0.00  0.00    +0.000 F 
ENDBRANCH  20  21
ENDBRANCH  17  20
ENDBRANCH  10  14
BRANCH   1  26
ATOM     25  C   UNL     1      -4.658  12.735  24.644  0.00  0.00    +0.000 C 
ATOM     26  O   UNL     1      -4.297  13.632  23.600  0.00  0.00    +0.000 OA
ENDBRANCH   1  26
TORSDOF 4
ENDMDL
MODEL 9
REMARK VINA RESULT:      -7.7      6.075      9.344
REMARK  Name = 
REMARK  5 active torsions:
REMARK  status: ('A' for Active; 'I' for Inactive)
REMARK    1  A    between atoms: C_1  and  O_2
REMARK    2  A    between atoms: O_2  and  C_3
REMARK    3  A    between atoms: C_12  and  C_13
REMARK    4  A    between atoms: C_16  and  S_17
REMARK    5  A    between atoms: S_17  and  C_18
REMARK                            x       y       z     vdW  Elec       q    Type
REMARK                         _______ _______ _______ _____ _____    ______ ____
ROOT
ATOM      1  C   UNL     1       4.427   3.806  19.463  0.00  0.00    +0.000 A 
ATOM      2  C   UNL     1       4.933   4.494  18.353  0.00  0.00    +0.000 A 
ATOM      3  C   UNL     1       4.362   5.709  17.943  0.00  0.00    +0.000 A 
ATOM      4  C   UNL     1       3.290   6.242  18.655  0.00  0.00    +0.000 A 
ATOM      5  C   UNL     1       2.767   5.538  19.773  0.00  0.00    +0.000 A 
ATOM      6  C   UNL     1       3.329   4.316  20.151  0.00  0.00    +0.000 A 
ATOM      7  C   UNL     1       1.551   6.073  20.519  0.00  0.00    +0.000 C 
ATOM      8  C   UNL     1       1.479   7.612  20.559  0.00  0.00    +0.000 C 
ATOM      9  C   UNL     1       1.832   8.185  19.237  0.00  0.00    +0.000 A 
ATOM     10  C   UNL     1       1.480   9.372  18.548  0.00  0.00    +0.000 A 
ATOM     11  N   UNL     1       2.062   9.394  17.332  0.00  0.00    +0.000 NA
ATOM     12  O   UNL     1       2.836   8.226  17.247  0.00  0.00    +0.000 OA
ATOM     13  C   UNL     1       2.673   7.523  18.390  0.00  0.00    +0.000 A 
ENDROOT
BRANCH  10  14
ATOM     14  C   UNL     1       0.569  10.402  19.045  0.00  0.00    +0.000 A 
ATOM     15  C   UNL     1       0.979  11.229  20.102  0.00  0.00    +0.000 A 
ATOM     16  C   UNL     1       0.063  12.020  20.795  0.00  0.00    +0.000 A 
ATOM     17  C   UNL     1      -1.276  12.040  20.408  0.00  0.00    +0.000 A 
ATOM     18  C   UNL     1      -1.675  11.296  19.290  0.00  0.00    +0.000 A 
ATOM     19  C   UNL     1      -0.756  10.484  18.606  0.00  0.00    +0.000 A 
BRANCH  17  20
ATOM     20  S   UNL     1      -2.456  12.859  21.459  0.00  0.00    +0.000 S 
BRANCH  20  21
ATOM     21  C   UNL     1      -2.094  12.123  23.054  0.00  0.00    +0.000 C 
ATOM     22  F   UNL     1      -1.141  12.777  23.754  0.00  0.00    +0.000 F 
ATOM     23  F   UNL     1      -3.208  12.096  23.825  0.00  0.00    +0.000 F 
ATOM     24  F   UNL     1      -1.679  10.841  22.909  0.00  0.00    +0.000 F 
ENDBRANCH  20  21
ENDBRANCH  17  20
ENDBRANCH  10  14
BRANCH   1  26
ATOM     25  C   UNL     1       4.305   1.447  19.382  0.00  0.00    +0.000 C 
ATOM     26  O   UNL     1       4.893   2.614  19.944  0.00  0.00    +0.000 OA
ENDBRANCH   1  26
TORSDOF 4
ENDMDL
