MODEL 1
REMARK VINA RESULT:      -8.3      0.000      0.000
REMARK  Name = 
REMARK  7 active torsions:
REMARK  status: ('A' for Active; 'I' for Inactive)
REMARK    1  A    between atoms: C_2  and  C_3
REMARK    2  A    between atoms: C_3  and  O_4
REMARK    3  A    between atoms: O_4  and  C_5
REMARK    4  A    between atoms: C_10  and  N_11
REMARK    5  A    between atoms: N_14  and  C_15
REMARK    6  A    between atoms: C_18  and  N_19
REMARK    7  A    between atoms: C_20  and  C_22
REMARK                            x       y       z     vdW  Elec       q    Type
REMARK                         _______ _______ _______ _____ _____    ______ ____
ROOT
ATOM      1  C   UNL     1       2.317   7.173  19.130  0.00  0.00    +0.000 A 
ATOM      2  C   UNL     1       1.954   8.334  18.459  0.00  0.00    +0.000 A 
ATOM      3  C   UNL     1       1.168   9.315  19.085  0.00  0.00    +0.000 A 
ATOM      4  C   UNL     1       0.673   9.173  20.389  0.00  0.00    +0.000 A 
ATOM      5  C   UNL     1       1.081   8.035  21.090  0.00  0.00    +0.000 A 
ATOM      6  C   UNL     1       1.881   7.041  20.460  0.00  0.00    +0.000 A 
ENDROOT
BRANCH   1   9
ATOM      7  O   UNL     1       1.356   4.727  17.743  0.00  0.00    +0.000 OA
ATOM      8  C   UNL     1       2.545   4.953  17.963  0.00  0.00    +0.000 C 
ATOM      9  N   UNL     1       3.060   6.120  18.525  0.00  0.00    +0.000 N 
ATOM     10  H   UNL     1       4.064   6.239  18.492  0.00  0.00    +0.000 HD
BRANCH   8  11
ATOM     11  C   UNL     1       3.585   3.831  17.729  0.00  0.00    +0.000 C 
BRANCH  11  12
ATOM     12  O   UNL     1       4.980   4.125  17.827  0.00  0.00    +0.000 OA
BRANCH  12  13
ATOM     13  C   UNL     1       5.604   4.359  16.615  0.00  0.00    +0.000 A 
ATOM     14  C   UNL     1       4.991   4.079  15.383  0.00  0.00    +0.000 A 
ATOM     15  C   UNL     1       5.666   4.244  14.169  0.00  0.00    +0.000 A 
ATOM     16  C   UNL     1       6.969   4.728  14.148  0.00  0.00    +0.000 A 
ATOM     17  C   UNL     1       7.579   5.096  15.343  0.00  0.00    +0.000 A 
ATOM     18  C   UNL     1       6.889   4.924  16.561  0.00  0.00    +0.000 A 
BRANCH  18  19
ATOM     19  N   UNL     1       7.570   5.366  17.765  0.00  0.00    +0.000 N 
ATOM     20  O   UNL     1       8.111   4.502  18.466  0.00  0.00    +0.000 OA
ATOM     21  O   UNL     1       7.625   6.591  17.965  0.00  0.00    +0.000 OA
ENDBRANCH  18  19
ENDBRANCH  12  13
ENDBRANCH  11  12
ENDBRANCH   8  11
ENDBRANCH   1   9
BRANCH   4  22
ATOM     22  N   UNL     1      -0.226  10.134  20.974  0.00  0.00    +0.000 N 
ATOM     23  C   UNL     1       0.236  11.328  21.542  0.00  0.00    +0.000 C 
ATOM     24  O   UNL     1       1.422  11.647  21.466  0.00  0.00    +0.000 OA
ATOM     25  H   UNL     1      -1.222  10.035  20.824  0.00  0.00    +0.000 HD
BRANCH  23  26
ATOM     26  C   UNL     1      -0.653  12.279  22.204  0.00  0.00    +0.000 A 
ATOM     27  C   UNL     1      -1.982  12.437  21.843  0.00  0.00    +0.000 A 
ATOM     28  C   UNL     1      -2.542  13.439  22.643  0.00  0.00    +0.000 A 
ATOM     29  C   UNL     1      -3.821  14.017  22.721  0.00  0.00    +0.000 A 
ATOM     30  C   UNL     1      -4.042  15.037  23.645  0.00  0.00    +0.000 A 
ATOM     31  C   UNL     1      -3.007  15.466  24.477  0.00  0.00    +0.000 A 
ATOM     32  C   UNL     1      -1.722  14.888  24.419  0.00  0.00    +0.000 A 
ATOM     33  C   UNL     1      -1.518  13.869  23.481  0.00  0.00    +0.000 A 
ATOM     34  O   UNL     1      -0.353  13.155  23.223  0.00  0.00    +0.000 OA
ENDBRANCH  23  26
ENDBRANCH   4  22
TORSDOF 7
ENDMDL
MODEL 2
REMARK VINA RESULT:      -8.1      1.685      2.426
REMARK  Name = 
REMARK  7 active torsions:
REMARK  status: ('A' for Active; 'I' for Inactive)
REMARK    1  A    between atoms: C_2  and  C_3
REMARK    2  A    between atoms: C_3  and  O_4
REMARK    3  A    between atoms: O_4  and  C_5
REMARK    4  A    between atoms: C_10  and  N_11
REMARK    5  A    between atoms: N_14  and  C_15
REMARK    6  A    between atoms: C_18  and  N_19
REMARK    7  A    between atoms: C_20  and  C_22
REMARK                            x       y       z     vdW  Elec       q    Type
REMARK                         _______ _______ _______ _____ _____    ______ ____
ROOT
ATOM      1  C   UNL     1       2.187   7.549  19.516  0.00  0.00    +0.000 A 
ATOM      2  C   UNL     1       1.902   8.612  18.670  0.00  0.00    +0.000 A 
ATOM      3  C   UNL     1       1.004   9.621  19.055  0.00  0.00    +0.000 A 
ATOM      4  C   UNL     1       0.320   9.602  20.278  0.00  0.00    +0.000 A 
ATOM      5  C   UNL     1       0.646   8.567  21.158  0.00  0.00    +0.000 A 
ATOM      6  C   UNL     1       1.558   7.545  20.773  0.00  0.00    +0.000 A 
ENDROOT
BRANCH   1   9
ATOM      7  O   UNL     1       1.666   5.239  17.720  0.00  0.00    +0.000 OA
ATOM      8  C   UNL     1       2.703   5.366  18.369  0.00  0.00    +0.000 C 
ATOM      9  N   UNL     1       3.041   6.468  19.154  0.00  0.00    +0.000 N 
ATOM     10  H   UNL     1       3.993   6.513  19.494  0.00  0.00    +0.000 HD
BRANCH   8  11
ATOM     11  C   UNL     1       3.694   4.180  18.455  0.00  0.00    +0.000 C 
BRANCH  11  12
ATOM     12  O   UNL     1       4.790   4.102  17.540  0.00  0.00    +0.000 OA
BRANCH  12  13
ATOM     13  C   UNL     1       5.851   4.935  17.844  0.00  0.00    +0.000 A 
ATOM     14  C   UNL     1       6.508   4.901  19.085  0.00  0.00    +0.000 A 
ATOM     15  C   UNL     1       7.525   5.806  19.406  0.00  0.00    +0.000 A 
ATOM     16  C   UNL     1       7.941   6.755  18.480  0.00  0.00    +0.000 A 
ATOM     17  C   UNL     1       7.372   6.764  17.210  0.00  0.00    +0.000 A 
ATOM     18  C   UNL     1       6.347   5.848  16.898  0.00  0.00    +0.000 A 
BRANCH  18  19
ATOM     19  N   UNL     1       5.826   5.887  15.543  0.00  0.00    +0.000 N 
ATOM     20  O   UNL     1       5.033   6.793  15.261  0.00  0.00    +0.000 OA
ATOM     21  O   UNL     1       6.276   5.050  14.742  0.00  0.00    +0.000 OA
ENDBRANCH  18  19
ENDBRANCH  12  13
ENDBRANCH  11  12
ENDBRANCH   8  11
ENDBRANCH   1   9
BRANCH   4  22
ATOM     22  N   UNL     1      -0.683  10.583  20.608  0.00  0.00    +0.000 N 
ATOM     23  C   UNL     1      -0.703  11.228  21.851  0.00  0.00    +0.000 C 
ATOM     24  O   UNL     1       0.200  11.056  22.669  0.00  0.00    +0.000 OA
ATOM     25  H   UNL     1      -1.281  10.943  19.878  0.00  0.00    +0.000 HD
BRANCH  23  26
ATOM     26  C   UNL     1      -1.753  12.170  22.230  0.00  0.00    +0.000 A 
ATOM     27  C   UNL     1      -1.612  13.067  23.277  0.00  0.00    +0.000 A 
ATOM     28  C   UNL     1      -2.798  13.799  23.398  0.00  0.00    +0.000 A 
ATOM     29  C   UNL     1      -3.226  14.819  24.265  0.00  0.00    +0.000 A 
ATOM     30  C   UNL     1      -4.514  15.330  24.117  0.00  0.00    +0.000 A 
ATOM     31  C   UNL     1      -5.355  14.835  23.120  0.00  0.00    +0.000 A 
ATOM     32  C   UNL     1      -4.936  13.820  22.234  0.00  0.00    +0.000 A 
ATOM     33  C   UNL     1      -3.641  13.316  22.402  0.00  0.00    +0.000 A 
ATOM     34  O   UNL     1      -3.004  12.319  21.672  0.00  0.00    +0.000 OA
ENDBRANCH  23  26
ENDBRANCH   4  22
TORSDOF 7
ENDMDL
MODEL 3
REMARK VINA RESULT:      -8.0      1.638      2.282
REMARK  Name = 
REMARK  7 active torsions:
REMARK  status: ('A' for Active; 'I' for Inactive)
REMARK    1  A    between atoms: C_2  and  C_3
REMARK    2  A    between atoms: C_3  and  O_4
REMARK    3  A    between atoms: O_4  and  C_5
REMARK    4  A    between atoms: C_10  and  N_11
REMARK    5  A    between atoms: N_14  and  C_15
REMARK    6  A    between atoms: C_18  and  N_19
REMARK    7  A    between atoms: C_20  and  C_22
REMARK                            x       y       z     vdW  Elec       q    Type
REMARK                         _______ _______ _______ _____ _____    ______ ____
ROOT
ATOM      1  C   UNL     1       2.497   7.388  18.794  0.00  0.00    +0.000 A 
ATOM      2  C   UNL     1       2.106   8.411  17.940  0.00  0.00    +0.000 A 
ATOM      3  C   UNL     1       1.274   9.450  18.391  0.00  0.00    +0.000 A 
ATOM      4  C   UNL     1       0.761   9.500  19.695  0.00  0.00    +0.000 A 
ATOM      5  C   UNL     1       1.197   8.506  20.574  0.00  0.00    +0.000 A 
ATOM      6  C   UNL     1       2.043   7.455  20.122  0.00  0.00    +0.000 A 
ENDROOT
BRANCH   1   9
ATOM      7  O   UNL     1       1.648   4.706  17.834  0.00  0.00    +0.000 OA
ATOM      8  C   UNL     1       2.825   5.015  18.015  0.00  0.00    +0.000 C 
ATOM      9  N   UNL     1       3.287   6.280  18.375  0.00  0.00    +0.000 N 
ATOM     10  H   UNL     1       4.286   6.434  18.324  0.00  0.00    +0.000 HD
BRANCH   8  11
ATOM     11  C   UNL     1       3.912   3.914  17.974  0.00  0.00    +0.000 C 
BRANCH  11  12
ATOM     12  O   UNL     1       5.035   4.057  17.102  0.00  0.00    +0.000 OA
BRANCH  12  13
ATOM     13  C   UNL     1       6.023   4.902  17.573  0.00  0.00    +0.000 A 
ATOM     14  C   UNL     1       6.611   4.746  18.839  0.00  0.00    +0.000 A 
ATOM     15  C   UNL     1       7.551   5.657  19.333  0.00  0.00    +0.000 A 
ATOM     16  C   UNL     1       7.957   6.738  18.559  0.00  0.00    +0.000 A 
ATOM     17  C   UNL     1       7.459   6.877  17.268  0.00  0.00    +0.000 A 
ATOM     18  C   UNL     1       6.513   5.953  16.780  0.00  0.00    +0.000 A 
BRANCH  18  19
ATOM     19  N   UNL     1       6.066   6.136  15.411  0.00  0.00    +0.000 N 
ATOM     20  O   UNL     1       6.686   5.539  14.522  0.00  0.00    +0.000 OA
ATOM     21  O   UNL     1       5.043   6.820  15.238  0.00  0.00    +0.000 OA
ENDBRANCH  18  19
ENDBRANCH  12  13
ENDBRANCH  11  12
ENDBRANCH   8  11
ENDBRANCH   1   9
BRANCH   4  22
ATOM     22  N   UNL     1      -0.182  10.508  20.107  0.00  0.00    +0.000 N 
ATOM     23  C   UNL     1       0.162  11.512  21.022  0.00  0.00    +0.000 C 
ATOM     24  O   UNL     1       1.318  11.629  21.427  0.00  0.00    +0.000 OA
ATOM     25  H   UNL     1      -1.053  10.605  19.604  0.00  0.00    +0.000 HD
BRANCH  23  26
ATOM     26  C   UNL     1      -0.801  12.497  21.506  0.00  0.00    +0.000 A 
ATOM     27  C   UNL     1      -0.418  13.663  22.150  0.00  0.00    +0.000 A 
ATOM     28  C   UNL     1      -1.571  14.369  22.510  0.00  0.00    +0.000 A 
ATOM     29  C   UNL     1      -1.795  15.587  23.176  0.00  0.00    +0.000 A 
ATOM     30  C   UNL     1      -3.108  16.001  23.394  0.00  0.00    +0.000 A 
ATOM     31  C   UNL     1      -4.174  15.217  22.951  0.00  0.00    +0.000 A 
ATOM     32  C   UNL     1      -3.965  13.999  22.270  0.00  0.00    +0.000 A 
ATOM     33  C   UNL     1      -2.640  13.598  22.066  0.00  0.00    +0.000 A 
ATOM     34  O   UNL     1      -2.175  12.446  21.439  0.00  0.00    +0.000 OA
ENDBRANCH  23  26
ENDBRANCH   4  22
TORSDOF 7
ENDMDL
MODEL 4
REMARK VINA RESULT:      -8.0      1.503      2.043
REMARK  Name = 
REMARK  7 active torsions:
REMARK  status: ('A' for Active; 'I' for Inactive)
REMARK    1  A    between atoms: C_2  and  C_3
REMARK    2  A    between atoms: C_3  and  O_4
REMARK    3  A    between atoms: O_4  and  C_5
REMARK    4  A    between atoms: C_10  and  N_11
REMARK    5  A    between atoms: N_14  and  C_15
REMARK    6  A    between atoms: C_18  and  N_19
REMARK    7  A    between atoms: C_20  and  C_22
REMARK                            x       y       z     vdW  Elec       q    Type
REMARK                         _______ _______ _______ _____ _____    ______ ____
ROOT
ATOM      1  C   UNL     1       2.460   7.170  19.198  0.00  0.00    +0.000 A 
ATOM      2  C   UNL     1       2.132   8.302  18.464  0.00  0.00    +0.000 A 
ATOM      3  C   UNL     1       1.315   9.305  19.009  0.00  0.00    +0.000 A 
ATOM      4  C   UNL     1       0.752   9.214  20.290  0.00  0.00    +0.000 A 
ATOM      5  C   UNL     1       1.124   8.106  21.055  0.00  0.00    +0.000 A 
ATOM      6  C   UNL     1       1.956   7.090  20.508  0.00  0.00    +0.000 A 
ENDROOT
BRANCH   1   9
ATOM      7  O   UNL     1       1.570   4.649  17.900  0.00  0.00    +0.000 OA
ATOM      8  C   UNL     1       2.748   4.896  18.152  0.00  0.00    +0.000 C 
ATOM      9  N   UNL     1       3.233   6.095  18.675  0.00  0.00    +0.000 N 
ATOM     10  H   UNL     1       4.237   6.222  18.673  0.00  0.00    +0.000 HD
BRANCH   8  11
ATOM     11  C   UNL     1       3.805   3.774  18.014  0.00  0.00    +0.000 C 
BRANCH  11  12
ATOM     12  O   UNL     1       4.885   3.925  17.089  0.00  0.00    +0.000 OA
BRANCH  12  13
ATOM     13  C   UNL     1       5.868   4.810  17.494  0.00  0.00    +0.000 A 
ATOM     14  C   UNL     1       6.506   4.711  18.741  0.00  0.00    +0.000 A 
ATOM     15  C   UNL     1       7.439   5.661  19.170  0.00  0.00    +0.000 A 
ATOM     16  C   UNL     1       7.789   6.725  18.346  0.00  0.00    +0.000 A 
ATOM     17  C   UNL     1       7.241   6.808  17.070  0.00  0.00    +0.000 A 
ATOM     18  C   UNL     1       6.301   5.845  16.649  0.00  0.00    +0.000 A 
BRANCH  18  19
ATOM     19  N   UNL     1       5.800   5.970  15.292  0.00  0.00    +0.000 N 
ATOM     20  O   UNL     1       5.077   6.941  15.036  0.00  0.00    +0.000 OA
ATOM     21  O   UNL     1       6.198   5.133  14.465  0.00  0.00    +0.000 OA
ENDBRANCH  18  19
ENDBRANCH  12  13
ENDBRANCH  11  12
ENDBRANCH   8  11
ENDBRANCH   1   9
BRANCH   4  22
ATOM     22  N   UNL     1      -0.176  10.196  20.789  0.00  0.00    +0.000 N 
ATOM     23  C   UNL     1       0.257  11.412  21.334  0.00  0.00    +0.000 C 
ATOM     24  O   UNL     1       1.445  11.729  21.308  0.00  0.00    +0.000 OA
ATOM     25  H   UNL     1      -1.162  10.090  20.591  0.00  0.00    +0.000 HD
BRANCH  23  26
ATOM     26  C   UNL     1      -0.666  12.387  21.910  0.00  0.00    +0.000 A 
ATOM     27  C   UNL     1      -1.677  12.985  21.176  0.00  0.00    +0.000 A 
ATOM     28  C   UNL     1      -2.356  13.884  22.006  0.00  0.00    +0.000 A 
ATOM     29  C   UNL     1      -3.441  14.756  21.811  0.00  0.00    +0.000 A 
ATOM     30  C   UNL     1      -3.865  15.548  22.876  0.00  0.00    +0.000 A 
ATOM     31  C   UNL     1      -3.221  15.467  24.111  0.00  0.00    +0.000 A 
ATOM     32  C   UNL     1      -2.139  14.588  24.326  0.00  0.00    +0.000 A 
ATOM     33  C   UNL     1      -1.724  13.804  23.243  0.00  0.00    +0.000 A 
ATOM     34  O   UNL     1      -0.687  12.879  23.196  0.00  0.00    +0.000 OA
ENDBRANCH  23  26
ENDBRANCH   4  22
TORSDOF 7
ENDMDL
MODEL 5
REMARK VINA RESULT:      -8.0      6.683      8.744
REMARK  Name = 
REMARK  7 active torsions:
REMARK  status: ('A' for Active; 'I' for Inactive)
REMARK    1  A    between atoms: C_2  and  C_3
REMARK    2  A    between atoms: C_3  and  O_4
REMARK    3  A    between atoms: O_4  and  C_5
REMARK    4  A    between atoms: C_10  and  N_11
REMARK    5  A    between atoms: N_14  and  C_15
REMARK    6  A    between atoms: C_18  and  N_19
REMARK    7  A    between atoms: C_20  and  C_22
REMARK                            x       y       z     vdW  Elec       q    Type
REMARK                         _______ _______ _______ _____ _____    ______ ____
ROOT
ATOM      1  C   UNL     1       5.437   4.797  16.866  0.00  0.00    +0.000 A 
ATOM      2  C   UNL     1       4.767   5.937  17.289  0.00  0.00    +0.000 A 
ATOM      3  C   UNL     1       5.436   7.166  17.411  0.00  0.00    +0.000 A 
ATOM      4  C   UNL     1       6.807   7.312  17.157  0.00  0.00    +0.000 A 
ATOM      5  C   UNL     1       7.475   6.184  16.676  0.00  0.00    +0.000 A 
ATOM      6  C   UNL     1       6.799   4.938  16.547  0.00  0.00    +0.000 A 
ENDROOT
BRANCH   1   9
ATOM      7  O   UNL     1       2.557   4.064  16.897  0.00  0.00    +0.000 OA
ATOM      8  C   UNL     1       3.463   3.232  16.889  0.00  0.00    +0.000 C 
ATOM      9  N   UNL     1       4.824   3.515  16.783  0.00  0.00    +0.000 N 
ATOM     10  H   UNL     1       5.443   2.731  16.618  0.00  0.00    +0.000 HD
BRANCH   8  11
ATOM     11  C   UNL     1       3.127   1.743  17.139  0.00  0.00    +0.000 C 
BRANCH  11  12
ATOM     12  O   UNL     1       3.025   1.253  18.478  0.00  0.00    +0.000 OA
BRANCH  12  13
ATOM     13  C   UNL     1       2.452   2.140  19.371  0.00  0.00    +0.000 A 
ATOM     14  C   UNL     1       1.068   2.374  19.422  0.00  0.00    +0.000 A 
ATOM     15  C   UNL     1       0.513   3.334  20.274  0.00  0.00    +0.000 A 
ATOM     16  C   UNL     1       1.325   4.069  21.130  0.00  0.00    +0.000 A 
ATOM     17  C   UNL     1       2.690   3.804  21.169  0.00  0.00    +0.000 A 
ATOM     18  C   UNL     1       3.239   2.835  20.305  0.00  0.00    +0.000 A 
BRANCH  18  19
ATOM     19  N   UNL     1       4.664   2.583  20.426  0.00  0.00    +0.000 N 
ATOM     20  O   UNL     1       5.021   1.668  21.179  0.00  0.00    +0.000 OA
ATOM     21  O   UNL     1       5.418   3.255  19.704  0.00  0.00    +0.000 OA
ENDBRANCH  18  19
ENDBRANCH  12  13
ENDBRANCH  11  12
ENDBRANCH   8  11
ENDBRANCH   1   9
BRANCH   4  22
ATOM     22  N   UNL     1       7.501   8.551  17.398  0.00  0.00    +0.000 N 
ATOM     23  C   UNL     1       8.411   8.696  18.453  0.00  0.00    +0.000 C 
ATOM     24  O   UNL     1       8.729   7.734  19.150  0.00  0.00    +0.000 OA
ATOM     25  H   UNL     1       7.468   9.280  16.698  0.00  0.00    +0.000 HD
BRANCH  23  26
ATOM     26  C   UNL     1       9.068   9.965  18.755  0.00  0.00    +0.000 A 
ATOM     27  C   UNL     1       9.523  10.825  17.769  0.00  0.00    +0.000 A 
ATOM     28  C   UNL     1      10.126  11.927  18.385  0.00  0.00    +0.000 A 
ATOM     29  C   UNL     1      10.755  13.087  17.901  0.00  0.00    +0.000 A 
ATOM     30  C   UNL     1      11.278  13.999  18.816  0.00  0.00    +0.000 A 
ATOM     31  C   UNL     1      11.171  13.759  20.186  0.00  0.00    +0.000 A 
ATOM     32  C   UNL     1      10.532  12.606  20.688  0.00  0.00    +0.000 A 
ATOM     33  C   UNL     1      10.017  11.699  19.754  0.00  0.00    +0.000 A 
ATOM     34  O   UNL     1       9.360  10.497  19.991  0.00  0.00    +0.000 OA
ENDBRANCH  23  26
ENDBRANCH   4  22
TORSDOF 7
ENDMDL
MODEL 6
REMARK VINA RESULT:      -7.9      1.336      1.973
REMARK  Name = 
REMARK  7 active torsions:
REMARK  status: ('A' for Active; 'I' for Inactive)
REMARK    1  A    between atoms: C_2  and  C_3
REMARK    2  A    between atoms: C_3  and  O_4
REMARK    3  A    between atoms: O_4  and  C_5
REMARK    4  A    between atoms: C_10  and  N_11
REMARK    5  A    between atoms: N_14  and  C_15
REMARK    6  A    between atoms: C_18  and  N_19
REMARK    7  A    between atoms: C_20  and  C_22
REMARK                            x       y       z     vdW  Elec       q    Type
REMARK                         _______ _______ _______ _____ _____    ______ ____
ROOT
ATOM      1  C   UNL     1       1.851   7.845  19.935  0.00  0.00    +0.000 A 
ATOM      2  C   UNL     1       1.106   7.774  21.105  0.00  0.00    +0.000 A 
ATOM      3  C   UNL     1       0.143   8.750  21.409  0.00  0.00    +0.000 A 
ATOM      4  C   UNL     1      -0.099   9.860  20.587  0.00  0.00    +0.000 A 
ATOM      5  C   UNL     1       0.605   9.906  19.381  0.00  0.00    +0.000 A 
ATOM      6  C   UNL     1       1.578   8.917  19.068  0.00  0.00    +0.000 A 
ENDROOT
BRANCH   1   9
ATOM      7  O   UNL     1       1.741   4.883  19.713  0.00  0.00    +0.000 OA
ATOM      8  C   UNL     1       2.782   5.528  19.602  0.00  0.00    +0.000 C 
ATOM      9  N   UNL     1       2.881   6.919  19.606  0.00  0.00    +0.000 N 
ATOM     10  H   UNL     1       3.773   7.315  19.337  0.00  0.00    +0.000 HD
BRANCH   8  11
ATOM     11  C   UNL     1       4.138   4.781  19.578  0.00  0.00    +0.000 C 
BRANCH  11  12
ATOM     12  O   UNL     1       5.305   5.443  19.085  0.00  0.00    +0.000 OA
BRANCH  12  13
ATOM     13  C   UNL     1       5.665   5.088  17.798  0.00  0.00    +0.000 A 
ATOM     14  C   UNL     1       4.961   4.126  17.054  0.00  0.00    +0.000 A 
ATOM     15  C   UNL     1       5.387   3.718  15.786  0.00  0.00    +0.000 A 
ATOM     16  C   UNL     1       6.515   4.287  15.205  0.00  0.00    +0.000 A 
ATOM     17  C   UNL     1       7.188   5.303  15.876  0.00  0.00    +0.000 A 
ATOM     18  C   UNL     1       6.750   5.705  17.155  0.00  0.00    +0.000 A 
BRANCH  18  19
ATOM     19  N   UNL     1       7.474   6.798  17.780  0.00  0.00    +0.000 N 
ATOM     20  O   UNL     1       8.087   6.554  18.826  0.00  0.00    +0.000 OA
ATOM     21  O   UNL     1       7.490   7.883  17.175  0.00  0.00    +0.000 OA
ENDBRANCH  18  19
ENDBRANCH  12  13
ENDBRANCH  11  12
ENDBRANCH   8  11
ENDBRANCH   1   9
BRANCH   4  22
ATOM     22  N   UNL     1      -1.007  10.911  20.969  0.00  0.00    +0.000 N 
ATOM     23  C   UNL     1      -0.996  11.465  22.255  0.00  0.00    +0.000 C 
ATOM     24  O   UNL     1      -0.137  11.146  23.075  0.00  0.00    +0.000 OA
ATOM     25  H   UNL     1      -1.547  11.381  20.255  0.00  0.00    +0.000 HD
BRANCH  23  26
ATOM     26  C   UNL     1      -1.957  12.479  22.681  0.00  0.00    +0.000 A 
ATOM     27  C   UNL     1      -1.605  13.553  23.484  0.00  0.00    +0.000 A 
ATOM     28  C   UNL     1      -2.752  14.315  23.733  0.00  0.00    +0.000 A 
ATOM     29  C   UNL     1      -2.998  15.486  24.471  0.00  0.00    +0.000 A 
ATOM     30  C   UNL     1      -4.299  15.982  24.529  0.00  0.00    +0.000 A 
ATOM     31  C   UNL     1      -5.332  15.324  23.859  0.00  0.00    +0.000 A 
ATOM     32  C   UNL     1      -5.099  14.155  23.105  0.00  0.00    +0.000 A 
ATOM     33  C   UNL     1      -3.786  13.669  23.063  0.00  0.00    +0.000 A 
ATOM     34  O   UNL     1      -3.305  12.542  22.406  0.00  0.00    +0.000 OA
ENDBRANCH  23  26
ENDBRANCH   4  22
TORSDOF 7
ENDMDL
MODEL 7
REMARK VINA RESULT:      -7.9      1.191      1.404
REMARK  Name = 
REMARK  7 active torsions:
REMARK  status: ('A' for Active; 'I' for Inactive)
REMARK    1  A    between atoms: C_2  and  C_3
REMARK    2  A    between atoms: C_3  and  O_4
REMARK    3  A    between atoms: O_4  and  C_5
REMARK    4  A    between atoms: C_10  and  N_11
REMARK    5  A    between atoms: N_14  and  C_15
REMARK    6  A    between atoms: C_18  and  N_19
REMARK    7  A    between atoms: C_20  and  C_22
REMARK                            x       y       z     vdW  Elec       q    Type
REMARK                         _______ _______ _______ _____ _____    ______ ____
ROOT
ATOM      1  C   UNL     1       2.435   6.905  18.642  0.00  0.00    +0.000 A 
ATOM      2  C   UNL     1       2.122   8.076  17.964  0.00  0.00    +0.000 A 
ATOM      3  C   UNL     1       1.580   9.180  18.641  0.00  0.00    +0.000 A 
ATOM      4  C   UNL     1       1.286   9.161  20.011  0.00  0.00    +0.000 A 
ATOM      5  C   UNL     1       1.652   8.008  20.710  0.00  0.00    +0.000 A 
ATOM      6  C   UNL     1       2.206   6.889  20.028  0.00  0.00    +0.000 A 
ENDROOT
BRANCH   1   9
ATOM      7  O   UNL     1       1.004   4.421  17.858  0.00  0.00    +0.000 OA
ATOM      8  C   UNL     1       2.219   4.566  17.733  0.00  0.00    +0.000 C 
ATOM      9  N   UNL     1       2.930   5.736  17.997  0.00  0.00    +0.000 N 
ATOM     10  H   UNL     1       3.894   5.765  17.690  0.00  0.00    +0.000 HD
BRANCH   8  11
ATOM     11  C   UNL     1       3.095   3.342  17.374  0.00  0.00    +0.000 C 
BRANCH  11  12
ATOM     12  O   UNL     1       4.483   3.336  17.717  0.00  0.00    +0.000 OA
BRANCH  12  13
ATOM     13  C   UNL     1       5.312   3.893  16.761  0.00  0.00    +0.000 A 
ATOM     14  C   UNL     1       5.095   3.728  15.383  0.00  0.00    +0.000 A 
ATOM     15  C   UNL     1       5.988   4.228  14.430  0.00  0.00    +0.000 A 
ATOM     16  C   UNL     1       7.114   4.941  14.827  0.00  0.00    +0.000 A 
ATOM     17  C   UNL     1       7.317   5.197  16.180  0.00  0.00    +0.000 A 
ATOM     18  C   UNL     1       6.410   4.687  17.131  0.00  0.00    +0.000 A 
BRANCH  18  19
ATOM     19  N   UNL     1       6.661   5.026  18.521  0.00  0.00    +0.000 N 
ATOM     20  O   UNL     1       7.815   4.889  18.943  0.00  0.00    +0.000 OA
ATOM     21  O   UNL     1       5.712   5.504  19.164  0.00  0.00    +0.000 OA
ENDBRANCH  18  19
ENDBRANCH  12  13
ENDBRANCH  11  12
ENDBRANCH   8  11
ENDBRANCH   1   9
BRANCH   4  22
ATOM     22  N   UNL     1       0.624  10.260  20.667  0.00  0.00    +0.000 N 
ATOM     23  C   UNL     1      -0.274  10.058  21.723  0.00  0.00    +0.000 C 
ATOM     24  O   UNL     1      -0.449   8.937  22.199  0.00  0.00    +0.000 OA
ATOM     25  H   UNL     1       0.935  11.204  20.484  0.00  0.00    +0.000 HD
BRANCH  23  26
ATOM     26  C   UNL     1      -1.009  11.153  22.350  0.00  0.00    +0.000 A 
ATOM     27  C   UNL     1      -0.567  12.466  22.316  0.00  0.00    +0.000 A 
ATOM     28  C   UNL     1      -1.474  13.258  23.029  0.00  0.00    +0.000 A 
ATOM     29  C   UNL     1      -1.539  14.629  23.329  0.00  0.00    +0.000 A 
ATOM     30  C   UNL     1      -2.601  15.098  24.101  0.00  0.00    +0.000 A 
ATOM     31  C   UNL     1      -3.580  14.216  24.558  0.00  0.00    +0.000 A 
ATOM     32  C   UNL     1      -3.536  12.839  24.255  0.00  0.00    +0.000 A 
ATOM     33  C   UNL     1      -2.458  12.386  23.484  0.00  0.00    +0.000 A 
ATOM     34  O   UNL     1      -2.185  11.089  23.064  0.00  0.00    +0.000 OA
ENDBRANCH  23  26
ENDBRANCH   4  22
TORSDOF 7
ENDMDL
MODEL 8
REMARK VINA RESULT:      -7.8      1.216      1.268
REMARK  Name = 
REMARK  7 active torsions:
REMARK  status: ('A' for Active; 'I' for Inactive)
REMARK    1  A    between atoms: C_2  and  C_3
REMARK    2  A    between atoms: C_3  and  O_4
REMARK    3  A    between atoms: O_4  and  C_5
REMARK    4  A    between atoms: C_10  and  N_11
REMARK    5  A    between atoms: N_14  and  C_15
REMARK    6  A    between atoms: C_18  and  N_19
REMARK    7  A    between atoms: C_20  and  C_22
REMARK                            x       y       z     vdW  Elec       q    Type
REMARK                         _______ _______ _______ _____ _____    ______ ____
ROOT
ATOM      1  C   UNL     1       2.519   6.746  18.698  0.00  0.00    +0.000 A 
ATOM      2  C   UNL     1       2.278   7.964  18.077  0.00  0.00    +0.000 A 
ATOM      3  C   UNL     1       1.706   9.035  18.783  0.00  0.00    +0.000 A 
ATOM      4  C   UNL     1       1.311   8.935  20.125  0.00  0.00    +0.000 A 
ATOM      5  C   UNL     1       1.604   7.732  20.772  0.00  0.00    +0.000 A 
ATOM      6  C   UNL     1       2.187   6.646  20.060  0.00  0.00    +0.000 A 
ENDROOT
BRANCH   1   9
ATOM      7  O   UNL     1       1.090   4.419  17.524  0.00  0.00    +0.000 OA
ATOM      8  C   UNL     1       2.316   4.507  17.563  0.00  0.00    +0.000 C 
ATOM      9  N   UNL     1       3.039   5.609  18.016  0.00  0.00    +0.000 N 
ATOM     10  H   UNL     1       4.034   5.611  17.834  0.00  0.00    +0.000 HD
BRANCH   8  11
ATOM     11  C   UNL     1       3.175   3.270  17.205  0.00  0.00    +0.000 C 
BRANCH  11  12
ATOM     12  O   UNL     1       4.577   3.274  17.485  0.00  0.00    +0.000 OA
BRANCH  12  13
ATOM     13  C   UNL     1       5.358   3.846  16.497  0.00  0.00    +0.000 A 
ATOM     14  C   UNL     1       5.073   3.699  15.129  0.00  0.00    +0.000 A 
ATOM     15  C   UNL     1       5.918   4.214  14.140  0.00  0.00    +0.000 A 
ATOM     16  C   UNL     1       7.060   4.924  14.491  0.00  0.00    +0.000 A 
ATOM     17  C   UNL     1       7.329   5.162  15.835  0.00  0.00    +0.000 A 
ATOM     18  C   UNL     1       6.471   4.638  16.823  0.00  0.00    +0.000 A 
BRANCH  18  19
ATOM     19  N   UNL     1       6.790   4.959  18.203  0.00  0.00    +0.000 N 
ATOM     20  O   UNL     1       7.883   4.581  18.640  0.00  0.00    +0.000 OA
ATOM     21  O   UNL     1       5.971   5.659  18.822  0.00  0.00    +0.000 OA
ENDBRANCH  18  19
ENDBRANCH  12  13
ENDBRANCH  11  12
ENDBRANCH   8  11
ENDBRANCH   1   9
BRANCH   4  22
ATOM     22  N   UNL     1       0.622  10.004  20.801  0.00  0.00    +0.000 N 
ATOM     23  C   UNL     1      -0.574  10.541  20.307  0.00  0.00    +0.000 C 
ATOM     24  O   UNL     1      -1.134  10.045  19.330  0.00  0.00    +0.000 OA
ATOM     25  H   UNL     1       0.905  10.261  21.737  0.00  0.00    +0.000 HD
BRANCH  23  26
ATOM     26  C   UNL     1      -1.247  11.673  20.938  0.00  0.00    +0.000 A 
ATOM     27  C   UNL     1      -2.055  12.551  20.233  0.00  0.00    +0.000 A 
ATOM     28  C   UNL     1      -2.520  13.532  21.116  0.00  0.00    +0.000 A 
ATOM     29  C   UNL     1      -3.349  14.657  20.968  0.00  0.00    +0.000 A 
ATOM     30  C   UNL     1      -3.602  15.456  22.082  0.00  0.00    +0.000 A 
ATOM     31  C   UNL     1      -3.041  15.134  23.318  0.00  0.00    +0.000 A 
ATOM     32  C   UNL     1      -2.217  14.002  23.486  0.00  0.00    +0.000 A 
ATOM     33  C   UNL     1      -1.970  13.215  22.354  0.00  0.00    +0.000 A 
ATOM     34  O   UNL     1      -1.191  12.067  22.257  0.00  0.00    +0.000 OA
ENDBRANCH  23  26
ENDBRANCH   4  22
TORSDOF 7
ENDMDL
MODEL 9
REMARK VINA RESULT:      -7.8      1.017      1.264
REMARK  Name = 
REMARK  7 active torsions:
REMARK  status: ('A' for Active; 'I' for Inactive)
REMARK    1  A    between atoms: C_2  and  C_3
REMARK    2  A    between atoms: C_3  and  O_4
REMARK    3  A    between atoms: O_4  and  C_5
REMARK    4  A    between atoms: C_10  and  N_11
REMARK    5  A    between atoms: N_14  and  C_15
REMARK    6  A    between atoms: C_18  and  N_19
REMARK    7  A    between atoms: C_20  and  C_22
REMARK                            x       y       z     vdW  Elec       q    Type
REMARK                         _______ _______ _______ _____ _____    ______ ____
ROOT
ATOM      1  C   UNL     1       2.584   7.098  19.177  0.00  0.00    +0.000 A 
ATOM      2  C   UNL     1       2.279   8.191  18.377  0.00  0.00    +0.000 A 
ATOM      3  C   UNL     1       1.390   9.184  18.819  0.00  0.00    +0.000 A 
ATOM      4  C   UNL     1       0.733   9.119  20.057  0.00  0.00    +0.000 A 
ATOM      5  C   UNL     1       1.080   8.053  20.890  0.00  0.00    +0.000 A 
ATOM      6  C   UNL     1       1.983   7.047  20.447  0.00  0.00    +0.000 A 
ENDROOT
BRANCH   1   9
ATOM      7  O   UNL     1       1.871   4.440  18.054  0.00  0.00    +0.000 OA
ATOM      8  C   UNL     1       3.026   4.772  18.315  0.00  0.00    +0.000 C 
ATOM      9  N   UNL     1       3.429   6.032  18.756  0.00  0.00    +0.000 N 
ATOM     10  H   UNL     1       4.425   6.215  18.769  0.00  0.00    +0.000 HD
BRANCH   8  11
ATOM     11  C   UNL     1       4.146   3.705  18.288  0.00  0.00    +0.000 C 
BRANCH  11  12
ATOM     12  O   UNL     1       5.509   4.109  18.143  0.00  0.00    +0.000 OA
BRANCH  12  13
ATOM     13  C   UNL     1       5.898   4.360  16.840  0.00  0.00    +0.000 A 
ATOM     14  C   UNL     1       5.650   3.460  15.790  0.00  0.00    +0.000 A 
ATOM     15  C   UNL     1       6.121   3.691  14.493  0.00  0.00    +0.000 A 
ATOM     16  C   UNL     1       6.828   4.851  14.198  0.00  0.00    +0.000 A 
ATOM     17  C   UNL     1       7.019   5.805  15.193  0.00  0.00    +0.000 A 
ATOM     18  C   UNL     1       6.540   5.561  16.496  0.00  0.00    +0.000 A 
BRANCH  18  19
ATOM     19  N   UNL     1       6.739   6.617  17.473  0.00  0.00    +0.000 N 
ATOM     20  O   UNL     1       5.894   7.518  17.522  0.00  0.00    +0.000 OA
ATOM     21  O   UNL     1       7.706   6.495  18.244  0.00  0.00    +0.000 OA
ENDBRANCH  18  19
ENDBRANCH  12  13
ENDBRANCH  11  12
ENDBRANCH   8  11
ENDBRANCH   1   9
BRANCH   4  22
ATOM     22  N   UNL     1      -0.262  10.085  20.445  0.00  0.00    +0.000 N 
ATOM     23  C   UNL     1       0.041  11.155  21.298  0.00  0.00    +0.000 C 
ATOM     24  O   UNL     1       1.197  11.367  21.661  0.00  0.00    +0.000 OA
ATOM     25  H   UNL     1      -1.151  10.100  19.965  0.00  0.00    +0.000 HD
BRANCH  23  26
ATOM     26  C   UNL     1      -0.971  12.102  21.760  0.00  0.00    +0.000 A 
ATOM     27  C   UNL     1      -1.655  11.941  22.954  0.00  0.00    +0.000 A 
ATOM     28  C   UNL     1      -2.568  12.993  23.088  0.00  0.00    +0.000 A 
ATOM     29  C   UNL     1      -3.513  13.341  24.069  0.00  0.00    +0.000 A 
ATOM     30  C   UNL     1      -4.295  14.478  23.874  0.00  0.00    +0.000 A 
ATOM     31  C   UNL     1      -4.133  15.254  22.726  0.00  0.00    +0.000 A 
ATOM     32  C   UNL     1      -3.181  14.925  21.739  0.00  0.00    +0.000 A 
ATOM     33  C   UNL     1      -2.408  13.777  21.949  0.00  0.00    +0.000 A 
ATOM     34  O   UNL     1      -1.421  13.240  21.129  0.00  0.00    +0.000 OA
ENDBRANCH  23  26
ENDBRANCH   4  22
TORSDOF 7
ENDMDL
