MODEL 1
REMARK VINA RESULT:      -6.9      0.000      0.000
REMARK  Name = 
REMARK  9 active torsions:
REMARK  status: ('A' for Active; 'I' for Inactive)
REMARK    1  A    between atoms: N_1  and  C_2
REMARK    2  A    between atoms: C_2  and  C_3
REMARK    3  A    between atoms: C_3  and  O_5
REMARK    4  A    between atoms: O_5  and  C_6
REMARK    5  A    between atoms: C_9  and  O_10
REMARK    6  A    between atoms: O_10  and  C_11
REMARK    7  A    between atoms: C_14  and  S_15
REMARK    8  A    between atoms: S_15  and  C_18
REMARK    9  A    between atoms: C_18  and  C_19
REMARK                            x       y       z     vdW  Elec       q    Type
REMARK                         _______ _______ _______ _____ _____    ______ ____
ROOT
ATOM      1  O   UNL     1       2.780   5.546  19.791  0.00  0.00    +0.000 OA
ENDROOT
BRANCH   1   5
ATOM      2  C   UNL     1       5.673   4.268  17.085  0.00  0.00    +0.000 A 
ATOM      3  C   UNL     1       6.045   4.841  18.299  0.00  0.00    +0.000 A 
ATOM      4  C   UNL     1       5.050   5.249  19.198  0.00  0.00    +0.000 A 
ATOM      5  C   UNL     1       3.697   5.085  18.873  0.00  0.00    +0.000 A 
ATOM      6  C   UNL     1       3.345   4.449  17.681  0.00  0.00    +0.000 A 
ATOM      7  C   UNL     1       4.326   4.090  16.766  0.00  0.00    +0.000 A 
BRANCH   2   8
ATOM      8  O   UNL     1       6.674   3.999  16.138  0.00  0.00    +0.000 OA
BRANCH   8   9
ATOM      9  C   UNL     1       7.101   5.071  15.349  0.00  0.00    +0.000 C 
ATOM     10  O   UNL     1       7.597   6.119  15.751  0.00  0.00    +0.000 OA
BRANCH   9  11
ATOM     11  C   UNL     1       7.004   4.669  13.881  0.00  0.00    +0.000 C 
BRANCH  11  12
ATOM     12  N   UNL     1       6.265   3.408  13.726  0.00  0.00    +0.000 NA
ATOM     13  H   UNL     1       6.467   3.004  12.814  0.00  0.00    +0.000 HD
ATOM     14  H   UNL     1       5.260   3.614  13.740  0.00  0.00    +0.000 HD
ENDBRANCH  11  12
ENDBRANCH   9  11
ENDBRANCH   8   9
ENDBRANCH   2   8
ENDBRANCH   1   5
BRANCH   1  15
ATOM     15  C   UNL     1       2.270   6.823  19.664  0.00  0.00    +0.000 A 
ATOM     16  C   UNL     1       1.731   7.385  20.825  0.00  0.00    +0.000 A 
ATOM     17  C   UNL     1       1.184   8.670  20.795  0.00  0.00    +0.000 A 
ATOM     18  C   UNL     1       1.188   9.392  19.598  0.00  0.00    +0.000 A 
ATOM     19  C   UNL     1       1.734   8.847  18.436  0.00  0.00    +0.000 A 
ATOM     20  C   UNL     1       2.304   7.575  18.482  0.00  0.00    +0.000 A 
BRANCH  18  21
ATOM     21  S   UNL     1       0.458  11.013  19.546  0.00  0.00    +0.000 S 
ATOM     22  O   UNL     1       1.335  11.862  18.769  0.00  0.00    +0.000 OA
ATOM     23  O   UNL     1      -0.924  10.803  19.145  0.00  0.00    +0.000 OA
BRANCH  21  24
ATOM     24  C   UNL     1       0.518  11.556  21.245  0.00  0.00    +0.000 C 
BRANCH  24  25
ATOM     25  C   UNL     1      -0.888  11.926  21.603  0.00  0.00    +0.000 C 
ATOM     26  C   UNL     1      -1.502  11.601  22.939  0.00  0.00    +0.000 C 
ATOM     27  S   UNL     1      -1.095  13.256  22.699  0.00  0.00    +0.000 S 
ENDBRANCH  24  25
ENDBRANCH  21  24
ENDBRANCH  18  21
ENDBRANCH   1  15
TORSDOF 9
ENDMDL
MODEL 2
REMARK VINA RESULT:      -6.7      4.370      9.070
REMARK  Name = 
REMARK  9 active torsions:
REMARK  status: ('A' for Active; 'I' for Inactive)
REMARK    1  A    between atoms: N_1  and  C_2
REMARK    2  A    between atoms: C_2  and  C_3
REMARK    3  A    between atoms: C_3  and  O_5
REMARK    4  A    between atoms: O_5  and  C_6
REMARK    5  A    between atoms: C_9  and  O_10
REMARK    6  A    between atoms: O_10  and  C_11
REMARK    7  A    between atoms: C_14  and  S_15
REMARK    8  A    between atoms: S_15  and  C_18
REMARK    9  A    between atoms: C_18  and  C_19
REMARK                            x       y       z     vdW  Elec       q    Type
REMARK                         _______ _______ _______ _____ _____    ______ ____
ROOT
ATOM      1  O   UNL     1       2.560   5.792  19.928  0.00  0.00    +0.000 OA
ENDROOT
BRANCH   1   5
ATOM      2  C   UNL     1       0.758   9.541  20.088  0.00  0.00    +0.000 A 
ATOM      3  C   UNL     1       0.689   8.676  21.178  0.00  0.00    +0.000 A 
ATOM      4  C   UNL     1       1.317   7.426  21.103  0.00  0.00    +0.000 A 
ATOM      5  C   UNL     1       2.002   7.051  19.939  0.00  0.00    +0.000 A 
ATOM      6  C   UNL     1       2.115   7.956  18.883  0.00  0.00    +0.000 A 
ATOM      7  C   UNL     1       1.452   9.175  18.934  0.00  0.00    +0.000 A 
BRANCH   2   8
ATOM      8  O   UNL     1       0.003  10.725  20.124  0.00  0.00    +0.000 OA
BRANCH   8   9
ATOM      9  C   UNL     1      -0.819  10.983  19.025  0.00  0.00    +0.000 C 
ATOM     10  O   UNL     1      -1.753  10.288  18.633  0.00  0.00    +0.000 OA
BRANCH   9  11
ATOM     11  C   UNL     1      -0.481  12.363  18.471  0.00  0.00    +0.000 C 
BRANCH  11  12
ATOM     12  N   UNL     1      -1.237  12.638  17.240  0.00  0.00    +0.000 NA
ATOM     13  H   UNL     1      -2.234  12.624  17.442  0.00  0.00    +0.000 HD
ATOM     14  H   UNL     1      -1.060  11.880  16.573  0.00  0.00    +0.000 HD
ENDBRANCH  11  12
ENDBRANCH   9  11
ENDBRANCH   8   9
ENDBRANCH   2   8
ENDBRANCH   1   5
BRANCH   1  15
ATOM     15  C   UNL     1       3.542   5.489  19.006  0.00  0.00    +0.000 A 
ATOM     16  C   UNL     1       4.825   5.957  19.304  0.00  0.00    +0.000 A 
ATOM     17  C   UNL     1       5.885   5.707  18.428  0.00  0.00    +0.000 A 
ATOM     18  C   UNL     1       5.653   4.980  17.257  0.00  0.00    +0.000 A 
ATOM     19  C   UNL     1       4.379   4.498  16.955  0.00  0.00    +0.000 A 
ATOM     20  C   UNL     1       3.334   4.726  17.849  0.00  0.00    +0.000 A 
BRANCH  18  21
ATOM     21  S   UNL     1       6.990   4.694  16.120  0.00  0.00    +0.000 S 
ATOM     22  O   UNL     1       7.198   5.917  15.376  0.00  0.00    +0.000 OA
ATOM     23  O   UNL     1       8.060   4.115  16.917  0.00  0.00    +0.000 OA
BRANCH  21  24
ATOM     24  C   UNL     1       6.337   3.465  15.002  0.00  0.00    +0.000 C 
BRANCH  24  25
ATOM     25  C   UNL     1       6.068   4.186  13.719  0.00  0.00    +0.000 C 
ATOM     26  C   UNL     1       7.010   4.143  12.545  0.00  0.00    +0.000 C 
ATOM     27  S   UNL     1       5.568   3.222  12.365  0.00  0.00    +0.000 S 
ENDBRANCH  24  25
ENDBRANCH  21  24
ENDBRANCH  18  21
ENDBRANCH   1  15
TORSDOF 9
ENDMDL
MODEL 3
REMARK VINA RESULT:      -6.6      4.448      9.156
REMARK  Name = 
REMARK  9 active torsions:
REMARK  status: ('A' for Active; 'I' for Inactive)
REMARK    1  A    between atoms: N_1  and  C_2
REMARK    2  A    between atoms: C_2  and  C_3
REMARK    3  A    between atoms: C_3  and  O_5
REMARK    4  A    between atoms: O_5  and  C_6
REMARK    5  A    between atoms: C_9  and  O_10
REMARK    6  A    between atoms: O_10  and  C_11
REMARK    7  A    between atoms: C_14  and  S_15
REMARK    8  A    between atoms: S_15  and  C_18
REMARK    9  A    between atoms: C_18  and  C_19
REMARK                            x       y       z     vdW  Elec       q    Type
REMARK                         _______ _______ _______ _____ _____    ______ ____
ROOT
ATOM      1  O   UNL     1       2.474   6.332  19.255  0.00  0.00    +0.000 OA
ENDROOT
BRANCH   1   5
ATOM      2  C   UNL     1       0.809  10.146  19.338  0.00  0.00    +0.000 A 
ATOM      3  C   UNL     1       0.923   9.399  20.508  0.00  0.00    +0.000 A 
ATOM      4  C   UNL     1       1.501   8.124  20.454  0.00  0.00    +0.000 A 
ATOM      5  C   UNL     1       1.954   7.608  19.233  0.00  0.00    +0.000 A 
ATOM      6  C   UNL     1       1.891   8.397  18.084  0.00  0.00    +0.000 A 
ATOM      7  C   UNL     1       1.273   9.640  18.124  0.00  0.00    +0.000 A 
BRANCH   2   8
ATOM      8  O   UNL     1       0.098  11.356  19.384  0.00  0.00    +0.000 OA
BRANCH   8   9
ATOM      9  C   UNL     1       0.838  12.530  19.222  0.00  0.00    +0.000 C 
ATOM     10  O   UNL     1       1.987  12.727  19.609  0.00  0.00    +0.000 OA
BRANCH   9  11
ATOM     11  C   UNL     1       0.050  13.490  18.337  0.00  0.00    +0.000 C 
BRANCH  11  12
ATOM     12  N   UNL     1      -1.012  12.783  17.606  0.00  0.00    +0.000 NA
ATOM     13  H   UNL     1      -1.865  13.339  17.622  0.00  0.00    +0.000 HD
ATOM     14  H   UNL     1      -1.221  11.909  18.099  0.00  0.00    +0.000 HD
ENDBRANCH  11  12
ENDBRANCH   9  11
ENDBRANCH   8   9
ENDBRANCH   2   8
ENDBRANCH   1   5
BRANCH   1  15
ATOM     15  C   UNL     1       3.557   6.024  18.456  0.00  0.00    +0.000 A 
ATOM     16  C   UNL     1       3.399   4.921  17.611  0.00  0.00    +0.000 A 
ATOM     17  C   UNL     1       4.442   4.525  16.770  0.00  0.00    +0.000 A 
ATOM     18  C   UNL     1       5.639   5.246  16.773  0.00  0.00    +0.000 A 
ATOM     19  C   UNL     1       5.804   6.355  17.602  0.00  0.00    +0.000 A 
ATOM     20  C   UNL     1       4.748   6.761  18.417  0.00  0.00    +0.000 A 
BRANCH  18  21
ATOM     21  S   UNL     1       6.983   4.722  15.732  0.00  0.00    +0.000 S 
ATOM     22  O   UNL     1       7.342   5.841  14.887  0.00  0.00    +0.000 OA
ATOM     23  O   UNL     1       7.959   4.124  16.629  0.00  0.00    +0.000 OA
BRANCH  21  24
ATOM     24  C   UNL     1       6.253   3.459  14.704  0.00  0.00    +0.000 C 
BRANCH  24  25
ATOM     25  C   UNL     1       6.057   4.091  13.361  0.00  0.00    +0.000 C 
ATOM     26  C   UNL     1       6.897   3.737  12.163  0.00  0.00    +0.000 C 
ATOM     27  S   UNL     1       5.290   3.124  12.142  0.00  0.00    +0.000 S 
ENDBRANCH  24  25
ENDBRANCH  21  24
ENDBRANCH  18  21
ENDBRANCH   1  15
TORSDOF 9
ENDMDL
MODEL 4
REMARK VINA RESULT:      -6.6      1.912      2.320
REMARK  Name = 
REMARK  9 active torsions:
REMARK  status: ('A' for Active; 'I' for Inactive)
REMARK    1  A    between atoms: N_1  and  C_2
REMARK    2  A    between atoms: C_2  and  C_3
REMARK    3  A    between atoms: C_3  and  O_5
REMARK    4  A    between atoms: O_5  and  C_6
REMARK    5  A    between atoms: C_9  and  O_10
REMARK    6  A    between atoms: O_10  and  C_11
REMARK    7  A    between atoms: C_14  and  S_15
REMARK    8  A    between atoms: S_15  and  C_18
REMARK    9  A    between atoms: C_18  and  C_19
REMARK                            x       y       z     vdW  Elec       q    Type
REMARK                         _______ _______ _______ _____ _____    ______ ____
ROOT
ATOM      1  O   UNL     1       3.341   5.785  19.806  0.00  0.00    +0.000 OA
ENDROOT
BRANCH   1   5
ATOM      2  C   UNL     1       5.577   4.070  16.743  0.00  0.00    +0.000 A 
ATOM      3  C   UNL     1       6.208   4.735  17.792  0.00  0.00    +0.000 A 
ATOM      4  C   UNL     1       5.432   5.290  18.818  0.00  0.00    +0.000 A 
ATOM      5  C   UNL     1       4.036   5.180  18.782  0.00  0.00    +0.000 A 
ATOM      6  C   UNL     1       3.426   4.453  17.758  0.00  0.00    +0.000 A 
ATOM      7  C   UNL     1       4.188   3.946  16.713  0.00  0.00    +0.000 A 
BRANCH   2   8
ATOM      8  O   UNL     1       6.356   3.648  15.653  0.00  0.00    +0.000 OA
BRANCH   8   9
ATOM      9  C   UNL     1       6.424   4.508  14.555  0.00  0.00    +0.000 C 
ATOM     10  O   UNL     1       6.824   5.669  14.562  0.00  0.00    +0.000 OA
BRANCH   9  11
ATOM     11  C   UNL     1       6.071   3.725  13.295  0.00  0.00    +0.000 C 
BRANCH  11  12
ATOM     12  N   UNL     1       6.974   4.074  12.187  0.00  0.00    +0.000 NA
ATOM     13  H   UNL     1       7.343   5.011  12.331  0.00  0.00    +0.000 HD
ATOM     14  H   UNL     1       6.429   4.102  11.319  0.00  0.00    +0.000 HD
ENDBRANCH  11  12
ENDBRANCH   9  11
ENDBRANCH   8   9
ENDBRANCH   2   8
ENDBRANCH   1   5
BRANCH   1  15
ATOM     15  C   UNL     1       2.608   6.926  19.551  0.00  0.00    +0.000 A 
ATOM     16  C   UNL     1       1.865   7.429  20.625  0.00  0.00    +0.000 A 
ATOM     17  C   UNL     1       1.085   8.576  20.463  0.00  0.00    +0.000 A 
ATOM     18  C   UNL     1       1.060   9.222  19.224  0.00  0.00    +0.000 A 
ATOM     19  C   UNL     1       1.806   8.738  18.149  0.00  0.00    +0.000 A 
ATOM     20  C   UNL     1       2.604   7.609  18.327  0.00  0.00    +0.000 A 
BRANCH  18  21
ATOM     21  S   UNL     1       0.037  10.661  19.003  0.00  0.00    +0.000 S 
ATOM     22  O   UNL     1      -0.646  10.907  20.255  0.00  0.00    +0.000 OA
ATOM     23  O   UNL     1       0.907  11.669  18.418  0.00  0.00    +0.000 OA
BRANCH  21  24
ATOM     24  C   UNL     1      -1.173  10.136  17.801  0.00  0.00    +0.000 C 
BRANCH  24  25
ATOM     25  C   UNL     1      -2.014  11.342  17.518  0.00  0.00    +0.000 C 
ATOM     26  C   UNL     1      -3.098  11.354  16.474  0.00  0.00    +0.000 C 
ATOM     27  S   UNL     1      -3.647  11.317  18.105  0.00  0.00    +0.000 S 
ENDBRANCH  24  25
ENDBRANCH  21  24
ENDBRANCH  18  21
ENDBRANCH   1  15
TORSDOF 9
ENDMDL
MODEL 5
REMARK VINA RESULT:      -6.6      2.001      2.510
REMARK  Name = 
REMARK  9 active torsions:
REMARK  status: ('A' for Active; 'I' for Inactive)
REMARK    1  A    between atoms: N_1  and  C_2
REMARK    2  A    between atoms: C_2  and  C_3
REMARK    3  A    between atoms: C_3  and  O_5
REMARK    4  A    between atoms: O_5  and  C_6
REMARK    5  A    between atoms: C_9  and  O_10
REMARK    6  A    between atoms: O_10  and  C_11
REMARK    7  A    between atoms: C_14  and  S_15
REMARK    8  A    between atoms: S_15  and  C_18
REMARK    9  A    between atoms: C_18  and  C_19
REMARK                            x       y       z     vdW  Elec       q    Type
REMARK                         _______ _______ _______ _____ _____    ______ ____
ROOT
ATOM      1  O   UNL     1       2.017   6.258  20.495  0.00  0.00    +0.000 OA
ENDROOT
BRANCH   1   5
ATOM      2  C   UNL     1       4.219   4.373  17.508  0.00  0.00    +0.000 A 
ATOM      3  C   UNL     1       4.864   5.039  18.548  0.00  0.00    +0.000 A 
ATOM      4  C   UNL     1       4.099   5.652  19.548  0.00  0.00    +0.000 A 
ATOM      5  C   UNL     1       2.700   5.598  19.497  0.00  0.00    +0.000 A 
ATOM      6  C   UNL     1       2.073   4.871  18.484  0.00  0.00    +0.000 A 
ATOM      7  C   UNL     1       2.826   4.305  17.463  0.00  0.00    +0.000 A 
BRANCH   2   8
ATOM      8  O   UNL     1       4.994   3.891  16.440  0.00  0.00    +0.000 OA
BRANCH   8   9
ATOM      9  C   UNL     1       5.668   4.841  15.670  0.00  0.00    +0.000 C 
ATOM     10  O   UNL     1       5.225   5.924  15.296  0.00  0.00    +0.000 OA
BRANCH   9  11
ATOM     11  C   UNL     1       7.116   4.396  15.497  0.00  0.00    +0.000 C 
BRANCH  11  12
ATOM     12  N   UNL     1       7.774   4.222  16.801  0.00  0.00    +0.000 NA
ATOM     13  H   UNL     1       7.878   3.229  16.999  0.00  0.00    +0.000 HD
ATOM     14  H   UNL     1       7.162   4.605  17.529  0.00  0.00    +0.000 HD
ENDBRANCH  11  12
ENDBRANCH   9  11
ENDBRANCH   8   9
ENDBRANCH   2   8
ENDBRANCH   1   5
BRANCH   1  15
ATOM     15  C   UNL     1       1.603   7.560  20.294  0.00  0.00    +0.000 A 
ATOM     16  C   UNL     1       0.995   8.184  21.387  0.00  0.00    +0.000 A 
ATOM     17  C   UNL     1       0.536   9.499  21.279  0.00  0.00    +0.000 A 
ATOM     18  C   UNL     1       0.697  10.187  20.072  0.00  0.00    +0.000 A 
ATOM     19  C   UNL     1       1.313   9.579  18.979  0.00  0.00    +0.000 A 
ATOM     20  C   UNL     1       1.795   8.276  19.105  0.00  0.00    +0.000 A 
BRANCH  18  21
ATOM     21  S   UNL     1       0.078  11.848  19.917  0.00  0.00    +0.000 S 
ATOM     22  O   UNL     1      -0.896  12.050  20.968  0.00  0.00    +0.000 OA
ATOM     23  O   UNL     1       1.257  12.694  19.821  0.00  0.00    +0.000 OA
BRANCH  21  24
ATOM     24  C   UNL     1      -0.783  11.832  18.355  0.00  0.00    +0.000 C 
BRANCH  24  25
ATOM     25  C   UNL     1      -1.970  10.941  18.554  0.00  0.00    +0.000 C 
ATOM     26  C   UNL     1      -3.365  11.337  18.147  0.00  0.00    +0.000 C 
ATOM     27  S   UNL     1      -2.611  10.159  17.144  0.00  0.00    +0.000 S 
ENDBRANCH  24  25
ENDBRANCH  21  24
ENDBRANCH  18  21
ENDBRANCH   1  15
TORSDOF 9
ENDMDL
MODEL 6
REMARK VINA RESULT:      -6.6      1.738      2.103
REMARK  Name = 
REMARK  9 active torsions:
REMARK  status: ('A' for Active; 'I' for Inactive)
REMARK    1  A    between atoms: N_1  and  C_2
REMARK    2  A    between atoms: C_2  and  C_3
REMARK    3  A    between atoms: C_3  and  O_5
REMARK    4  A    between atoms: O_5  and  C_6
REMARK    5  A    between atoms: C_9  and  O_10
REMARK    6  A    between atoms: O_10  and  C_11
REMARK    7  A    between atoms: C_14  and  S_15
REMARK    8  A    between atoms: S_15  and  C_18
REMARK    9  A    between atoms: C_18  and  C_19
REMARK                            x       y       z     vdW  Elec       q    Type
REMARK                         _______ _______ _______ _____ _____    ______ ____
ROOT
ATOM      1  O   UNL     1       3.330   5.966  19.495  0.00  0.00    +0.000 OA
ENDROOT
BRANCH   1   5
ATOM      2  C   UNL     1       5.556   4.427  16.332  0.00  0.00    +0.000 A 
ATOM      3  C   UNL     1       4.222   4.062  16.501  0.00  0.00    +0.000 A 
ATOM      4  C   UNL     1       3.492   4.607  17.565  0.00  0.00    +0.000 A 
ATOM      5  C   UNL     1       4.102   5.504  18.452  0.00  0.00    +0.000 A 
ATOM      6  C   UNL     1       5.419   5.907  18.228  0.00  0.00    +0.000 A 
ATOM      7  C   UNL     1       6.162   5.331  17.205  0.00  0.00    +0.000 A 
BRANCH   2   8
ATOM      8  O   UNL     1       6.312   3.763  15.352  0.00  0.00    +0.000 OA
BRANCH   8   9
ATOM      9  C   UNL     1       6.519   4.440  14.148  0.00  0.00    +0.000 C 
ATOM     10  O   UNL     1       7.334   5.336  13.946  0.00  0.00    +0.000 OA
BRANCH   9  11
ATOM     11  C   UNL     1       5.678   3.778  13.061  0.00  0.00    +0.000 C 
BRANCH  11  12
ATOM     12  N   UNL     1       6.472   2.804  12.299  0.00  0.00    +0.000 NA
ATOM     13  H   UNL     1       5.995   2.582  11.428  0.00  0.00    +0.000 HD
ATOM     14  H   UNL     1       6.524   1.932  12.837  0.00  0.00    +0.000 HD
ENDBRANCH  11  12
ENDBRANCH   9  11
ENDBRANCH   8   9
ENDBRANCH   2   8
ENDBRANCH   1   5
BRANCH   1  15
ATOM     15  C   UNL     1       2.579   7.113  19.333  0.00  0.00    +0.000 A 
ATOM     16  C   UNL     1       1.881   7.552  20.462  0.00  0.00    +0.000 A 
ATOM     17  C   UNL     1       1.088   8.699  20.395  0.00  0.00    +0.000 A 
ATOM     18  C   UNL     1       1.005   9.409  19.194  0.00  0.00    +0.000 A 
ATOM     19  C   UNL     1       1.706   8.988  18.064  0.00  0.00    +0.000 A 
ATOM     20  C   UNL     1       2.519   7.858  18.148  0.00  0.00    +0.000 A 
BRANCH  18  21
ATOM     21  S   UNL     1      -0.036  10.848  19.093  0.00  0.00    +0.000 S 
ATOM     22  O   UNL     1      -0.901  10.682  17.945  0.00  0.00    +0.000 OA
ATOM     23  O   UNL     1      -0.592  11.020  20.426  0.00  0.00    +0.000 OA
BRANCH  21  24
ATOM     24  C   UNL     1       1.109  12.172  18.741  0.00  0.00    +0.000 C 
BRANCH  24  25
ATOM     25  C   UNL     1       0.719  13.297  19.647  0.00  0.00    +0.000 C 
ATOM     26  C   UNL     1       1.557  14.538  19.814  0.00  0.00    +0.000 C 
ATOM     27  S   UNL     1       0.117  14.740  18.893  0.00  0.00    +0.000 S 
ENDBRANCH  24  25
ENDBRANCH  21  24
ENDBRANCH  18  21
ENDBRANCH   1  15
TORSDOF 9
ENDMDL
MODEL 7
REMARK VINA RESULT:      -6.6      1.659      1.838
REMARK  Name = 
REMARK  9 active torsions:
REMARK  status: ('A' for Active; 'I' for Inactive)
REMARK    1  A    between atoms: N_1  and  C_2
REMARK    2  A    between atoms: C_2  and  C_3
REMARK    3  A    between atoms: C_3  and  O_5
REMARK    4  A    between atoms: O_5  and  C_6
REMARK    5  A    between atoms: C_9  and  O_10
REMARK    6  A    between atoms: O_10  and  C_11
REMARK    7  A    between atoms: C_14  and  S_15
REMARK    8  A    between atoms: S_15  and  C_18
REMARK    9  A    between atoms: C_18  and  C_19
REMARK                            x       y       z     vdW  Elec       q    Type
REMARK                         _______ _______ _______ _____ _____    ______ ____
ROOT
ATOM      1  O   UNL     1       2.934   5.718  19.927  0.00  0.00    +0.000 OA
ENDROOT
BRANCH   1   5
ATOM      2  C   UNL     1       5.353   4.095  16.954  0.00  0.00    +0.000 A 
ATOM      3  C   UNL     1       5.916   4.780  18.028  0.00  0.00    +0.000 A 
ATOM      4  C   UNL     1       5.080   5.303  19.022  0.00  0.00    +0.000 A 
ATOM      5  C   UNL     1       3.691   5.142  18.931  0.00  0.00    +0.000 A 
ATOM      6  C   UNL     1       3.150   4.396  17.883  0.00  0.00    +0.000 A 
ATOM      7  C   UNL     1       3.971   3.920  16.869  0.00  0.00    +0.000 A 
BRANCH   2   8
ATOM      8  O   UNL     1       6.190   3.705  15.896  0.00  0.00    +0.000 OA
BRANCH   8   9
ATOM      9  C   UNL     1       6.335   4.608  14.840  0.00  0.00    +0.000 C 
ATOM     10  O   UNL     1       7.068   5.592  14.818  0.00  0.00    +0.000 OA
BRANCH   9  11
ATOM     11  C   UNL     1       5.552   4.089  13.638  0.00  0.00    +0.000 C 
BRANCH  11  12
ATOM     12  N   UNL     1       6.362   3.150  12.847  0.00  0.00    +0.000 NA
ATOM     13  H   UNL     1       6.159   2.196  13.140  0.00  0.00    +0.000 HD
ATOM     14  H   UNL     1       7.352   3.317  13.054  0.00  0.00    +0.000 HD
ENDBRANCH  11  12
ENDBRANCH   9  11
ENDBRANCH   8   9
ENDBRANCH   2   8
ENDBRANCH   1   5
BRANCH   1  15
ATOM     15  C   UNL     1       2.345   6.948  19.712  0.00  0.00    +0.000 A 
ATOM     16  C   UNL     1       1.660   7.497  20.800  0.00  0.00    +0.000 A 
ATOM     17  C   UNL     1       1.025   8.736  20.678  0.00  0.00    +0.000 A 
ATOM     18  C   UNL     1       1.088   9.424  19.462  0.00  0.00    +0.000 A 
ATOM     19  C   UNL     1       1.778   8.892  18.374  0.00  0.00    +0.000 A 
ATOM     20  C   UNL     1       2.434   7.669  18.513  0.00  0.00    +0.000 A 
BRANCH  18  21
ATOM     21  S   UNL     1       0.247  10.982  19.290  0.00  0.00    +0.000 S 
ATOM     22  O   UNL     1      -0.527  10.927  18.069  0.00  0.00    +0.000 OA
ATOM     23  O   UNL     1      -0.398  11.219  20.572  0.00  0.00    +0.000 OA
BRANCH  21  24
ATOM     24  C   UNL     1       1.574  12.152  19.056  0.00  0.00    +0.000 C 
BRANCH  24  25
ATOM     25  C   UNL     1       0.913  13.457  18.736  0.00  0.00    +0.000 C 
ATOM     26  C   UNL     1       0.597  14.490  19.785  0.00  0.00    +0.000 C 
ATOM     27  S   UNL     1       1.919  14.871  18.750  0.00  0.00    +0.000 S 
ENDBRANCH  24  25
ENDBRANCH  21  24
ENDBRANCH  18  21
ENDBRANCH   1  15
TORSDOF 9
ENDMDL
MODEL 8
REMARK VINA RESULT:      -6.6      1.849      2.503
REMARK  Name = 
REMARK  9 active torsions:
REMARK  status: ('A' for Active; 'I' for Inactive)
REMARK    1  A    between atoms: N_1  and  C_2
REMARK    2  A    between atoms: C_2  and  C_3
REMARK    3  A    between atoms: C_3  and  O_5
REMARK    4  A    between atoms: O_5  and  C_6
REMARK    5  A    between atoms: C_9  and  O_10
REMARK    6  A    between atoms: O_10  and  C_11
REMARK    7  A    between atoms: C_14  and  S_15
REMARK    8  A    between atoms: S_15  and  C_18
REMARK    9  A    between atoms: C_18  and  C_19
REMARK                            x       y       z     vdW  Elec       q    Type
REMARK                         _______ _______ _______ _____ _____    ______ ____
ROOT
ATOM      1  O   UNL     1       2.024   6.028  20.475  0.00  0.00    +0.000 OA
ENDROOT
BRANCH   1   5
ATOM      2  C   UNL     1       4.197   4.468  17.286  0.00  0.00    +0.000 A 
ATOM      3  C   UNL     1       4.849   5.089  18.349  0.00  0.00    +0.000 A 
ATOM      4  C   UNL     1       4.094   5.592  19.416  0.00  0.00    +0.000 A 
ATOM      5  C   UNL     1       2.698   5.474  19.409  0.00  0.00    +0.000 A 
ATOM      6  C   UNL     1       2.069   4.791  18.367  0.00  0.00    +0.000 A 
ATOM      7  C   UNL     1       2.808   4.336  17.283  0.00  0.00    +0.000 A 
BRANCH   2   8
ATOM      8  O   UNL     1       4.953   4.101  16.160  0.00  0.00    +0.000 OA
BRANCH   8   9
ATOM      9  C   UNL     1       5.634   5.124  15.496  0.00  0.00    +0.000 C 
ATOM     10  O   UNL     1       5.214   6.257  15.277  0.00  0.00    +0.000 OA
BRANCH   9  11
ATOM     11  C   UNL     1       7.063   4.667  15.222  0.00  0.00    +0.000 C 
BRANCH  11  12
ATOM     12  N   UNL     1       7.819   4.518  16.474  0.00  0.00    +0.000 NA
ATOM     13  H   UNL     1       8.804   4.374  16.262  0.00  0.00    +0.000 HD
ATOM     14  H   UNL     1       7.494   3.671  16.953  0.00  0.00    +0.000 HD
ENDBRANCH  11  12
ENDBRANCH   9  11
ENDBRANCH   8   9
ENDBRANCH   2   8
ENDBRANCH   1   5
BRANCH   1  15
ATOM     15  C   UNL     1       1.632   7.350  20.422  0.00  0.00    +0.000 A 
ATOM     16  C   UNL     1       1.915   8.025  19.230  0.00  0.00    +0.000 A 
ATOM     17  C   UNL     1       1.564   9.369  19.083  0.00  0.00    +0.000 A 
ATOM     18  C   UNL     1       0.921  10.031  20.133  0.00  0.00    +0.000 A 
ATOM     19  C   UNL     1       0.623   9.365  21.323  0.00  0.00    +0.000 A 
ATOM     20  C   UNL     1       0.950   8.016  21.450  0.00  0.00    +0.000 A 
BRANCH  18  21
ATOM     21  S   UNL     1       0.508  11.753  19.966  0.00  0.00    +0.000 S 
ATOM     22  O   UNL     1       0.854  12.407  21.209  0.00  0.00    +0.000 OA
ATOM     23  O   UNL     1       1.107  12.175  18.709  0.00  0.00    +0.000 OA
BRANCH  21  24
ATOM     24  C   UNL     1      -1.270  11.747  19.816  0.00  0.00    +0.000 C 
BRANCH  24  25
ATOM     25  C   UNL     1      -1.554  11.650  18.350  0.00  0.00    +0.000 C 
ATOM     26  C   UNL     1      -1.778  10.338  17.646  0.00  0.00    +0.000 C 
ATOM     27  S   UNL     1      -3.188  11.294  17.887  0.00  0.00    +0.000 S 
ENDBRANCH  24  25
ENDBRANCH  21  24
ENDBRANCH  18  21
ENDBRANCH   1  15
TORSDOF 9
ENDMDL
MODEL 9
REMARK VINA RESULT:      -6.5      4.956      9.489
REMARK  Name = 
REMARK  9 active torsions:
REMARK  status: ('A' for Active; 'I' for Inactive)
REMARK    1  A    between atoms: N_1  and  C_2
REMARK    2  A    between atoms: C_2  and  C_3
REMARK    3  A    between atoms: C_3  and  O_5
REMARK    4  A    between atoms: O_5  and  C_6
REMARK    5  A    between atoms: C_9  and  O_10
REMARK    6  A    between atoms: O_10  and  C_11
REMARK    7  A    between atoms: C_14  and  S_15
REMARK    8  A    between atoms: S_15  and  C_18
REMARK    9  A    between atoms: C_18  and  C_19
REMARK                            x       y       z     vdW  Elec       q    Type
REMARK                         _______ _______ _______ _____ _____    ______ ____
ROOT
ATOM      1  O   UNL     1       0.439  10.841  19.335  0.00  0.00    +0.000 OA
ENDROOT
BRANCH   1   5
ATOM      2  C   UNL     1      -3.429  11.184  17.835  0.00  0.00    +0.000 A 
ATOM      3  C   UNL     1      -2.537  10.266  17.286  0.00  0.00    +0.000 A 
ATOM      4  C   UNL     1      -1.246  10.161  17.820  0.00  0.00    +0.000 A 
ATOM      5  C   UNL     1      -0.858  10.976  18.891  0.00  0.00    +0.000 A 
ATOM      6  C   UNL     1      -1.786  11.843  19.470  0.00  0.00    +0.000 A 
ATOM      7  C   UNL     1      -3.050  11.986  18.912  0.00  0.00    +0.000 A 
BRANCH   2   8
ATOM      8  O   UNL     1      -4.665  11.379  17.198  0.00  0.00    +0.000 OA
BRANCH   8   9
ATOM      9  C   UNL     1      -5.812  11.124  17.953  0.00  0.00    +0.000 C 
ATOM     10  O   UNL     1      -5.971  10.204  18.750  0.00  0.00    +0.000 OA
BRANCH   9  11
ATOM     11  C   UNL     1      -6.796  12.273  17.755  0.00  0.00    +0.000 C 
BRANCH  11  12
ATOM     12  N   UNL     1      -6.150  13.412  17.086  0.00  0.00    +0.000 NA
ATOM     13  H   UNL     1      -5.151  13.399  17.279  0.00  0.00    +0.000 HD
ATOM     14  H   UNL     1      -6.517  14.279  17.490  0.00  0.00    +0.000 HD
ENDBRANCH  11  12
ENDBRANCH   9  11
ENDBRANCH   8   9
ENDBRANCH   2   8
ENDBRANCH   1   5
BRANCH   1  15
ATOM     15  C   UNL     1       1.119   9.662  19.106  0.00  0.00    +0.000 A 
ATOM     16  C   UNL     1       1.169   8.766  20.178  0.00  0.00    +0.000 A 
ATOM     17  C   UNL     1       1.841   7.549  20.047  0.00  0.00    +0.000 A 
ATOM     18  C   UNL     1       2.455   7.230  18.832  0.00  0.00    +0.000 A 
ATOM     19  C   UNL     1       2.402   8.110  17.751  0.00  0.00    +0.000 A 
ATOM     20  C   UNL     1       1.704   9.310  17.882  0.00  0.00    +0.000 A 
BRANCH  18  21
ATOM     21  S   UNL     1       3.345   5.698  18.672  0.00  0.00    +0.000 S 
ATOM     22  O   UNL     1       2.717   4.937  17.614  0.00  0.00    +0.000 OA
ATOM     23  O   UNL     1       4.748   6.072  18.590  0.00  0.00    +0.000 OA
BRANCH  21  24
ATOM     24  C   UNL     1       3.031   4.865  20.219  0.00  0.00    +0.000 C 
BRANCH  24  25
ATOM     25  C   UNL     1       1.952   3.868  19.931  0.00  0.00    +0.000 C 
ATOM     26  C   UNL     1       2.219   2.391  19.806  0.00  0.00    +0.000 C 
ATOM     27  S   UNL     1       1.426   2.876  21.254  0.00  0.00    +0.000 S 
ENDBRANCH  24  25
ENDBRANCH  21  24
ENDBRANCH  18  21
ENDBRANCH   1  15
TORSDOF 9
ENDMDL
