MODEL 1
REMARK VINA RESULT:      -6.9      0.000      0.000
REMARK  Name = 
REMARK  10 active torsions:
REMARK  status: ('A' for Active; 'I' for Inactive)
REMARK    1  A    between atoms: C_1  and  C_2
REMARK    2  A    between atoms: C_2  and  C_3
REMARK    3  A    between atoms: C_3  and  C_4
REMARK    4  A    between atoms: C_16  and  C_17
REMARK    5  A    between atoms: C_16  and  C_18
REMARK    6  A    between atoms: C_22  and  C_23
REMARK    7  A    between atoms: C_23  and  C_24
REMARK    8  A    between atoms: C_23  and  C_25
REMARK    9  A    between atoms: C_26  and  C_27
REMARK   10  A    between atoms: C_28  and  O_29
REMARK                            x       y       z     vdW  Elec       q    Type
REMARK                         _______ _______ _______ _____ _____    ______ ____
ROOT
ATOM      1  C   UNL     1       0.514  10.466  20.199  0.00  0.00    +0.000 A 
ATOM      2  C   UNL     1       0.925   9.475  21.033  0.00  0.00    +0.000 A 
ATOM      3  C   UNL     1      -0.052   9.441  22.171  0.00  0.00    +0.000 A 
ATOM      4  O   UNL     1      -0.816   8.518  22.447  0.00  0.00    +0.000 OA
ATOM      5  O   UNL     1      -0.066  10.581  22.883  0.00  0.00    +0.000 OA
ATOM      6  C   UNL     1      -0.409  11.638  22.012  0.00  0.00    +0.000 A 
ATOM      7  C   UNL     1      -1.178  12.565  22.665  0.00  0.00    +0.000 A 
ATOM      8  C   UNL     1      -0.756  13.852  22.743  0.00  0.00    +0.000 A 
ATOM      9  C   UNL     1       0.369  14.194  21.992  0.00  0.00    +0.000 A 
ATOM     10  C   UNL     1       0.951  13.283  21.007  0.00  0.00    +0.000 A 
ATOM     11  C   UNL     1       0.425  11.897  20.936  0.00  0.00    +0.000 A 
ATOM     12  O   UNL     1       2.028  13.770  20.261  0.00  0.00    +0.000 OA
ATOM     13  C   UNL     1       2.467  15.225  20.408  0.00  0.00    +0.000 C 
ATOM     14  C   UNL     1       3.995  15.367  20.639  0.00  0.00    +0.000 C 
ATOM     15  C   UNL     1       2.126  16.014  19.117  0.00  0.00    +0.000 C 
ATOM     16  C   UNL     1       1.868  16.002  21.512  0.00  0.00    +0.000 C 
ATOM     17  C   UNL     1       0.883  15.534  22.277  0.00  0.00    +0.000 C 
ATOM     18  O   UNL     1      -1.357  14.745  23.585  0.00  0.00    +0.000 OA
ATOM     19  C   UNL     1      -2.708  14.454  24.013  0.00  0.00    +0.000 C 
ATOM     20  C   UNL     1      -2.970  12.946  24.260  0.00  0.00    +0.000 C 
ATOM     21  C   UNL     1      -4.429  12.594  24.512  0.00  0.00    +0.000 C 
ATOM     22  C   UNL     1      -2.532  12.165  23.043  0.00  0.00    +0.000 C 
ENDROOT
BRANCH  19  23
ATOM     23  C   UNL     1      -3.030  15.321  25.278  0.00  0.00    +0.000 C 
ATOM     24  C   UNL     1      -1.773  15.859  25.974  0.00  0.00    +0.000 C 
ATOM     25  C   UNL     1      -3.935  16.505  24.906  0.00  0.00    +0.000 C 
ENDBRANCH  19  23
BRANCH  22  26
ATOM     26  O   UNL     1      -3.394  12.441  21.902  0.00  0.00    +0.000 OA
ATOM     27  H   UNL     1      -4.296  12.617  22.257  0.00  0.00    +0.000 HD
ENDBRANCH  22  26
BRANCH   1  28
ATOM     28  C   UNL     1      -0.754   9.823  19.347  0.00  0.00    +0.000 C 
BRANCH  28  30
ATOM     29  C   UNL     1      -2.190   9.905  16.849  0.00  0.00    +0.000 C 
ATOM     30  C   UNL     1      -1.619  10.553  18.137  0.00  0.00    +0.000 C 
ENDBRANCH  28  30
ENDBRANCH   1  28
TORSDOF 4
ENDMDL
MODEL 2
REMARK VINA RESULT:      -6.9      2.673      5.673
REMARK  Name = 
REMARK  10 active torsions:
REMARK  status: ('A' for Active; 'I' for Inactive)
REMARK    1  A    between atoms: C_1  and  C_2
REMARK    2  A    between atoms: C_2  and  C_3
REMARK    3  A    between atoms: C_3  and  C_4
REMARK    4  A    between atoms: C_16  and  C_17
REMARK    5  A    between atoms: C_16  and  C_18
REMARK    6  A    between atoms: C_22  and  C_23
REMARK    7  A    between atoms: C_23  and  C_24
REMARK    8  A    between atoms: C_23  and  C_25
REMARK    9  A    between atoms: C_26  and  C_27
REMARK   10  A    between atoms: C_28  and  O_29
REMARK                            x       y       z     vdW  Elec       q    Type
REMARK                         _______ _______ _______ _____ _____    ______ ____
ROOT
ATOM      1  C   UNL     1       1.044  12.174  20.655  0.00  0.00    +0.000 A 
ATOM      2  C   UNL     1       1.335  10.883  20.962  0.00  0.00    +0.000 A 
ATOM      3  C   UNL     1       0.579  10.031  19.986  0.00  0.00    +0.000 A 
ATOM      4  O   UNL     1       1.068   9.295  19.131  0.00  0.00    +0.000 OA
ATOM      5  O   UNL     1      -0.753  10.175  20.088  0.00  0.00    +0.000 OA
ATOM      6  C   UNL     1      -1.067  11.531  19.856  0.00  0.00    +0.000 A 
ATOM      7  C   UNL     1      -2.258  11.639  19.186  0.00  0.00    +0.000 A 
ATOM      8  C   UNL     1      -3.277  12.344  19.737  0.00  0.00    +0.000 A 
ATOM      9  C   UNL     1      -2.989  13.071  20.892  0.00  0.00    +0.000 A 
ATOM     10  C   UNL     1      -1.621  13.246  21.378  0.00  0.00    +0.000 A 
ATOM     11  C   UNL     1      -0.536  12.483  20.713  0.00  0.00    +0.000 A 
ATOM     12  O   UNL     1      -1.454  14.064  22.500  0.00  0.00    +0.000 OA
ATOM     13  C   UNL     1      -2.646  14.817  23.085  0.00  0.00    +0.000 C 
ATOM     14  C   UNL     1      -2.778  14.625  24.619  0.00  0.00    +0.000 C 
ATOM     15  C   UNL     1      -2.490  16.338  22.828  0.00  0.00    +0.000 C 
ATOM     16  C   UNL     1      -3.985  14.466  22.568  0.00  0.00    +0.000 C 
ATOM     17  C   UNL     1      -4.172  13.640  21.540  0.00  0.00    +0.000 C 
ATOM     18  O   UNL     1      -4.544  12.271  19.230  0.00  0.00    +0.000 OA
ATOM     19  C   UNL     1      -4.690  11.842  17.856  0.00  0.00    +0.000 C 
ATOM     20  C   UNL     1      -3.686  10.736  17.441  0.00  0.00    +0.000 C 
ATOM     21  C   UNL     1      -3.684  10.415  15.953  0.00  0.00    +0.000 C 
ATOM     22  C   UNL     1      -2.287  11.183  17.797  0.00  0.00    +0.000 C 
ENDROOT
BRANCH  19  23
ATOM     23  C   UNL     1      -6.177  11.403  17.624  0.00  0.00    +0.000 C 
ATOM     24  C   UNL     1      -6.717  10.498  18.738  0.00  0.00    +0.000 C 
ATOM     25  C   UNL     1      -7.089  12.632  17.497  0.00  0.00    +0.000 C 
ENDBRANCH  19  23
BRANCH  22  26
ATOM     26  O   UNL     1      -1.865  12.304  16.969  0.00  0.00    +0.000 OA
ATOM     27  H   UNL     1      -2.408  13.082  17.237  0.00  0.00    +0.000 HD
ENDBRANCH  22  26
BRANCH   1  28
ATOM     28  C   UNL     1       1.973  12.529  19.328  0.00  0.00    +0.000 C 
BRANCH  28  30
ATOM     29  C   UNL     1       1.287  15.283  18.826  0.00  0.00    +0.000 C 
ATOM     30  C   UNL     1       2.105  13.992  18.562  0.00  0.00    +0.000 C 
ENDBRANCH  28  30
ENDBRANCH   1  28
TORSDOF 4
ENDMDL
MODEL 3
REMARK VINA RESULT:      -6.8      1.689      1.966
REMARK  Name = 
REMARK  10 active torsions:
REMARK  status: ('A' for Active; 'I' for Inactive)
REMARK    1  A    between atoms: C_1  and  C_2
REMARK    2  A    between atoms: C_2  and  C_3
REMARK    3  A    between atoms: C_3  and  C_4
REMARK    4  A    between atoms: C_16  and  C_17
REMARK    5  A    between atoms: C_16  and  C_18
REMARK    6  A    between atoms: C_22  and  C_23
REMARK    7  A    between atoms: C_23  and  C_24
REMARK    8  A    between atoms: C_23  and  C_25
REMARK    9  A    between atoms: C_26  and  C_27
REMARK   10  A    between atoms: C_28  and  O_29
REMARK                            x       y       z     vdW  Elec       q    Type
REMARK                         _______ _______ _______ _____ _____    ______ ____
ROOT
ATOM      1  C   UNL     1      -0.608  11.717  18.622  0.00  0.00    +0.000 A 
ATOM      2  C   UNL     1       0.260  10.821  19.162  0.00  0.00    +0.000 A 
ATOM      3  C   UNL     1      -0.255  10.500  20.533  0.00  0.00    +0.000 A 
ATOM      4  O   UNL     1      -0.666   9.408  20.919  0.00  0.00    +0.000 OA
ATOM      5  O   UNL     1      -0.280  11.570  21.346  0.00  0.00    +0.000 OA
ATOM      6  C   UNL     1      -1.111  12.548  20.760  0.00  0.00    +0.000 A 
ATOM      7  C   UNL     1      -1.803  13.231  21.726  0.00  0.00    +0.000 A 
ATOM      8  C   UNL     1      -1.668  14.577  21.823  0.00  0.00    +0.000 A 
ATOM      9  C   UNL     1      -0.956  15.215  20.808  0.00  0.00    +0.000 A 
ATOM     10  C   UNL     1      -0.549  14.518  19.588  0.00  0.00    +0.000 A 
ATOM     11  C   UNL     1      -0.756  13.050  19.517  0.00  0.00    +0.000 A 
ATOM     12  O   UNL     1       0.088  15.285  18.609  0.00  0.00    +0.000 OA
ATOM     13  C   UNL     1       0.225  16.796  18.787  0.00  0.00    +0.000 C 
ATOM     14  C   UNL     1       1.674  17.296  18.548  0.00  0.00    +0.000 C 
ATOM     15  C   UNL     1      -0.685  17.533  17.771  0.00  0.00    +0.000 C 
ATOM     16  C   UNL     1      -0.129  17.354  20.108  0.00  0.00    +0.000 C 
ATOM     17  C   UNL     1      -0.680  16.626  21.079  0.00  0.00    +0.000 C 
ATOM     18  O   UNL     1      -2.136  15.259  22.911  0.00  0.00    +0.000 OA
ATOM     19  C   UNL     1      -3.173  14.628  23.699  0.00  0.00    +0.000 C 
ATOM     20  C   UNL     1      -3.006  13.093  23.831  0.00  0.00    +0.000 C 
ATOM     21  C   UNL     1      -4.187  12.384  24.480  0.00  0.00    +0.000 C 
ATOM     22  C   UNL     1      -2.836  12.496  22.453  0.00  0.00    +0.000 C 
ENDROOT
BRANCH  19  23
ATOM     23  C   UNL     1      -3.239  15.335  25.097  0.00  0.00    +0.000 C 
ATOM     24  C   UNL     1      -1.858  15.548  25.728  0.00  0.00    +0.000 C 
ATOM     25  C   UNL     1      -3.946  16.693  24.982  0.00  0.00    +0.000 C 
ENDBRANCH  19  23
BRANCH  22  26
ATOM     26  O   UNL     1      -4.064  12.603  21.678  0.00  0.00    +0.000 OA
ATOM     27  H   UNL     1      -4.222  13.562  21.517  0.00  0.00    +0.000 HD
ENDBRANCH  22  26
BRANCH   1  28
ATOM     28  C   UNL     1      -1.915  10.822  18.134  0.00  0.00    +0.000 C 
BRANCH  28  30
ATOM     29  C   UNL     1      -2.874  10.044  15.530  0.00  0.00    +0.000 C 
ATOM     30  C   UNL     1      -2.013   9.839  16.804  0.00  0.00    +0.000 C 
ENDBRANCH  28  30
ENDBRANCH   1  28
TORSDOF 4
ENDMDL
MODEL 4
REMARK VINA RESULT:      -6.3      1.051      1.143
REMARK  Name = 
REMARK  10 active torsions:
REMARK  status: ('A' for Active; 'I' for Inactive)
REMARK    1  A    between atoms: C_1  and  C_2
REMARK    2  A    between atoms: C_2  and  C_3
REMARK    3  A    between atoms: C_3  and  C_4
REMARK    4  A    between atoms: C_16  and  C_17
REMARK    5  A    between atoms: C_16  and  C_18
REMARK    6  A    between atoms: C_22  and  C_23
REMARK    7  A    between atoms: C_23  and  C_24
REMARK    8  A    between atoms: C_23  and  C_25
REMARK    9  A    between atoms: C_26  and  C_27
REMARK   10  A    between atoms: C_28  and  O_29
REMARK                            x       y       z     vdW  Elec       q    Type
REMARK                         _______ _______ _______ _____ _____    ______ ____
ROOT
ATOM      1  C   UNL     1       0.229  11.274  19.305  0.00  0.00    +0.000 A 
ATOM      2  C   UNL     1       0.930  10.347  20.009  0.00  0.00    +0.000 A 
ATOM      3  C   UNL     1       0.176  10.120  21.286  0.00  0.00    +0.000 A 
ATOM      4  O   UNL     1      -0.371   9.075  21.632  0.00  0.00    +0.000 OA
ATOM      5  O   UNL     1       0.097  11.223  22.049  0.00  0.00    +0.000 OA
ATOM      6  C   UNL     1      -0.554  12.228  21.302  0.00  0.00    +0.000 A 
ATOM      7  C   UNL     1      -1.342  12.997  22.118  0.00  0.00    +0.000 A 
ATOM      8  C   UNL     1      -1.128  14.334  22.193  0.00  0.00    +0.000 A 
ATOM      9  C   UNL     1      -0.215  14.879  21.290  0.00  0.00    +0.000 A 
ATOM     10  C   UNL     1       0.334  14.103  20.178  0.00  0.00    +0.000 A 
ATOM     11  C   UNL     1       0.034  12.651  20.120  0.00  0.00    +0.000 A 
ATOM     12  O   UNL     1       1.177  14.784  19.294  0.00  0.00    +0.000 OA
ATOM     13  C   UNL     1       1.392  16.288  19.444  0.00  0.00    +0.000 C 
ATOM     14  C   UNL     1       2.894  16.680  19.434  0.00  0.00    +0.000 C 
ATOM     15  C   UNL     1       0.716  17.040  18.268  0.00  0.00    +0.000 C 
ATOM     16  C   UNL     1       0.869  16.925  20.670  0.00  0.00    +0.000 C 
ATOM     17  C   UNL     1       0.115  16.279  21.558  0.00  0.00    +0.000 C 
ATOM     18  O   UNL     1      -1.716  15.092  23.166  0.00  0.00    +0.000 OA
ATOM     19  C   UNL     1      -2.911  14.566  23.791  0.00  0.00    +0.000 C 
ATOM     20  C   UNL     1      -2.879  13.031  23.998  0.00  0.00    +0.000 C 
ATOM     21  C   UNL     1      -4.199  12.431  24.463  0.00  0.00    +0.000 C 
ATOM     22  C   UNL     1      -2.531  12.365  22.687  0.00  0.00    +0.000 C 
ENDROOT
BRANCH  19  23
ATOM     23  C   UNL     1      -3.152  15.335  25.135  0.00  0.00    +0.000 C 
ATOM     24  C   UNL     1      -1.851  15.761  25.826  0.00  0.00    +0.000 C 
ATOM     25  C   UNL     1      -4.017  16.582  24.897  0.00  0.00    +0.000 C 
ENDBRANCH  19  23
BRANCH  22  26
ATOM     26  O   UNL     1      -3.605  12.519  21.716  0.00  0.00    +0.000 OA
ATOM     27  H   UNL     1      -3.882  13.465  21.739  0.00  0.00    +0.000 HD
ENDBRANCH  22  26
BRANCH   1  28
ATOM     28  C   UNL     1      -1.042  10.448  18.635  0.00  0.00    +0.000 C 
BRANCH  28  30
ATOM     29  C   UNL     1      -3.717  10.316  17.568  0.00  0.00    +0.000 C 
ATOM     30  C   UNL     1      -2.547  11.044  18.282  0.00  0.00    +0.000 C 
ENDBRANCH  28  30
ENDBRANCH   1  28
TORSDOF 4
ENDMDL
MODEL 5
REMARK VINA RESULT:      -6.2      2.216      5.093
REMARK  Name = 
REMARK  10 active torsions:
REMARK  status: ('A' for Active; 'I' for Inactive)
REMARK    1  A    between atoms: C_1  and  C_2
REMARK    2  A    between atoms: C_2  and  C_3
REMARK    3  A    between atoms: C_3  and  C_4
REMARK    4  A    between atoms: C_16  and  C_17
REMARK    5  A    between atoms: C_16  and  C_18
REMARK    6  A    between atoms: C_22  and  C_23
REMARK    7  A    between atoms: C_23  and  C_24
REMARK    8  A    between atoms: C_23  and  C_25
REMARK    9  A    between atoms: C_26  and  C_27
REMARK   10  A    between atoms: C_28  and  O_29
REMARK                            x       y       z     vdW  Elec       q    Type
REMARK                         _______ _______ _______ _____ _____    ______ ____
ROOT
ATOM      1  C   UNL     1       0.738  11.646  19.994  0.00  0.00    +0.000 A 
ATOM      2  C   UNL     1       1.406  12.829  19.979  0.00  0.00    +0.000 A 
ATOM      3  C   UNL     1       0.817  13.667  21.076  0.00  0.00    +0.000 A 
ATOM      4  O   UNL     1       1.397  14.052  22.089  0.00  0.00    +0.000 OA
ATOM      5  O   UNL     1      -0.484  13.941  20.882  0.00  0.00    +0.000 OA
ATOM      6  C   UNL     1      -1.185  12.719  20.809  0.00  0.00    +0.000 A 
ATOM      7  C   UNL     1      -2.423  12.841  21.384  0.00  0.00    +0.000 A 
ATOM      8  C   UNL     1      -3.533  12.583  20.649  0.00  0.00    +0.000 A 
ATOM      9  C   UNL     1      -3.338  12.033  19.381  0.00  0.00    +0.000 A 
ATOM     10  C   UNL     1      -2.028  11.559  18.935  0.00  0.00    +0.000 A 
ATOM     11  C   UNL     1      -0.851  11.831  19.797  0.00  0.00    +0.000 A 
ATOM     12  O   UNL     1      -1.976  10.954  17.676  0.00  0.00    +0.000 OA
ATOM     13  C   UNL     1      -3.261  10.708  16.889  0.00  0.00    +0.000 C 
ATOM     14  C   UNL     1      -3.171  11.215  15.425  0.00  0.00    +0.000 C 
ATOM     15  C   UNL     1      -3.562   9.188  16.827  0.00  0.00    +0.000 C 
ATOM     16  C   UNL     1      -4.497  11.333  17.404  0.00  0.00    +0.000 C 
ATOM     17  C   UNL     1      -4.555  11.969  18.573  0.00  0.00    +0.000 C 
ATOM     18  O   UNL     1      -4.777  12.928  21.099  0.00  0.00    +0.000 OA
ATOM     19  C   UNL     1      -4.943  13.115  22.524  0.00  0.00    +0.000 C 
ATOM     20  C   UNL     1      -3.722  13.779  23.209  0.00  0.00    +0.000 C 
ATOM     21  C   UNL     1      -3.789  13.801  24.730  0.00  0.00    +0.000 C 
ATOM     22  C   UNL     1      -2.472  13.017  22.834  0.00  0.00    +0.000 C 
ENDROOT
BRANCH  19  23
ATOM     23  C   UNL     1      -6.265  13.919  22.772  0.00  0.00    +0.000 C 
ATOM     24  C   UNL     1      -6.964  14.343  21.474  0.00  0.00    +0.000 C 
ATOM     25  C   UNL     1      -7.248  13.095  23.617  0.00  0.00    +0.000 C 
ENDBRANCH  19  23
BRANCH  22  26
ATOM     26  O   UNL     1      -2.468  11.687  23.427  0.00  0.00    +0.000 OA
ATOM     27  H   UNL     1      -3.297  11.602  23.954  0.00  0.00    +0.000 HD
ENDBRANCH  22  26
BRANCH   1  28
ATOM     28  C   UNL     1       1.385  10.792  21.259  0.00  0.00    +0.000 C 
BRANCH  28  30
ATOM     29  C   UNL     1      -0.462   8.632  21.738  0.00  0.00    +0.000 C 
ATOM     30  C   UNL     1       0.627   9.643  22.181  0.00  0.00    +0.000 C 
ENDBRANCH  28  30
ENDBRANCH   1  28
TORSDOF 4
ENDMDL
MODEL 6
REMARK VINA RESULT:      -6.2      2.098      6.056
REMARK  Name = 
REMARK  10 active torsions:
REMARK  status: ('A' for Active; 'I' for Inactive)
REMARK    1  A    between atoms: C_1  and  C_2
REMARK    2  A    between atoms: C_2  and  C_3
REMARK    3  A    between atoms: C_3  and  C_4
REMARK    4  A    between atoms: C_16  and  C_17
REMARK    5  A    between atoms: C_16  and  C_18
REMARK    6  A    between atoms: C_22  and  C_23
REMARK    7  A    between atoms: C_23  and  C_24
REMARK    8  A    between atoms: C_23  and  C_25
REMARK    9  A    between atoms: C_26  and  C_27
REMARK   10  A    between atoms: C_28  and  O_29
REMARK                            x       y       z     vdW  Elec       q    Type
REMARK                         _______ _______ _______ _____ _____    ______ ____
ROOT
ATOM      1  C   UNL     1      -3.362  15.082  23.371  0.00  0.00    +0.000 A 
ATOM      2  C   UNL     1      -4.604  14.551  23.219  0.00  0.00    +0.000 A 
ATOM      3  C   UNL     1      -4.415  13.084  22.971  0.00  0.00    +0.000 A 
ATOM      4  O   UNL     1      -4.781  12.169  23.705  0.00  0.00    +0.000 OA
ATOM      5  O   UNL     1      -3.731  12.828  21.843  0.00  0.00    +0.000 OA
ATOM      6  C   UNL     1      -2.466  13.445  21.947  0.00  0.00    +0.000 A 
ATOM      7  C   UNL     1      -1.506  12.674  21.345  0.00  0.00    +0.000 A 
ATOM      8  C   UNL     1      -0.768  13.191  20.332  0.00  0.00    +0.000 A 
ATOM      9  C   UNL     1      -0.915  14.554  20.075  0.00  0.00    +0.000 A 
ATOM     10  C   UNL     1      -1.660  15.437  20.972  0.00  0.00    +0.000 A 
ATOM     11  C   UNL     1      -2.418  14.823  22.091  0.00  0.00    +0.000 A 
ATOM     12  O   UNL     1      -1.669  16.797  20.650  0.00  0.00    +0.000 OA
ATOM     13  C   UNL     1      -0.830  17.314  19.483  0.00  0.00    +0.000 C 
ATOM     14  C   UNL     1      -1.644  18.213  18.515  0.00  0.00    +0.000 C 
ATOM     15  C   UNL     1       0.349  18.169  20.017  0.00  0.00    +0.000 C 
ATOM     16  C   UNL     1      -0.214  16.306  18.596  0.00  0.00    +0.000 C 
ATOM     17  C   UNL     1      -0.248  14.999  18.851  0.00  0.00    +0.000 C 
ATOM     18  O   UNL     1       0.016  12.392  19.547  0.00  0.00    +0.000 OA
ATOM     19  C   UNL     1       0.423  11.114  20.091  0.00  0.00    +0.000 C 
ATOM     20  C   UNL     1      -0.671  10.428  20.948  0.00  0.00    +0.000 C 
ATOM     21  C   UNL     1      -0.199   9.187  21.694  0.00  0.00    +0.000 C 
ATOM     22  C   UNL     1      -1.167  11.406  21.988  0.00  0.00    +0.000 C 
ENDROOT
BRANCH  19  23
ATOM     23  C   UNL     1       0.906  10.200  18.913  0.00  0.00    +0.000 C 
ATOM     24  C   UNL     1      -0.219   9.828  17.940  0.00  0.00    +0.000 C 
ATOM     25  C   UNL     1       2.035  10.884  18.126  0.00  0.00    +0.000 C 
ENDBRANCH  19  23
BRANCH  22  26
ATOM     26  O   UNL     1      -0.138  11.689  22.978  0.00  0.00    +0.000 OA
ATOM     27  H   UNL     1       0.051  10.844  23.449  0.00  0.00    +0.000 HD
ENDBRANCH  22  26
BRANCH   1  28
ATOM     28  C   UNL     1      -2.901  14.683  24.913  0.00  0.00    +0.000 C 
BRANCH  28  30
ATOM     29  C   UNL     1      -1.156  16.856  25.650  0.00  0.00    +0.000 C 
ATOM     30  C   UNL     1      -1.752  15.436  25.839  0.00  0.00    +0.000 C 
ENDBRANCH  28  30
ENDBRANCH   1  28
TORSDOF 4
ENDMDL
MODEL 7
REMARK VINA RESULT:      -6.1      3.412      4.789
REMARK  Name = 
REMARK  10 active torsions:
REMARK  status: ('A' for Active; 'I' for Inactive)
REMARK    1  A    between atoms: C_1  and  C_2
REMARK    2  A    between atoms: C_2  and  C_3
REMARK    3  A    between atoms: C_3  and  C_4
REMARK    4  A    between atoms: C_16  and  C_17
REMARK    5  A    between atoms: C_16  and  C_18
REMARK    6  A    between atoms: C_22  and  C_23
REMARK    7  A    between atoms: C_23  and  C_24
REMARK    8  A    between atoms: C_23  and  C_25
REMARK    9  A    between atoms: C_26  and  C_27
REMARK   10  A    between atoms: C_28  and  O_29
REMARK                            x       y       z     vdW  Elec       q    Type
REMARK                         _______ _______ _______ _____ _____    ______ ____
ROOT
ATOM      1  C   UNL     1      -5.140  11.591  18.148  0.00  0.00    +0.000 A 
ATOM      2  C   UNL     1      -5.958  10.611  18.615  0.00  0.00    +0.000 A 
ATOM      3  C   UNL     1      -6.705  11.196  19.777  0.00  0.00    +0.000 A 
ATOM      4  O   UNL     1      -7.917  11.392  19.840  0.00  0.00    +0.000 OA
ATOM      5  O   UNL     1      -5.897  11.558  20.789  0.00  0.00    +0.000 OA
ATOM      6  C   UNL     1      -4.982  12.514  20.300  0.00  0.00    +0.000 A 
ATOM      7  C   UNL     1      -4.708  13.450  21.263  0.00  0.00    +0.000 A 
ATOM      8  C   UNL     1      -3.430  13.636  21.674  0.00  0.00    +0.000 A 
ATOM      9  C   UNL     1      -2.433  12.974  20.958  0.00  0.00    +0.000 A 
ATOM     10  C   UNL     1      -2.712  12.280  19.701  0.00  0.00    +0.000 A 
ATOM     11  C   UNL     1      -4.127  12.140  19.275  0.00  0.00    +0.000 A 
ATOM     12  O   UNL     1      -1.617  11.723  19.034  0.00  0.00    +0.000 OA
ATOM     13  C   UNL     1      -0.201  11.954  19.559  0.00  0.00    +0.000 C 
ATOM     14  C   UNL     1       0.611  10.637  19.682  0.00  0.00    +0.000 C 
ATOM     15  C   UNL     1       0.578  12.882  18.592  0.00  0.00    +0.000 C 
ATOM     16  C   UNL     1      -0.070  12.576  20.893  0.00  0.00    +0.000 C 
ATOM     17  C   UNL     1      -1.108  13.058  21.574  0.00  0.00    +0.000 C 
ATOM     18  O   UNL     1      -3.144  14.370  22.792  0.00  0.00    +0.000 OA
ATOM     19  C   UNL     1      -4.138  15.322  23.237  0.00  0.00    +0.000 C 
ATOM     20  C   UNL     1      -5.596  14.828  23.056  0.00  0.00    +0.000 C 
ATOM     21  C   UNL     1      -6.657  15.886  23.326  0.00  0.00    +0.000 C 
ATOM     22  C   UNL     1      -5.786  14.368  21.629  0.00  0.00    +0.000 C 
ENDROOT
BRANCH  19  23
ATOM     23  C   UNL     1      -3.830  15.708  24.725  0.00  0.00    +0.000 C 
ATOM     24  C   UNL     1      -2.634  14.946  25.308  0.00  0.00    +0.000 C 
ATOM     25  C   UNL     1      -3.563  17.216  24.847  0.00  0.00    +0.000 C 
ENDBRANCH  19  23
BRANCH  22  26
ATOM     26  O   UNL     1      -5.726  15.489  20.702  0.00  0.00    +0.000 OA
ATOM     27  H   UNL     1      -6.563  15.479  20.181  0.00  0.00    +0.000 HD
ENDBRANCH  22  26
BRANCH   1  28
ATOM     28  C   UNL     1      -6.118  12.595  17.264  0.00  0.00    +0.000 C 
BRANCH  28  30
ATOM     29  C   UNL     1      -7.126  15.253  16.787  0.00  0.00    +0.000 C 
ATOM     30  C   UNL     1      -6.683  14.087  17.709  0.00  0.00    +0.000 C 
ENDBRANCH  28  30
ENDBRANCH   1  28
TORSDOF 4
ENDMDL
MODEL 8
REMARK VINA RESULT:      -6.1      2.561      5.061
REMARK  Name = 
REMARK  10 active torsions:
REMARK  status: ('A' for Active; 'I' for Inactive)
REMARK    1  A    between atoms: C_1  and  C_2
REMARK    2  A    between atoms: C_2  and  C_3
REMARK    3  A    between atoms: C_3  and  C_4
REMARK    4  A    between atoms: C_16  and  C_17
REMARK    5  A    between atoms: C_16  and  C_18
REMARK    6  A    between atoms: C_22  and  C_23
REMARK    7  A    between atoms: C_23  and  C_24
REMARK    8  A    between atoms: C_23  and  C_25
REMARK    9  A    between atoms: C_26  and  C_27
REMARK   10  A    between atoms: C_28  and  O_29
REMARK                            x       y       z     vdW  Elec       q    Type
REMARK                         _______ _______ _______ _____ _____    ______ ____
ROOT
ATOM      1  C   UNL     1      -0.538  11.250  19.362  0.00  0.00    +0.000 A 
ATOM      2  C   UNL     1       0.409  12.043  18.796  0.00  0.00    +0.000 A 
ATOM      3  C   UNL     1       0.764  13.082  19.817  0.00  0.00    +0.000 A 
ATOM      4  O   UNL     1       1.854  13.219  20.369  0.00  0.00    +0.000 OA
ATOM      5  O   UNL     1      -0.274  13.871  20.142  0.00  0.00    +0.000 OA
ATOM      6  C   UNL     1      -1.304  13.054  20.655  0.00  0.00    +0.000 A 
ATOM      7  C   UNL     1      -1.974  13.701  21.660  0.00  0.00    +0.000 A 
ATOM      8  C   UNL     1      -3.310  13.911  21.549  0.00  0.00    +0.000 A 
ATOM      9  C   UNL     1      -3.960  13.293  20.481  0.00  0.00    +0.000 A 
ATOM     10  C   UNL     1      -3.295  12.300  19.638  0.00  0.00    +0.000 A 
ATOM     11  C   UNL     1      -1.840  12.079  19.827  0.00  0.00    +0.000 A 
ATOM     12  O   UNL     1      -4.076  11.692  18.650  0.00  0.00    +0.000 OA
ATOM     13  C   UNL     1      -5.572  11.984  18.567  0.00  0.00    +0.000 C 
ATOM     14  C   UNL     1      -6.027  12.363  17.133  0.00  0.00    +0.000 C 
ATOM     15  C   UNL     1      -6.381  10.729  18.986  0.00  0.00    +0.000 C 
ATOM     16  C   UNL     1      -6.092  13.085  19.405  0.00  0.00    +0.000 C 
ATOM     17  C   UNL     1      -5.349  13.721  20.309  0.00  0.00    +0.000 C 
ATOM     18  O   UNL     1      -3.966  14.759  22.397  0.00  0.00    +0.000 OA
ATOM     19  C   UNL     1      -3.345  15.041  23.673  0.00  0.00    +0.000 C 
ATOM     20  C   UNL     1      -1.800  15.151  23.600  0.00  0.00    +0.000 C 
ATOM     21  C   UNL     1      -1.112  15.244  24.955  0.00  0.00    +0.000 C 
ATOM     22  C   UNL     1      -1.251  13.924  22.910  0.00  0.00    +0.000 C 
ENDROOT
BRANCH  19  23
ATOM     23  C   UNL     1      -3.999  16.332  24.274  0.00  0.00    +0.000 C 
ATOM     24  C   UNL     1      -3.576  17.614  23.546  0.00  0.00    +0.000 C 
ATOM     25  C   UNL     1      -5.531  16.227  24.242  0.00  0.00    +0.000 C 
ENDBRANCH  19  23
BRANCH  22  26
ATOM     26  O   UNL     1      -1.433  12.734  23.728  0.00  0.00    +0.000 OA
ATOM     27  H   UNL     1      -1.904  12.070  23.173  0.00  0.00    +0.000 HD
ENDBRANCH  22  26
BRANCH   1  28
ATOM     28  C   UNL     1       0.288  10.242  20.385  0.00  0.00    +0.000 C 
BRANCH  28  30
ATOM     29  C   UNL     1      -0.260   9.608  23.143  0.00  0.00    +0.000 C 
ATOM     30  C   UNL     1      -0.342   9.333  21.619  0.00  0.00    +0.000 C 
ENDBRANCH  28  30
ENDBRANCH   1  28
TORSDOF 4
ENDMDL
MODEL 9
REMARK VINA RESULT:      -6.1      1.876      6.328
REMARK  Name = 
REMARK  10 active torsions:
REMARK  status: ('A' for Active; 'I' for Inactive)
REMARK    1  A    between atoms: C_1  and  C_2
REMARK    2  A    between atoms: C_2  and  C_3
REMARK    3  A    between atoms: C_3  and  C_4
REMARK    4  A    between atoms: C_16  and  C_17
REMARK    5  A    between atoms: C_16  and  C_18
REMARK    6  A    between atoms: C_22  and  C_23
REMARK    7  A    between atoms: C_23  and  C_24
REMARK    8  A    between atoms: C_23  and  C_25
REMARK    9  A    between atoms: C_26  and  C_27
REMARK   10  A    between atoms: C_28  and  O_29
REMARK                            x       y       z     vdW  Elec       q    Type
REMARK                         _______ _______ _______ _____ _____    ______ ____
ROOT
ATOM      1  C   UNL     1       0.012  16.696  19.683  0.00  0.00    +0.000 A 
ATOM      2  C   UNL     1       1.347  16.947  19.697  0.00  0.00    +0.000 A 
ATOM      3  C   UNL     1       2.025  15.682  19.260  0.00  0.00    +0.000 A 
ATOM      4  O   UNL     1       2.686  15.527  18.236  0.00  0.00    +0.000 OA
ATOM      5  O   UNL     1       1.803  14.654  20.097  0.00  0.00    +0.000 OA
ATOM      6  C   UNL     1       0.410  14.433  20.161  0.00  0.00    +0.000 A 
ATOM      7  C   UNL     1       0.143  13.094  20.277  0.00  0.00    +0.000 A 
ATOM      8  C   UNL     1      -0.559  12.639  21.344  0.00  0.00    +0.000 A 
ATOM      9  C   UNL     1      -1.125  13.600  22.184  0.00  0.00    +0.000 A 
ATOM     10  C   UNL     1      -1.147  15.020  21.833  0.00  0.00    +0.000 A 
ATOM     11  C   UNL     1      -0.395  15.458  20.631  0.00  0.00    +0.000 A 
ATOM     12  O   UNL     1      -1.814  15.874  22.717  0.00  0.00    +0.000 OA
ATOM     13  C   UNL     1      -2.572  15.301  23.912  0.00  0.00    +0.000 C 
ATOM     14  C   UNL     1      -2.210  16.010  25.244  0.00  0.00    +0.000 C 
ATOM     15  C   UNL     1      -4.099  15.475  23.703  0.00  0.00    +0.000 C 
ATOM     16  C   UNL     1      -2.377  13.867  24.210  0.00  0.00    +0.000 C 
ATOM     17  C   UNL     1      -1.693  13.048  23.414  0.00  0.00    +0.000 C 
ATOM     18  O   UNL     1      -0.634  11.304  21.628  0.00  0.00    +0.000 OA
ATOM     19  C   UNL     1      -0.380  10.377  20.546  0.00  0.00    +0.000 C 
ATOM     20  C   UNL     1       0.735  10.845  19.576  0.00  0.00    +0.000 C 
ATOM     21  C   UNL     1       0.878   9.990  18.324  0.00  0.00    +0.000 C 
ATOM     22  C   UNL     1       0.430  12.252  19.117  0.00  0.00    +0.000 C 
ENDROOT
BRANCH  19  23
ATOM     23  C   UNL     1      -0.075   8.967  21.157  0.00  0.00    +0.000 C 
ATOM     24  C   UNL     1       1.413   8.598  21.104  0.00  0.00    +0.000 C 
ATOM     25  C   UNL     1      -0.551   8.895  22.616  0.00  0.00    +0.000 C 
ENDBRANCH  19  23
BRANCH  22  26
ATOM     26  O   UNL     1      -0.750  12.284  18.264  0.00  0.00    +0.000 OA
ATOM     27  H   UNL     1      -0.508  11.835  17.420  0.00  0.00    +0.000 HD
ENDBRANCH  22  26
BRANCH   1  28
ATOM     28  C   UNL     1      -0.432  16.780  18.088  0.00  0.00    +0.000 C 
BRANCH  28  30
ATOM     29  C   UNL     1       0.925  18.631  16.343  0.00  0.00    +0.000 C 
ATOM     30  C   UNL     1      -0.327  18.097  17.088  0.00  0.00    +0.000 C 
ENDBRANCH  28  30
ENDBRANCH   1  28
TORSDOF 4
ENDMDL
