MODEL 1
REMARK VINA RESULT:      -7.6      0.000      0.000
REMARK  Name = 
REMARK  8 active torsions:
REMARK  status: ('A' for Active; 'I' for Inactive)
REMARK    1  A    between atoms: C_1  and  O_2
REMARK    2  A    between atoms: O_2  and  C_3
REMARK    3  A    between atoms: C_5  and  O_6
REMARK    4  A    between atoms: O_6  and  C_7
REMARK    5  A    between atoms: C_8  and  C_9
REMARK    6  A    between atoms: C_12  and  C_13
REMARK    7  A    between atoms: C_24  and  O_25
REMARK    8  A    between atoms: O_25  and  C_26
REMARK                            x       y       z     vdW  Elec       q    Type
REMARK                         _______ _______ _______ _____ _____    ______ ____
ROOT
ATOM      1  C   UNL     1       3.299   6.372  18.658  0.00  0.00    +0.000 A 
ATOM      2  N   UNL     1       2.773   7.534  18.341  0.00  0.00    +0.000 NA
ATOM      3  N   UNL     1       1.983   7.895  19.381  0.00  0.00    +0.000 N 
ATOM      4  C   UNL     1       1.200   8.986  19.639  0.00  0.00    +0.000 A 
ATOM      5  N   UNL     1       0.622   8.798  20.823  0.00  0.00    +0.000 NA
ATOM      6  N   UNL     1       1.062   7.582  21.348  0.00  0.00    +0.000 NA
ATOM      7  C   UNL     1       1.874   7.094  20.455  0.00  0.00    +0.000 A 
ATOM      8  S   UNL     1       2.855   5.709  20.263  0.00  0.00    +0.000 S 
ENDROOT
BRANCH   1  12
ATOM      9  C   UNL     1       6.093   4.741  15.818  0.00  0.00    +0.000 A 
ATOM     10  C   UNL     1       4.921   4.020  16.104  0.00  0.00    +0.000 A 
ATOM     11  C   UNL     1       3.972   4.477  17.032  0.00  0.00    +0.000 A 
ATOM     12  C   UNL     1       4.228   5.668  17.727  0.00  0.00    +0.000 A 
ATOM     13  C   UNL     1       5.458   6.319  17.513  0.00  0.00    +0.000 A 
ATOM     14  C   UNL     1       6.394   5.875  16.574  0.00  0.00    +0.000 A 
BRANCH   9  16
ATOM     15  C   UNL     1       6.307   3.951  13.602  0.00  0.00    +0.000 C 
ATOM     16  O   UNL     1       6.940   4.330  14.826  0.00  0.00    +0.000 OA
ENDBRANCH   9  16
BRANCH  11  17
ATOM     17  O   UNL     1       2.778   3.836  17.225  0.00  0.00    +0.000 OA
ATOM     18  C   UNL     1       2.809   2.523  17.776  0.00  0.00    +0.000 C 
ENDBRANCH  11  17
BRANCH  14  19
ATOM     19  O   UNL     1       7.496   6.683  16.527  0.00  0.00    +0.000 OA
ATOM     20  C   UNL     1       7.646   7.703  17.499  0.00  0.00    +0.000 C 
ENDBRANCH  14  19
ENDBRANCH   1  12
BRANCH   4  21
ATOM     21  C   UNL     1       1.098  10.175  18.731  0.00  0.00    +0.000 C 
ATOM     22  C   UNL     1      -0.108  10.099  17.785  0.00  0.00    +0.000 C 
ATOM     23  C   UNL     1      -1.448  10.334  18.479  0.00  0.00    +0.000 C 
ATOM     24  C   UNL     1      -1.463  11.594  19.341  0.00  0.00    +0.000 C 
ATOM     25  C   UNL     1      -0.247  11.735  20.251  0.00  0.00    +0.000 C 
ATOM     26  C   UNL     1       1.074  11.490  19.522  0.00  0.00    +0.000 C 
ENDBRANCH   4  21
TORSDOF 5
ENDMDL
MODEL 2
REMARK VINA RESULT:      -7.0      0.954      1.200
REMARK  Name = 
REMARK  8 active torsions:
REMARK  status: ('A' for Active; 'I' for Inactive)
REMARK    1  A    between atoms: C_1  and  O_2
REMARK    2  A    between atoms: O_2  and  C_3
REMARK    3  A    between atoms: C_5  and  O_6
REMARK    4  A    between atoms: O_6  and  C_7
REMARK    5  A    between atoms: C_8  and  C_9
REMARK    6  A    between atoms: C_12  and  C_13
REMARK    7  A    between atoms: C_24  and  O_25
REMARK    8  A    between atoms: O_25  and  C_26
REMARK                            x       y       z     vdW  Elec       q    Type
REMARK                         _______ _______ _______ _____ _____    ______ ____
ROOT
ATOM      1  C   UNL     1       2.688   6.803  18.950  0.00  0.00    +0.000 A 
ATOM      2  N   UNL     1       2.240   7.948  18.484  0.00  0.00    +0.000 NA
ATOM      3  N   UNL     1       1.489   8.498  19.468  0.00  0.00    +0.000 N 
ATOM      4  C   UNL     1       0.788   9.667  19.581  0.00  0.00    +0.000 A 
ATOM      5  N   UNL     1       0.213   9.678  20.781  0.00  0.00    +0.000 NA
ATOM      6  N   UNL     1       0.574   8.515  21.462  0.00  0.00    +0.000 NA
ATOM      7  C   UNL     1       1.338   7.857  20.640  0.00  0.00    +0.000 A 
ATOM      8  S   UNL     1       2.218   6.392  20.630  0.00  0.00    +0.000 S 
ENDROOT
BRANCH   1  12
ATOM      9  C   UNL     1       5.278   4.608  16.306  0.00  0.00    +0.000 A 
ATOM     10  C   UNL     1       4.149   3.961  16.837  0.00  0.00    +0.000 A 
ATOM     11  C   UNL     1       3.268   4.604  17.720  0.00  0.00    +0.000 A 
ATOM     12  C   UNL     1       3.553   5.918  18.119  0.00  0.00    +0.000 A 
ATOM     13  C   UNL     1       4.747   6.512  17.668  0.00  0.00    +0.000 A 
ATOM     14  C   UNL     1       5.614   5.879  16.772  0.00  0.00    +0.000 A 
BRANCH   9  16
ATOM     15  C   UNL     1       5.658   4.231  14.004  0.00  0.00    +0.000 C 
ATOM     16  O   UNL     1       6.051   3.995  15.358  0.00  0.00    +0.000 OA
ENDBRANCH   9  16
BRANCH  11  17
ATOM     17  O   UNL     1       2.108   4.015  18.145  0.00  0.00    +0.000 OA
ATOM     18  C   UNL     1       2.025   2.594  18.094  0.00  0.00    +0.000 C 
ENDBRANCH  11  17
BRANCH  14  19
ATOM     19  O   UNL     1       6.691   6.662  16.460  0.00  0.00    +0.000 OA
ATOM     20  C   UNL     1       7.455   7.234  17.508  0.00  0.00    +0.000 C 
ENDBRANCH  14  19
ENDBRANCH   1  12
BRANCH   4  21
ATOM     21  C   UNL     1       0.758  10.729  18.523  0.00  0.00    +0.000 C 
ATOM     22  C   UNL     1      -0.596  11.444  18.437  0.00  0.00    +0.000 C 
ATOM     23  C   UNL     1      -0.862  12.396  19.602  0.00  0.00    +0.000 C 
ATOM     24  C   UNL     1       0.291  13.362  19.861  0.00  0.00    +0.000 C 
ATOM     25  C   UNL     1       1.662  12.694  19.892  0.00  0.00    +0.000 C 
ATOM     26  C   UNL     1       1.889  11.748  18.713  0.00  0.00    +0.000 C 
ENDBRANCH   4  21
TORSDOF 5
ENDMDL
MODEL 3
REMARK VINA RESULT:      -6.8      1.357      1.638
REMARK  Name = 
REMARK  8 active torsions:
REMARK  status: ('A' for Active; 'I' for Inactive)
REMARK    1  A    between atoms: C_1  and  O_2
REMARK    2  A    between atoms: O_2  and  C_3
REMARK    3  A    between atoms: C_5  and  O_6
REMARK    4  A    between atoms: O_6  and  C_7
REMARK    5  A    between atoms: C_8  and  C_9
REMARK    6  A    between atoms: C_12  and  C_13
REMARK    7  A    between atoms: C_24  and  O_25
REMARK    8  A    between atoms: O_25  and  C_26
REMARK                            x       y       z     vdW  Elec       q    Type
REMARK                         _______ _______ _______ _____ _____    ______ ____
ROOT
ATOM      1  C   UNL     1       2.275   7.416  19.053  0.00  0.00    +0.000 A 
ATOM      2  N   UNL     1       1.595   8.396  18.502  0.00  0.00    +0.000 NA
ATOM      3  N   UNL     1       0.896   8.988  19.501  0.00  0.00    +0.000 N 
ATOM      4  C   UNL     1       0.036  10.050  19.553  0.00  0.00    +0.000 A 
ATOM      5  N   UNL     1      -0.378  10.174  20.811  0.00  0.00    +0.000 NA
ATOM      6  N   UNL     1       0.248   9.196  21.587  0.00  0.00    +0.000 NA
ATOM      7  C   UNL     1       0.998   8.528  20.760  0.00  0.00    +0.000 A 
ATOM      8  S   UNL     1       2.093   7.217  20.824  0.00  0.00    +0.000 S 
ENDROOT
BRANCH   1  12
ATOM      9  C   UNL     1       4.914   5.240  16.439  0.00  0.00    +0.000 A 
ATOM     10  C   UNL     1       3.797   4.577  16.976  0.00  0.00    +0.000 A 
ATOM     11  C   UNL     1       2.901   5.213  17.850  0.00  0.00    +0.000 A 
ATOM     12  C   UNL     1       3.160   6.538  18.233  0.00  0.00    +0.000 A 
ATOM     13  C   UNL     1       4.343   7.150  17.778  0.00  0.00    +0.000 A 
ATOM     14  C   UNL     1       5.224   6.523  16.890  0.00  0.00    +0.000 A 
BRANCH   9  16
ATOM     15  C   UNL     1       6.967   4.167  15.973  0.00  0.00    +0.000 C 
ATOM     16  O   UNL     1       5.701   4.631  15.500  0.00  0.00    +0.000 OA
ENDBRANCH   9  16
BRANCH  11  17
ATOM     17  O   UNL     1       1.752   4.607  18.280  0.00  0.00    +0.000 OA
ATOM     18  C   UNL     1       1.796   3.208  18.542  0.00  0.00    +0.000 C 
ENDBRANCH  11  17
BRANCH  14  19
ATOM     19  O   UNL     1       6.285   7.323  16.571  0.00  0.00    +0.000 OA
ATOM     20  C   UNL     1       7.342   7.473  17.503  0.00  0.00    +0.000 C 
ENDBRANCH  14  19
ENDBRANCH   1  12
BRANCH   4  21
ATOM     21  C   UNL     1      -0.297  10.913  18.374  0.00  0.00    +0.000 C 
ATOM     22  C   UNL     1      -1.239  10.223  17.378  0.00  0.00    +0.000 C 
ATOM     23  C   UNL     1      -2.677  10.102  17.877  0.00  0.00    +0.000 C 
ATOM     24  C   UNL     1      -3.244  11.421  18.396  0.00  0.00    +0.000 C 
ATOM     25  C   UNL     1      -2.308  12.167  19.342  0.00  0.00    +0.000 C 
ATOM     26  C   UNL     1      -0.879  12.265  18.810  0.00  0.00    +0.000 C 
ENDBRANCH   4  21
TORSDOF 5
ENDMDL
MODEL 4
REMARK VINA RESULT:      -6.8      4.134      8.313
REMARK  Name = 
REMARK  8 active torsions:
REMARK  status: ('A' for Active; 'I' for Inactive)
REMARK    1  A    between atoms: C_1  and  O_2
REMARK    2  A    between atoms: O_2  and  C_3
REMARK    3  A    between atoms: C_5  and  O_6
REMARK    4  A    between atoms: O_6  and  C_7
REMARK    5  A    between atoms: C_8  and  C_9
REMARK    6  A    between atoms: C_12  and  C_13
REMARK    7  A    between atoms: C_24  and  O_25
REMARK    8  A    between atoms: O_25  and  C_26
REMARK                            x       y       z     vdW  Elec       q    Type
REMARK                         _______ _______ _______ _____ _____    ______ ____
ROOT
ATOM      1  C   UNL     1       1.327   8.840  19.228  0.00  0.00    +0.000 A 
ATOM      2  N   UNL     1       1.410   7.694  19.866  0.00  0.00    +0.000 NA
ATOM      3  N   UNL     1       2.339   6.955  19.211  0.00  0.00    +0.000 N 
ATOM      4  C   UNL     1       2.860   5.706  19.404  0.00  0.00    +0.000 A 
ATOM      5  N   UNL     1       3.738   5.480  18.430  0.00  0.00    +0.000 NA
ATOM      6  N   UNL     1       3.805   6.611  17.616  0.00  0.00    +0.000 NA
ATOM      7  C   UNL     1       2.961   7.457  18.131  0.00  0.00    +0.000 A 
ATOM      8  S   UNL     1       2.417   9.047  17.820  0.00  0.00    +0.000 S 
ENDROOT
BRANCH   1  12
ATOM      9  C   UNL     1      -1.336  12.100  20.125  0.00  0.00    +0.000 A 
ATOM     10  C   UNL     1      -0.546  11.568  21.159  0.00  0.00    +0.000 A 
ATOM     11  C   UNL     1       0.332  10.493  20.950  0.00  0.00    +0.000 A 
ATOM     12  C   UNL     1       0.385   9.905  19.677  0.00  0.00    +0.000 A 
ATOM     13  C   UNL     1      -0.495  10.374  18.683  0.00  0.00    +0.000 A 
ATOM     14  C   UNL     1      -1.355  11.458  18.887  0.00  0.00    +0.000 A 
BRANCH   9  16
ATOM     15  C   UNL     1      -3.443  12.979  20.736  0.00  0.00    +0.000 C 
ATOM     16  O   UNL     1      -2.093  13.221  20.332  0.00  0.00    +0.000 OA
ENDBRANCH   9  16
BRANCH  11  17
ATOM     17  O   UNL     1       1.185  10.052  21.924  0.00  0.00    +0.000 OA
ATOM     18  C   UNL     1       0.626   9.352  23.032  0.00  0.00    +0.000 C 
ENDBRANCH  11  17
BRANCH  14  19
ATOM     19  O   UNL     1      -2.090  11.745  17.771  0.00  0.00    +0.000 OA
ATOM     20  C   UNL     1      -3.178  10.905  17.425  0.00  0.00    +0.000 C 
ENDBRANCH  14  19
ENDBRANCH   1  12
BRANCH   4  21
ATOM     21  C   UNL     1       2.503   4.820  20.560  0.00  0.00    +0.000 C 
ATOM     22  C   UNL     1       1.041   4.355  20.523  0.00  0.00    +0.000 C 
ATOM     23  C   UNL     1       0.756   3.309  19.448  0.00  0.00    +0.000 C 
ATOM     24  C   UNL     1       1.738   2.140  19.475  0.00  0.00    +0.000 C 
ATOM     25  C   UNL     1       3.200   2.563  19.574  0.00  0.00    +0.000 C 
ATOM     26  C   UNL     1       3.444   3.612  20.658  0.00  0.00    +0.000 C 
ENDBRANCH   4  21
TORSDOF 5
ENDMDL
MODEL 5
REMARK VINA RESULT:      -6.7      3.848      8.154
REMARK  Name = 
REMARK  8 active torsions:
REMARK  status: ('A' for Active; 'I' for Inactive)
REMARK    1  A    between atoms: C_1  and  O_2
REMARK    2  A    between atoms: O_2  and  C_3
REMARK    3  A    between atoms: C_5  and  O_6
REMARK    4  A    between atoms: O_6  and  C_7
REMARK    5  A    between atoms: C_8  and  C_9
REMARK    6  A    between atoms: C_12  and  C_13
REMARK    7  A    between atoms: C_24  and  O_25
REMARK    8  A    between atoms: O_25  and  C_26
REMARK                            x       y       z     vdW  Elec       q    Type
REMARK                         _______ _______ _______ _____ _____    ______ ____
ROOT
ATOM      1  C   UNL     1       1.563   8.483  19.207  0.00  0.00    +0.000 A 
ATOM      2  N   UNL     1       1.687   7.324  19.814  0.00  0.00    +0.000 NA
ATOM      3  N   UNL     1       2.587   6.608  19.098  0.00  0.00    +0.000 N 
ATOM      4  C   UNL     1       3.128   5.360  19.237  0.00  0.00    +0.000 A 
ATOM      5  N   UNL     1       3.957   5.163  18.215  0.00  0.00    +0.000 NA
ATOM      6  N   UNL     1       3.973   6.312  17.423  0.00  0.00    +0.000 NA
ATOM      7  C   UNL     1       3.150   7.139  17.999  0.00  0.00    +0.000 A 
ATOM      8  S   UNL     1       2.578   8.730  17.750  0.00  0.00    +0.000 S 
ENDROOT
BRANCH   1  12
ATOM      9  C   UNL     1      -1.166  11.245  21.064  0.00  0.00    +0.000 A 
ATOM     10  C   UNL     1      -1.185  11.114  19.665  0.00  0.00    +0.000 A 
ATOM     11  C   UNL     1      -0.313  10.249  18.985  0.00  0.00    +0.000 A 
ATOM     12  C   UNL     1       0.636   9.529  19.726  0.00  0.00    +0.000 A 
ATOM     13  C   UNL     1       0.718   9.757  21.113  0.00  0.00    +0.000 A 
ATOM     14  C   UNL     1      -0.164  10.603  21.792  0.00  0.00    +0.000 A 
BRANCH   9  16
ATOM     15  C   UNL     1      -1.838  13.410  21.732  0.00  0.00    +0.000 C 
ATOM     16  O   UNL     1      -2.105  12.006  21.706  0.00  0.00    +0.000 OA
ENDBRANCH   9  16
BRANCH  11  17
ATOM     17  O   UNL     1      -0.409  10.033  17.637  0.00  0.00    +0.000 OA
ATOM     18  C   UNL     1      -1.711  10.001  17.059  0.00  0.00    +0.000 C 
ENDBRANCH  11  17
BRANCH  14  19
ATOM     19  O   UNL     1       0.095  10.643  23.134  0.00  0.00    +0.000 OA
ATOM     20  C   UNL     1       0.254   9.426  23.844  0.00  0.00    +0.000 C 
ENDBRANCH  14  19
ENDBRANCH   1  12
BRANCH   4  21
ATOM     21  C   UNL     1       2.837   4.447  20.390  0.00  0.00    +0.000 C 
ATOM     22  C   UNL     1       1.337   4.180  20.573  0.00  0.00    +0.000 C 
ATOM     23  C   UNL     1       0.743   3.260  19.509  0.00  0.00    +0.000 C 
ATOM     24  C   UNL     1       1.544   1.975  19.314  0.00  0.00    +0.000 C 
ATOM     25  C   UNL     1       3.048   2.196  19.190  0.00  0.00    +0.000 C 
ATOM     26  C   UNL     1       3.604   3.123  20.270  0.00  0.00    +0.000 C 
ENDBRANCH   4  21
TORSDOF 5
ENDMDL
MODEL 6
REMARK VINA RESULT:      -6.7      3.844      5.876
REMARK  Name = 
REMARK  8 active torsions:
REMARK  status: ('A' for Active; 'I' for Inactive)
REMARK    1  A    between atoms: C_1  and  O_2
REMARK    2  A    between atoms: O_2  and  C_3
REMARK    3  A    between atoms: C_5  and  O_6
REMARK    4  A    between atoms: O_6  and  C_7
REMARK    5  A    between atoms: C_8  and  C_9
REMARK    6  A    between atoms: C_12  and  C_13
REMARK    7  A    between atoms: C_24  and  O_25
REMARK    8  A    between atoms: O_25  and  C_26
REMARK                            x       y       z     vdW  Elec       q    Type
REMARK                         _______ _______ _______ _____ _____    ______ ____
ROOT
ATOM      1  C   UNL     1       4.758   5.088  15.842  0.00  0.00    +0.000 A 
ATOM      2  N   UNL     1       4.049   4.227  16.536  0.00  0.00    +0.000 NA
ATOM      3  N   UNL     1       3.496   4.920  17.560  0.00  0.00    +0.000 N 
ATOM      4  C   UNL     1       2.662   4.581  18.590  0.00  0.00    +0.000 A 
ATOM      5  N   UNL     1       2.456   5.675  19.320  0.00  0.00    +0.000 NA
ATOM      6  N   UNL     1       3.142   6.740  18.734  0.00  0.00    +0.000 NA
ATOM      7  C   UNL     1       3.733   6.237  17.689  0.00  0.00    +0.000 A 
ATOM      8  S   UNL     1       4.735   6.785  16.418  0.00  0.00    +0.000 S 
ENDROOT
BRANCH   1  12
ATOM      9  C   UNL     1       6.683   3.505  12.332  0.00  0.00    +0.000 A 
ATOM     10  C   UNL     1       7.465   4.181  13.285  0.00  0.00    +0.000 A 
ATOM     11  C   UNL     1       6.907   4.741  14.446  0.00  0.00    +0.000 A 
ATOM     12  C   UNL     1       5.519   4.662  14.632  0.00  0.00    +0.000 A 
ATOM     13  C   UNL     1       4.737   4.082  13.615  0.00  0.00    +0.000 A 
ATOM     14  C   UNL     1       5.295   3.506  12.469  0.00  0.00    +0.000 A 
BRANCH   9  16
ATOM     15  C   UNL     1       7.030   1.463  11.196  0.00  0.00    +0.000 C 
ATOM     16  O   UNL     1       7.271   2.869  11.273  0.00  0.00    +0.000 OA
ENDBRANCH   9  16
BRANCH  11  17
ATOM     17  O   UNL     1       7.681   5.295  15.428  0.00  0.00    +0.000 OA
ATOM     18  C   UNL     1       7.716   4.644  16.695  0.00  0.00    +0.000 C 
ENDBRANCH  11  17
BRANCH  14  19
ATOM     19  O   UNL     1       4.341   2.985  11.641  0.00  0.00    +0.000 OA
ATOM     20  C   UNL     1       3.788   3.803  10.623  0.00  0.00    +0.000 C 
ENDBRANCH  14  19
ENDBRANCH   1  12
BRANCH   4  21
ATOM     21  C   UNL     1       2.078   3.213  18.776  0.00  0.00    +0.000 C 
ATOM     22  C   UNL     1       3.117   2.178  19.227  0.00  0.00    +0.000 C 
ATOM     23  C   UNL     1       3.558   2.344  20.680  0.00  0.00    +0.000 C 
ATOM     24  C   UNL     1       2.387   2.454  21.652  0.00  0.00    +0.000 C 
ATOM     25  C   UNL     1       1.302   3.429  21.206  0.00  0.00    +0.000 C 
ATOM     26  C   UNL     1       0.890   3.234  19.748  0.00  0.00    +0.000 C 
ENDBRANCH   4  21
TORSDOF 5
ENDMDL
MODEL 7
REMARK VINA RESULT:      -6.4      3.253      7.683
REMARK  Name = 
REMARK  8 active torsions:
REMARK  status: ('A' for Active; 'I' for Inactive)
REMARK    1  A    between atoms: C_1  and  O_2
REMARK    2  A    between atoms: O_2  and  C_3
REMARK    3  A    between atoms: C_5  and  O_6
REMARK    4  A    between atoms: O_6  and  C_7
REMARK    5  A    between atoms: C_8  and  C_9
REMARK    6  A    between atoms: C_12  and  C_13
REMARK    7  A    between atoms: C_24  and  O_25
REMARK    8  A    between atoms: O_25  and  C_26
REMARK                            x       y       z     vdW  Elec       q    Type
REMARK                         _______ _______ _______ _____ _____    ______ ____
ROOT
ATOM      1  C   UNL     1       2.427   6.738  19.790  0.00  0.00    +0.000 A 
ATOM      2  N   UNL     1       3.627   6.783  19.255  0.00  0.00    +0.000 NA
ATOM      3  N   UNL     1       4.100   5.513  19.265  0.00  0.00    +0.000 N 
ATOM      4  C   UNL     1       5.263   4.934  18.838  0.00  0.00    +0.000 A 
ATOM      5  N   UNL     1       5.197   3.636  19.122  0.00  0.00    +0.000 NA
ATOM      6  N   UNL     1       3.961   3.370  19.714  0.00  0.00    +0.000 NA
ATOM      7  C   UNL     1       3.348   4.517  19.765  0.00  0.00    +0.000 A 
ATOM      8  S   UNL     1       1.839   5.121  20.291  0.00  0.00    +0.000 S 
ENDROOT
BRANCH   1  12
ATOM      9  C   UNL     1      -0.248  10.049  20.430  0.00  0.00    +0.000 A 
ATOM     10  C   UNL     1       0.565  10.049  19.284  0.00  0.00    +0.000 A 
ATOM     11  C   UNL     1       1.476   9.015  19.016  0.00  0.00    +0.000 A 
ATOM     12  C   UNL     1       1.608   7.975  19.947  0.00  0.00    +0.000 A 
ATOM     13  C   UNL     1       0.870   8.048  21.144  0.00  0.00    +0.000 A 
ATOM     14  C   UNL     1      -0.052   9.067  21.402  0.00  0.00    +0.000 A 
BRANCH   9  16
ATOM     15  C   UNL     1      -1.752  11.552  19.401  0.00  0.00    +0.000 C 
ATOM     16  O   UNL     1      -1.207  11.009  20.605  0.00  0.00    +0.000 OA
ENDBRANCH   9  16
BRANCH  11  17
ATOM     17  O   UNL     1       2.182   8.955  17.845  0.00  0.00    +0.000 OA
ATOM     18  C   UNL     1       2.842  10.137  17.404  0.00  0.00    +0.000 C 
ENDBRANCH  11  17
BRANCH  14  19
ATOM     19  O   UNL     1      -0.664   8.911  22.614  0.00  0.00    +0.000 OA
ATOM     20  C   UNL     1      -0.160   9.612  23.738  0.00  0.00    +0.000 C 
ENDBRANCH  14  19
ENDBRANCH   1  12
BRANCH   4  21
ATOM     21  C   UNL     1       6.357   5.679  18.132  0.00  0.00    +0.000 C 
ATOM     22  C   UNL     1       7.300   4.753  17.353  0.00  0.00    +0.000 C 
ATOM     23  C   UNL     1       6.680   4.174  16.083  0.00  0.00    +0.000 C 
ATOM     24  C   UNL     1       6.038   5.234  15.192  0.00  0.00    +0.000 C 
ATOM     25  C   UNL     1       5.141   6.212  15.944  0.00  0.00    +0.000 C 
ATOM     26  C   UNL     1       5.794   6.768  17.209  0.00  0.00    +0.000 C 
ENDBRANCH   4  21
TORSDOF 5
ENDMDL
MODEL 8
REMARK VINA RESULT:      -6.4      3.437      7.954
REMARK  Name = 
REMARK  8 active torsions:
REMARK  status: ('A' for Active; 'I' for Inactive)
REMARK    1  A    between atoms: C_1  and  O_2
REMARK    2  A    between atoms: O_2  and  C_3
REMARK    3  A    between atoms: C_5  and  O_6
REMARK    4  A    between atoms: O_6  and  C_7
REMARK    5  A    between atoms: C_8  and  C_9
REMARK    6  A    between atoms: C_12  and  C_13
REMARK    7  A    between atoms: C_24  and  O_25
REMARK    8  A    between atoms: O_25  and  C_26
REMARK                            x       y       z     vdW  Elec       q    Type
REMARK                         _______ _______ _______ _____ _____    ______ ____
ROOT
ATOM      1  C   UNL     1       1.715   7.947  19.609  0.00  0.00    +0.000 A 
ATOM      2  N   UNL     1       2.662   7.854  18.701  0.00  0.00    +0.000 NA
ATOM      3  N   UNL     1       3.242   6.642  18.873  0.00  0.00    +0.000 N 
ATOM      4  C   UNL     1       4.255   5.980  18.236  0.00  0.00    +0.000 A 
ATOM      5  N   UNL     1       4.422   4.811  18.850  0.00  0.00    +0.000 NA
ATOM      6  N   UNL     1       3.484   4.707  19.878  0.00  0.00    +0.000 NA
ATOM      7  C   UNL     1       2.806   5.816  19.840  0.00  0.00    +0.000 A 
ATOM      8  S   UNL     1       1.498   6.527  20.680  0.00  0.00    +0.000 S 
ENDROOT
BRANCH   1  12
ATOM      9  C   UNL     1      -0.619  11.562  19.492  0.00  0.00    +0.000 A 
ATOM     10  C   UNL     1       0.011  11.203  20.696  0.00  0.00    +0.000 A 
ATOM     11  C   UNL     1       0.773  10.030  20.818  0.00  0.00    +0.000 A 
ATOM     12  C   UNL     1       0.868   9.170  19.714  0.00  0.00    +0.000 A 
ATOM     13  C   UNL     1       0.138   9.486  18.552  0.00  0.00    +0.000 A 
ATOM     14  C   UNL     1      -0.604  10.664  18.424  0.00  0.00    +0.000 A 
BRANCH   9  16
ATOM     15  C   UNL     1      -0.448  13.836  18.876  0.00  0.00    +0.000 C 
ATOM     16  O   UNL     1      -1.256  12.767  19.370  0.00  0.00    +0.000 OA
ENDBRANCH   9  16
BRANCH  11  17
ATOM     17  O   UNL     1       1.481   9.739  21.952  0.00  0.00    +0.000 OA
ATOM     18  C   UNL     1       0.749   9.388  23.122  0.00  0.00    +0.000 C 
ENDBRANCH  11  17
BRANCH  14  19
ATOM     19  O   UNL     1      -1.202  10.763  17.198  0.00  0.00    +0.000 OA
ATOM     20  C   UNL     1      -2.446  10.120  16.983  0.00  0.00    +0.000 C 
ENDBRANCH  14  19
ENDBRANCH   1  12
BRANCH   4  21
ATOM     21  C   UNL     1       4.972   6.510  17.031  0.00  0.00    +0.000 C 
ATOM     22  C   UNL     1       6.400   6.975  17.345  0.00  0.00    +0.000 C 
ATOM     23  C   UNL     1       7.376   5.828  17.599  0.00  0.00    +0.000 C 
ATOM     24  C   UNL     1       7.339   4.758  16.511  0.00  0.00    +0.000 C 
ATOM     25  C   UNL     1       5.930   4.315  16.128  0.00  0.00    +0.000 C 
ATOM     26  C   UNL     1       4.983   5.489  15.885  0.00  0.00    +0.000 C 
ENDBRANCH   4  21
TORSDOF 5
ENDMDL
MODEL 9
REMARK VINA RESULT:      -6.3      3.664      7.837
REMARK  Name = 
REMARK  8 active torsions:
REMARK  status: ('A' for Active; 'I' for Inactive)
REMARK    1  A    between atoms: C_1  and  O_2
REMARK    2  A    between atoms: O_2  and  C_3
REMARK    3  A    between atoms: C_5  and  O_6
REMARK    4  A    between atoms: O_6  and  C_7
REMARK    5  A    between atoms: C_8  and  C_9
REMARK    6  A    between atoms: C_12  and  C_13
REMARK    7  A    between atoms: C_24  and  O_25
REMARK    8  A    between atoms: O_25  and  C_26
REMARK                            x       y       z     vdW  Elec       q    Type
REMARK                         _______ _______ _______ _____ _____    ______ ____
ROOT
ATOM      1  C   UNL     1       1.199   9.355  19.433  0.00  0.00    +0.000 A 
ATOM      2  N   UNL     1       1.894   8.610  18.603  0.00  0.00    +0.000 NA
ATOM      3  N   UNL     1       2.161   7.453  19.255  0.00  0.00    +0.000 N 
ATOM      4  C   UNL     1       2.823   6.306  18.913  0.00  0.00    +0.000 A 
ATOM      5  N   UNL     1       2.796   5.495  19.967  0.00  0.00    +0.000 NA
ATOM      6  N   UNL     1       2.079   6.115  20.992  0.00  0.00    +0.000 NA
ATOM      7  C   UNL     1       1.719   7.269  20.511  0.00  0.00    +0.000 A 
ATOM      8  S   UNL     1       0.830   8.633  21.031  0.00  0.00    +0.000 S 
ENDROOT
BRANCH   1  12
ATOM      9  C   UNL     1       0.092  13.441  18.652  0.00  0.00    +0.000 A 
ATOM     10  C   UNL     1      -0.835  12.424  18.369  0.00  0.00    +0.000 A 
ATOM     11  C   UNL     1      -0.541  11.067  18.578  0.00  0.00    +0.000 A 
ATOM     12  C   UNL     1       0.736  10.718  19.042  0.00  0.00    +0.000 A 
ATOM     13  C   UNL     1       1.690  11.739  19.212  0.00  0.00    +0.000 A 
ATOM     14  C   UNL     1       1.391  13.092  19.023  0.00  0.00    +0.000 A 
BRANCH   9  16
ATOM     15  C   UNL     1      -0.709  15.366  19.763  0.00  0.00    +0.000 C 
ATOM     16  O   UNL     1      -0.264  14.758  18.549  0.00  0.00    +0.000 OA
ENDBRANCH   9  16
BRANCH  11  17
ATOM     17  O   UNL     1      -1.481  10.086  18.414  0.00  0.00    +0.000 OA
ATOM     18  C   UNL     1      -2.486  10.287  17.423  0.00  0.00    +0.000 C 
ENDBRANCH  11  17
BRANCH  14  19
ATOM     19  O   UNL     1       2.468  13.895  19.274  0.00  0.00    +0.000 OA
ATOM     20  C   UNL     1       3.331  14.247  18.206  0.00  0.00    +0.000 C 
ENDBRANCH  14  19
ENDBRANCH   1  12
BRANCH   4  21
ATOM     21  C   UNL     1       3.407   6.051  17.556  0.00  0.00    +0.000 C 
ATOM     22  C   UNL     1       4.761   6.743  17.351  0.00  0.00    +0.000 C 
ATOM     23  C   UNL     1       5.906   6.092  18.124  0.00  0.00    +0.000 C 
ATOM     24  C   UNL     1       5.987   4.582  17.915  0.00  0.00    +0.000 C 
ATOM     25  C   UNL     1       4.646   3.867  18.050  0.00  0.00    +0.000 C 
ATOM     26  C   UNL     1       3.526   4.549  17.266  0.00  0.00    +0.000 C 
ENDBRANCH   4  21
TORSDOF 5
ENDMDL
