MODEL 1
REMARK VINA RESULT:      -7.0      0.000      0.000
REMARK  Name = 
REMARK  1 active torsions:
REMARK  status: ('A' for Active; 'I' for Inactive)
REMARK    1  A    between atoms: C_1  and  C_2
REMARK                            x       y       z     vdW  Elec       q    Type
REMARK                         _______ _______ _______ _____ _____    ______ ____
ROOT
ATOM      1  C   UNL     1       5.108   3.856  13.585  0.00  0.00    +0.000 C 
ATOM      2  C   UNL     1       5.926   4.502  14.635  0.00  0.00    +0.000 A 
ATOM      3  N   UNL     1       7.034   5.261  14.318  0.00  0.00    +0.000 N 
ATOM      4  N   UNL     1       7.669   5.779  15.388  0.00  0.00    +0.000 NA
ATOM      5  C   UNL     1       6.938   5.331  16.399  0.00  0.00    +0.000 A 
ATOM      6  O   UNL     1       7.265   5.646  17.658  0.00  0.00    +0.000 OA
ATOM      7  C   UNL     1       6.476   5.156  18.664  0.00  0.00    +0.000 A 
ATOM      8  O   UNL     1       6.720   5.407  19.842  0.00  0.00    +0.000 OA
ATOM      9  C   UNL     1       5.287   4.295  18.324  0.00  0.00    +0.000 A 
ATOM     10  C   UNL     1       4.487   3.800  19.362  0.00  0.00    +0.000 A 
ATOM     11  C   UNL     1       3.381   3.002  19.072  0.00  0.00    +0.000 A 
ATOM     12  C   UNL     1       3.071   2.694  17.746  0.00  0.00    +0.000 A 
ATOM     13  C   UNL     1       3.863   3.182  16.702  0.00  0.00    +0.000 A 
ATOM     14  C   UNL     1       4.970   3.983  16.988  0.00  0.00    +0.000 A 
ATOM     15  C   UNL     1       5.856   4.543  16.011  0.00  0.00    +0.000 A 
ATOM     16  H   UNL     1       7.410   5.465  13.397  0.00  0.00    +0.000 HD
ENDROOT
TORSDOF 0
ENDMDL
MODEL 2
REMARK VINA RESULT:      -7.0      2.368      2.572
REMARK  Name = 
REMARK  1 active torsions:
REMARK  status: ('A' for Active; 'I' for Inactive)
REMARK    1  A    between atoms: C_1  and  C_2
REMARK                            x       y       z     vdW  Elec       q    Type
REMARK                         _______ _______ _______ _____ _____    ______ ____
ROOT
ATOM      1  C   UNL     1       5.966   3.628  15.142  0.00  0.00    +0.000 C 
ATOM      2  C   UNL     1       5.552   4.867  15.838  0.00  0.00    +0.000 A 
ATOM      3  N   UNL     1       6.208   6.063  15.629  0.00  0.00    +0.000 N 
ATOM      4  N   UNL     1       5.709   7.095  16.338  0.00  0.00    +0.000 NA
ATOM      5  C   UNL     1       4.715   6.527  17.008  0.00  0.00    +0.000 A 
ATOM      6  O   UNL     1       3.962   7.254  17.842  0.00  0.00    +0.000 OA
ATOM      7  C   UNL     1       2.950   6.618  18.508  0.00  0.00    +0.000 A 
ATOM      8  O   UNL     1       2.221   7.227  19.288  0.00  0.00    +0.000 OA
ATOM      9  C   UNL     1       2.722   5.146  18.282  0.00  0.00    +0.000 A 
ATOM     10  C   UNL     1       1.682   4.506  18.970  0.00  0.00    +0.000 A 
ATOM     11  C   UNL     1       1.452   3.144  18.777  0.00  0.00    +0.000 A 
ATOM     12  C   UNL     1       2.258   2.417  17.899  0.00  0.00    +0.000 A 
ATOM     13  C   UNL     1       3.299   3.045  17.208  0.00  0.00    +0.000 A 
ATOM     14  C   UNL     1       3.532   4.409  17.397  0.00  0.00    +0.000 A 
ATOM     15  C   UNL     1       4.563   5.166  16.750  0.00  0.00    +0.000 A 
ATOM     16  H   UNL     1       6.999   6.244  15.019  0.00  0.00    +0.000 HD
ENDROOT
TORSDOF 0
ENDMDL
MODEL 3
REMARK VINA RESULT:      -6.9      3.553      4.866
REMARK  Name = 
REMARK  1 active torsions:
REMARK  status: ('A' for Active; 'I' for Inactive)
REMARK    1  A    between atoms: C_1  and  C_2
REMARK                            x       y       z     vdW  Elec       q    Type
REMARK                         _______ _______ _______ _____ _____    ______ ____
ROOT
ATOM      1  C   UNL     1       0.821   3.234  19.944  0.00  0.00    +0.000 C 
ATOM      2  C   UNL     1       1.967   2.959  19.048  0.00  0.00    +0.000 A 
ATOM      3  N   UNL     1       2.378   1.668  18.782  0.00  0.00    +0.000 N 
ATOM      4  N   UNL     1       3.434   1.590  17.948  0.00  0.00    +0.000 NA
ATOM      5  C   UNL     1       3.689   2.865  17.689  0.00  0.00    +0.000 A 
ATOM      6  O   UNL     1       4.697   3.199  16.874  0.00  0.00    +0.000 OA
ATOM      7  C   UNL     1       4.916   4.529  16.640  0.00  0.00    +0.000 A 
ATOM      8  O   UNL     1       5.824   4.904  15.902  0.00  0.00    +0.000 OA
ATOM      9  C   UNL     1       4.029   5.555  17.297  0.00  0.00    +0.000 A 
ATOM     10  C   UNL     1       4.263   6.914  17.050  0.00  0.00    +0.000 A 
ATOM     11  C   UNL     1       3.456   7.882  17.647  0.00  0.00    +0.000 A 
ATOM     12  C   UNL     1       2.413   7.496  18.492  0.00  0.00    +0.000 A 
ATOM     13  C   UNL     1       2.171   6.143  18.746  0.00  0.00    +0.000 A 
ATOM     14  C   UNL     1       2.976   5.171  18.150  0.00  0.00    +0.000 A 
ATOM     15  C   UNL     1       2.830   3.757  18.329  0.00  0.00    +0.000 A 
ATOM     16  H   UNL     1       1.984   0.802  19.133  0.00  0.00    +0.000 HD
ENDROOT
TORSDOF 0
ENDMDL
MODEL 4
REMARK VINA RESULT:      -6.9      2.753      3.684
REMARK  Name = 
REMARK  1 active torsions:
REMARK  status: ('A' for Active; 'I' for Inactive)
REMARK    1  A    between atoms: C_1  and  C_2
REMARK                            x       y       z     vdW  Elec       q    Type
REMARK                         _______ _______ _______ _____ _____    ______ ____
ROOT
ATOM      1  C   UNL     1       2.724   7.539  17.821  0.00  0.00    +0.000 C 
ATOM      2  C   UNL     1       3.774   6.519  18.042  0.00  0.00    +0.000 A 
ATOM      3  N   UNL     1       5.036   6.659  17.502  0.00  0.00    +0.000 N 
ATOM      4  N   UNL     1       5.874   5.645  17.796  0.00  0.00    +0.000 NA
ATOM      5  C   UNL     1       5.114   4.852  18.539  0.00  0.00    +0.000 A 
ATOM      6  O   UNL     1       5.610   3.711  19.033  0.00  0.00    +0.000 OA
ATOM      7  C   UNL     1       4.783   2.930  19.793  0.00  0.00    +0.000 A 
ATOM      8  O   UNL     1       5.175   1.871  20.277  0.00  0.00    +0.000 OA
ATOM      9  C   UNL     1       3.365   3.376  20.044  0.00  0.00    +0.000 A 
ATOM     10  C   UNL     1       2.527   2.567  20.824  0.00  0.00    +0.000 A 
ATOM     11  C   UNL     1       1.211   2.958  21.070  0.00  0.00    +0.000 A 
ATOM     12  C   UNL     1       0.728   4.155  20.538  0.00  0.00    +0.000 A 
ATOM     13  C   UNL     1       1.554   4.969  19.758  0.00  0.00    +0.000 A 
ATOM     14  C   UNL     1       2.873   4.582  19.510  0.00  0.00    +0.000 A 
ATOM     15  C   UNL     1       3.817   5.326  18.729  0.00  0.00    +0.000 A 
ATOM     16  H   UNL     1       5.390   7.416  16.926  0.00  0.00    +0.000 HD
ENDROOT
TORSDOF 0
ENDMDL
MODEL 5
REMARK VINA RESULT:      -6.8      2.853      3.780
REMARK  Name = 
REMARK  1 active torsions:
REMARK  status: ('A' for Active; 'I' for Inactive)
REMARK    1  A    between atoms: C_1  and  C_2
REMARK                            x       y       z     vdW  Elec       q    Type
REMARK                         _______ _______ _______ _____ _____    ______ ____
ROOT
ATOM      1  C   UNL     1       3.347   7.732  17.817  0.00  0.00    +0.000 C 
ATOM      2  C   UNL     1       3.846   6.394  17.426  0.00  0.00    +0.000 A 
ATOM      3  N   UNL     1       4.773   6.240  16.416  0.00  0.00    +0.000 N 
ATOM      4  N   UNL     1       5.123   4.960  16.183  0.00  0.00    +0.000 NA
ATOM      5  C   UNL     1       4.395   4.298  17.072  0.00  0.00    +0.000 A 
ATOM      6  O   UNL     1       4.473   2.964  17.149  0.00  0.00    +0.000 OA
ATOM      7  C   UNL     1       3.699   2.331  18.084  0.00  0.00    +0.000 A 
ATOM      8  O   UNL     1       3.723   1.109  18.207  0.00  0.00    +0.000 OA
ATOM      9  C   UNL     1       2.802   3.146  18.980  0.00  0.00    +0.000 A 
ATOM     10  C   UNL     1       2.015   2.487  19.933  0.00  0.00    +0.000 A 
ATOM     11  C   UNL     1       1.176   3.219  20.773  0.00  0.00    +0.000 A 
ATOM     12  C   UNL     1       1.121   4.609  20.664  0.00  0.00    +0.000 A 
ATOM     13  C   UNL     1       1.901   5.278  19.716  0.00  0.00    +0.000 A 
ATOM     14  C   UNL     1       2.743   4.549  18.873  0.00  0.00    +0.000 A 
ATOM     15  C   UNL     1       3.590   5.114  17.865  0.00  0.00    +0.000 A 
ATOM     16  H   UNL     1       5.205   6.962  15.848  0.00  0.00    +0.000 HD
ENDROOT
TORSDOF 0
ENDMDL
MODEL 6
REMARK VINA RESULT:      -6.7      3.477      4.900
REMARK  Name = 
REMARK  1 active torsions:
REMARK  status: ('A' for Active; 'I' for Inactive)
REMARK    1  A    between atoms: C_1  and  C_2
REMARK                            x       y       z     vdW  Elec       q    Type
REMARK                         _______ _______ _______ _____ _____    ______ ____
ROOT
ATOM      1  C   UNL     1       1.462   3.686  21.021  0.00  0.00    +0.000 C 
ATOM      2  C   UNL     1       2.806   3.482  20.435  0.00  0.00    +0.000 A 
ATOM      3  N   UNL     1       3.554   2.360  20.728  0.00  0.00    +0.000 N 
ATOM      4  N   UNL     1       4.753   2.325  20.115  0.00  0.00    +0.000 NA
ATOM      5  C   UNL     1       4.754   3.456  19.422  0.00  0.00    +0.000 A 
ATOM      6  O   UNL     1       5.807   3.781  18.663  0.00  0.00    +0.000 OA
ATOM      7  C   UNL     1       5.755   4.960  17.969  0.00  0.00    +0.000 A 
ATOM      8  O   UNL     1       6.687   5.319  17.254  0.00  0.00    +0.000 OA
ATOM      9  C   UNL     1       4.532   5.834  18.081  0.00  0.00    +0.000 A 
ATOM     10  C   UNL     1       4.490   7.038  17.365  0.00  0.00    +0.000 A 
ATOM     11  C   UNL     1       3.369   7.863  17.452  0.00  0.00    +0.000 A 
ATOM     12  C   UNL     1       2.289   7.490  18.253  0.00  0.00    +0.000 A 
ATOM     13  C   UNL     1       2.320   6.292  18.973  0.00  0.00    +0.000 A 
ATOM     14  C   UNL     1       3.440   5.462  18.888  0.00  0.00    +0.000 A 
ATOM     15  C   UNL     1       3.593   4.212  19.572  0.00  0.00    +0.000 A 
ATOM     16  H   UNL     1       3.307   1.584  21.335  0.00  0.00    +0.000 HD
ENDROOT
TORSDOF 0
ENDMDL
MODEL 7
REMARK VINA RESULT:      -6.7      4.021      5.254
REMARK  Name = 
REMARK  1 active torsions:
REMARK  status: ('A' for Active; 'I' for Inactive)
REMARK    1  A    between atoms: C_1  and  C_2
REMARK                            x       y       z     vdW  Elec       q    Type
REMARK                         _______ _______ _______ _____ _____    ______ ____
ROOT
ATOM      1  C   UNL     1       3.404   1.403  18.616  0.00  0.00    +0.000 C 
ATOM      2  C   UNL     1       2.780   2.575  19.271  0.00  0.00    +0.000 A 
ATOM      3  N   UNL     1       1.907   2.427  20.329  0.00  0.00    +0.000 N 
ATOM      4  N   UNL     1       1.428   3.590  20.812  0.00  0.00    +0.000 NA
ATOM      5  C   UNL     1       2.017   4.487  20.034  0.00  0.00    +0.000 A 
ATOM      6  O   UNL     1       1.783   5.793  20.213  0.00  0.00    +0.000 OA
ATOM      7  C   UNL     1       2.418   6.676  19.382  0.00  0.00    +0.000 A 
ATOM      8  O   UNL     1       2.248   7.888  19.492  0.00  0.00    +0.000 OA
ATOM      9  C   UNL     1       3.344   6.155  18.313  0.00  0.00    +0.000 A 
ATOM     10  C   UNL     1       3.988   7.069  17.468  0.00  0.00    +0.000 A 
ATOM     11  C   UNL     1       4.849   6.612  16.471  0.00  0.00    +0.000 A 
ATOM     12  C   UNL     1       5.069   5.242  16.314  0.00  0.00    +0.000 A 
ATOM     13  C   UNL     1       4.431   4.321  17.150  0.00  0.00    +0.000 A 
ATOM     14  C   UNL     1       3.569   4.775  18.150  0.00  0.00    +0.000 A 
ATOM     15  C   UNL     1       2.858   3.935  19.069  0.00  0.00    +0.000 A 
ATOM     16  H   UNL     1       1.597   1.566  20.768  0.00  0.00    +0.000 HD
ENDROOT
TORSDOF 0
ENDMDL
MODEL 8
REMARK VINA RESULT:      -6.6      3.629      4.879
REMARK  Name = 
REMARK  1 active torsions:
REMARK  status: ('A' for Active; 'I' for Inactive)
REMARK    1  A    between atoms: C_1  and  C_2
REMARK                            x       y       z     vdW  Elec       q    Type
REMARK                         _______ _______ _______ _____ _____    ______ ____
ROOT
ATOM      1  C   UNL     1       3.383   1.472  18.544  0.00  0.00    +0.000 C 
ATOM      2  C   UNL     1       2.909   2.834  18.879  0.00  0.00    +0.000 A 
ATOM      3  N   UNL     1       1.969   3.045  19.868  0.00  0.00    +0.000 N 
ATOM      4  N   UNL     1       1.645   4.340  20.049  0.00  0.00    +0.000 NA
ATOM      5  C   UNL     1       2.403   4.953  19.150  0.00  0.00    +0.000 A 
ATOM      6  O   UNL     1       2.358   6.285  19.026  0.00  0.00    +0.000 OA
ATOM      7  C   UNL     1       3.160   6.867  18.082  0.00  0.00    +0.000 A 
ATOM      8  O   UNL     1       3.168   8.084  17.916  0.00  0.00    +0.000 OA
ATOM      9  C   UNL     1       4.052   6.000  17.230  0.00  0.00    +0.000 A 
ATOM     10  C   UNL     1       4.869   6.607  16.267  0.00  0.00    +0.000 A 
ATOM     11  C   UNL     1       5.703   5.827  15.466  0.00  0.00    +0.000 A 
ATOM     12  C   UNL     1       5.723   4.440  15.624  0.00  0.00    +0.000 A 
ATOM     13  C   UNL     1       4.912   3.823  16.581  0.00  0.00    +0.000 A 
ATOM     14  C   UNL     1       4.076   4.601  17.385  0.00  0.00    +0.000 A 
ATOM     15  C   UNL     1       3.201   4.091  18.399  0.00  0.00    +0.000 A 
ATOM     16  H   UNL     1       1.511   2.353  20.453  0.00  0.00    +0.000 HD
ENDROOT
TORSDOF 0
ENDMDL
MODEL 9
REMARK VINA RESULT:      -6.6      4.063      5.444
REMARK  Name = 
REMARK  1 active torsions:
REMARK  status: ('A' for Active; 'I' for Inactive)
REMARK    1  A    between atoms: C_1  and  C_2
REMARK                            x       y       z     vdW  Elec       q    Type
REMARK                         _______ _______ _______ _____ _____    ______ ____
ROOT
ATOM      1  C   UNL     1       2.107   7.691  19.858  0.00  0.00    +0.000 C 
ATOM      2  C   UNL     1       2.092   6.211  19.880  0.00  0.00    +0.000 A 
ATOM      3  N   UNL     1       1.344   5.514  20.807  0.00  0.00    +0.000 N 
ATOM      4  N   UNL     1       1.439   4.174  20.693  0.00  0.00    +0.000 NA
ATOM      5  C   UNL     1       2.268   4.032  19.668  0.00  0.00    +0.000 A 
ATOM      6  O   UNL     1       2.612   2.810  19.244  0.00  0.00    +0.000 OA
ATOM      7  C   UNL     1       3.471   2.721  18.182  0.00  0.00    +0.000 A 
ATOM      8  O   UNL     1       3.828   1.631  17.742  0.00  0.00    +0.000 OA
ATOM      9  C   UNL     1       3.990   3.981  17.539  0.00  0.00    +0.000 A 
ATOM     10  C   UNL     1       4.869   3.877  16.453  0.00  0.00    +0.000 A 
ATOM     11  C   UNL     1       5.363   5.029  15.841  0.00  0.00    +0.000 A 
ATOM     12  C   UNL     1       4.982   6.287  16.311  0.00  0.00    +0.000 A 
ATOM     13  C   UNL     1       4.106   6.403  17.394  0.00  0.00    +0.000 A 
ATOM     14  C   UNL     1       3.609   5.252  18.009  0.00  0.00    +0.000 A 
ATOM     15  C   UNL     1       2.707   5.238  19.123  0.00  0.00    +0.000 A 
ATOM     16  H   UNL     1       0.751   5.888  21.541  0.00  0.00    +0.000 HD
ENDROOT
TORSDOF 0
ENDMDL
