MODEL 1
REMARK VINA RESULT:      -6.6      0.000      0.000
REMARK  Name = 
REMARK  2 active torsions:
REMARK  status: ('A' for Active; 'I' for Inactive)
REMARK    1  A    between atoms: C_1  and  C_2
REMARK    2  A    between atoms: C_10  and  C_11
REMARK                            x       y       z     vdW  Elec       q    Type
REMARK                         _______ _______ _______ _____ _____    ______ ____
ROOT
ATOM      1  C   UNL     1       6.936   4.840  14.119  0.00  0.00    +0.000 C 
ATOM      2  C   UNL     1       5.938   4.834  15.217  0.00  0.00    +0.000 A 
ATOM      3  C   UNL     1       5.342   3.685  15.821  0.00  0.00    +0.000 A 
ATOM      4  C   UNL     1       4.475   4.127  16.794  0.00  0.00    +0.000 A 
ATOM      5  N   UNL     1       4.539   5.498  16.808  0.00  0.00    +0.000 N 
ATOM      6  C   UNL     1       5.410   5.943  15.858  0.00  0.00    +0.000 A 
ATOM      7  C   UNL     1       3.813   6.290  17.788  0.00  0.00    +0.000 C 
ATOM      8  C   UNL     1       2.510   5.608  18.220  0.00  0.00    +0.000 C 
ATOM      9  N   UNL     1       2.681   4.174  18.430  0.00  0.00    +0.000 N 
ATOM     10  C   UNL     1       1.970   3.331  19.251  0.00  0.00    +0.000 A 
ATOM     11  C   UNL     1       0.885   3.751  20.176  0.00  0.00    +0.000 C 
ATOM     12  C   UNL     1       2.462   2.054  19.030  0.00  0.00    +0.000 A 
ATOM     13  C   UNL     1       3.484   2.132  18.052  0.00  0.00    +0.000 A 
ATOM     14  C   UNL     1       3.608   3.455  17.703  0.00  0.00    +0.000 A 
ENDROOT
TORSDOF 0
ENDMDL
MODEL 2
REMARK VINA RESULT:      -6.6      1.160      1.173
REMARK  Name = 
REMARK  2 active torsions:
REMARK  status: ('A' for Active; 'I' for Inactive)
REMARK    1  A    between atoms: C_1  and  C_2
REMARK    2  A    between atoms: C_10  and  C_11
REMARK                            x       y       z     vdW  Elec       q    Type
REMARK                         _______ _______ _______ _____ _____    ______ ____
ROOT
ATOM      1  C   UNL     1       7.121   4.799  14.455  0.00  0.00    +0.000 C 
ATOM      2  C   UNL     1       6.263   4.704  15.662  0.00  0.00    +0.000 A 
ATOM      3  C   UNL     1       5.033   3.986  15.780  0.00  0.00    +0.000 A 
ATOM      4  C   UNL     1       4.570   4.162  17.064  0.00  0.00    +0.000 A 
ATOM      5  N   UNL     1       5.482   4.944  17.726  0.00  0.00    +0.000 N 
ATOM      6  C   UNL     1       6.506   5.288  16.894  0.00  0.00    +0.000 A 
ATOM      7  C   UNL     1       5.347   5.249  19.141  0.00  0.00    +0.000 C 
ATOM      8  C   UNL     1       3.878   5.299  19.577  0.00  0.00    +0.000 C 
ATOM      9  N   UNL     1       3.091   4.220  18.989  0.00  0.00    +0.000 N 
ATOM     10  C   UNL     1       1.949   3.624  19.470  0.00  0.00    +0.000 A 
ATOM     11  C   UNL     1       1.306   3.933  20.774  0.00  0.00    +0.000 C 
ATOM     12  C   UNL     1       1.541   2.714  18.507  0.00  0.00    +0.000 A 
ATOM     13  C   UNL     1       2.453   2.770  17.424  0.00  0.00    +0.000 A 
ATOM     14  C   UNL     1       3.408   3.702  17.750  0.00  0.00    +0.000 A 
ENDROOT
TORSDOF 0
ENDMDL
MODEL 3
REMARK VINA RESULT:      -6.4      1.258      2.712
REMARK  Name = 
REMARK  2 active torsions:
REMARK  status: ('A' for Active; 'I' for Inactive)
REMARK    1  A    between atoms: C_1  and  C_2
REMARK    2  A    between atoms: C_10  and  C_11
REMARK                            x       y       z     vdW  Elec       q    Type
REMARK                         _______ _______ _______ _____ _____    ______ ____
ROOT
ATOM      1  C   UNL     1       7.110   4.880  13.915  0.00  0.00    +0.000 C 
ATOM      2  C   UNL     1       6.152   4.805  15.047  0.00  0.00    +0.000 A 
ATOM      3  C   UNL     1       5.494   5.904  15.680  0.00  0.00    +0.000 A 
ATOM      4  C   UNL     1       4.697   5.392  16.678  0.00  0.00    +0.000 A 
ATOM      5  N   UNL     1       4.839   4.028  16.659  0.00  0.00    +0.000 N 
ATOM      6  C   UNL     1       5.720   3.656  15.687  0.00  0.00    +0.000 A 
ATOM      7  C   UNL     1       4.060   3.162  17.529  0.00  0.00    +0.000 C 
ATOM      8  C   UNL     1       3.714   3.849  18.855  0.00  0.00    +0.000 C 
ATOM      9  N   UNL     1       3.315   5.240  18.669  0.00  0.00    +0.000 N 
ATOM     10  C   UNL     1       2.494   6.014  19.455  0.00  0.00    +0.000 A 
ATOM     11  C   UNL     1       1.769   5.541  20.662  0.00  0.00    +0.000 C 
ATOM     12  C   UNL     1       2.497   7.284  18.899  0.00  0.00    +0.000 A 
ATOM     13  C   UNL     1       3.342   7.273  17.762  0.00  0.00    +0.000 A 
ATOM     14  C   UNL     1       3.829   5.995  17.635  0.00  0.00    +0.000 A 
ENDROOT
TORSDOF 0
ENDMDL
MODEL 4
REMARK VINA RESULT:      -6.3      1.294      2.605
REMARK  Name = 
REMARK  2 active torsions:
REMARK  status: ('A' for Active; 'I' for Inactive)
REMARK    1  A    between atoms: C_1  and  C_2
REMARK    2  A    between atoms: C_10  and  C_11
REMARK                            x       y       z     vdW  Elec       q    Type
REMARK                         _______ _______ _______ _____ _____    ______ ____
ROOT
ATOM      1  C   UNL     1       5.964   5.706  15.085  0.00  0.00    +0.000 C 
ATOM      2  C   UNL     1       5.160   5.029  16.132  0.00  0.00    +0.000 A 
ATOM      3  C   UNL     1       4.397   5.661  17.163  0.00  0.00    +0.000 A 
ATOM      4  C   UNL     1       3.810   4.669  17.913  0.00  0.00    +0.000 A 
ATOM      5  N   UNL     1       4.177   3.466  17.365  0.00  0.00    +0.000 N 
ATOM      6  C   UNL     1       4.999   3.664  16.294  0.00  0.00    +0.000 A 
ATOM      7  C   UNL     1       3.652   2.204  17.860  0.00  0.00    +0.000 C 
ATOM      8  C   UNL     1       3.341   2.265  19.359  0.00  0.00    +0.000 C 
ATOM      9  N   UNL     1       2.695   3.518  19.738  0.00  0.00    +0.000 N 
ATOM     10  C   UNL     1       1.844   3.767  20.789  0.00  0.00    +0.000 A 
ATOM     11  C   UNL     1       1.342   2.745  21.745  0.00  0.00    +0.000 C 
ATOM     12  C   UNL     1       1.573   5.126  20.766  0.00  0.00    +0.000 A 
ATOM     13  C   UNL     1       2.281   5.705  19.684  0.00  0.00    +0.000 A 
ATOM     14  C   UNL     1       2.960   4.688  19.058  0.00  0.00    +0.000 A 
ENDROOT
TORSDOF 0
ENDMDL
MODEL 5
REMARK VINA RESULT:      -6.0      1.940      2.824
REMARK  Name = 
REMARK  2 active torsions:
REMARK  status: ('A' for Active; 'I' for Inactive)
REMARK    1  A    between atoms: C_1  and  C_2
REMARK    2  A    between atoms: C_10  and  C_11
REMARK                            x       y       z     vdW  Elec       q    Type
REMARK                         _______ _______ _______ _____ _____    ______ ____
ROOT
ATOM      1  C   UNL     1       7.977   6.494  18.591  0.00  0.00    +0.000 C 
ATOM      2  C   UNL     1       6.710   5.732  18.455  0.00  0.00    +0.000 A 
ATOM      3  C   UNL     1       5.632   5.698  19.392  0.00  0.00    +0.000 A 
ATOM      4  C   UNL     1       4.659   4.873  18.877  0.00  0.00    +0.000 A 
ATOM      5  N   UNL     1       5.104   4.423  17.660  0.00  0.00    +0.000 N 
ATOM      6  C   UNL     1       6.344   4.924  17.392  0.00  0.00    +0.000 A 
ATOM      7  C   UNL     1       4.274   3.598  16.796  0.00  0.00    +0.000 C 
ATOM      8  C   UNL     1       3.313   2.717  17.601  0.00  0.00    +0.000 C 
ATOM      9  N   UNL     1       2.707   3.437  18.717  0.00  0.00    +0.000 N 
ATOM     10  C   UNL     1       1.500   3.213  19.335  0.00  0.00    +0.000 A 
ATOM     11  C   UNL     1       0.504   2.189  18.922  0.00  0.00    +0.000 C 
ATOM     12  C   UNL     1       1.421   4.109  20.389  0.00  0.00    +0.000 A 
ATOM     13  C   UNL     1       2.609   4.882  20.407  0.00  0.00    +0.000 A 
ATOM     14  C   UNL     1       3.384   4.454  19.358  0.00  0.00    +0.000 A 
ENDROOT
TORSDOF 0
ENDMDL
MODEL 6
REMARK VINA RESULT:      -6.0      1.745      3.244
REMARK  Name = 
REMARK  2 active torsions:
REMARK  status: ('A' for Active; 'I' for Inactive)
REMARK    1  A    between atoms: C_1  and  C_2
REMARK    2  A    between atoms: C_10  and  C_11
REMARK                            x       y       z     vdW  Elec       q    Type
REMARK                         _______ _______ _______ _____ _____    ______ ____
ROOT
ATOM      1  C   UNL     1       6.860   4.838  14.540  0.00  0.00    +0.000 C 
ATOM      2  C   UNL     1       5.924   5.067  15.669  0.00  0.00    +0.000 A 
ATOM      3  C   UNL     1       5.170   6.252  15.925  0.00  0.00    +0.000 A 
ATOM      4  C   UNL     1       4.435   6.040  17.068  0.00  0.00    +0.000 A 
ATOM      5  N   UNL     1       4.707   4.768  17.501  0.00  0.00    +0.000 N 
ATOM      6  C   UNL     1       5.610   4.168  16.674  0.00  0.00    +0.000 A 
ATOM      7  C   UNL     1       4.022   4.182  18.642  0.00  0.00    +0.000 C 
ATOM      8  C   UNL     1       3.625   5.242  19.675  0.00  0.00    +0.000 C 
ATOM      9  N   UNL     1       3.092   6.449  19.050  0.00  0.00    +0.000 N 
ATOM     10  C   UNL     1       2.208   7.368  19.563  0.00  0.00    +0.000 A 
ATOM     11  C   UNL     1       1.543   7.268  20.889  0.00  0.00    +0.000 C 
ATOM     12  C   UNL     1       2.084   8.371  18.615  0.00  0.00    +0.000 A 
ATOM     13  C   UNL     1       2.916   8.051  17.514  0.00  0.00    +0.000 A 
ATOM     14  C   UNL     1       3.522   6.852  17.802  0.00  0.00    +0.000 A 
ENDROOT
TORSDOF 0
ENDMDL
MODEL 7
REMARK VINA RESULT:      -5.9      1.426      4.785
REMARK  Name = 
REMARK  2 active torsions:
REMARK  status: ('A' for Active; 'I' for Inactive)
REMARK    1  A    between atoms: C_1  and  C_2
REMARK    2  A    between atoms: C_10  and  C_11
REMARK                            x       y       z     vdW  Elec       q    Type
REMARK                         _______ _______ _______ _____ _____    ______ ____
ROOT
ATOM      1  C   UNL     1       0.611   1.923  18.646  0.00  0.00    +0.000 C 
ATOM      2  C   UNL     1       1.739   2.883  18.549  0.00  0.00    +0.000 A 
ATOM      3  C   UNL     1       2.630   3.043  17.444  0.00  0.00    +0.000 A 
ATOM      4  C   UNL     1       3.524   4.036  17.770  0.00  0.00    +0.000 A 
ATOM      5  N   UNL     1       3.195   4.491  19.022  0.00  0.00    +0.000 N 
ATOM      6  C   UNL     1       2.126   3.800  19.512  0.00  0.00    +0.000 A 
ATOM      7  C   UNL     1       3.885   5.613  19.637  0.00  0.00    +0.000 C 
ATOM      8  C   UNL     1       5.345   5.706  19.180  0.00  0.00    +0.000 C 
ATOM      9  N   UNL     1       5.491   5.460  17.749  0.00  0.00    +0.000 N 
ATOM     10  C   UNL     1       6.465   5.914  16.890  0.00  0.00    +0.000 A 
ATOM     11  C   UNL     1       7.568   6.839  17.260  0.00  0.00    +0.000 C 
ATOM     12  C   UNL     1       6.206   5.337  15.657  0.00  0.00    +0.000 A 
ATOM     13  C   UNL     1       5.058   4.515  15.779  0.00  0.00    +0.000 A 
ATOM     14  C   UNL     1       4.629   4.616  17.080  0.00  0.00    +0.000 A 
ENDROOT
TORSDOF 0
ENDMDL
MODEL 8
REMARK VINA RESULT:      -5.9      1.738      5.436
REMARK  Name = 
REMARK  2 active torsions:
REMARK  status: ('A' for Active; 'I' for Inactive)
REMARK    1  A    between atoms: C_1  and  C_2
REMARK    2  A    between atoms: C_10  and  C_11
REMARK                            x       y       z     vdW  Elec       q    Type
REMARK                         _______ _______ _______ _____ _____    ______ ____
ROOT
ATOM      1  C   UNL     1       1.140   2.500  22.276  0.00  0.00    +0.000 C 
ATOM      2  C   UNL     1       1.990   3.139  21.240  0.00  0.00    +0.000 A 
ATOM      3  C   UNL     1       1.777   4.414  20.631  0.00  0.00    +0.000 A 
ATOM      4  C   UNL     1       2.795   4.619  19.729  0.00  0.00    +0.000 A 
ATOM      5  N   UNL     1       3.620   3.525  19.784  0.00  0.00    +0.000 N 
ATOM      6  C   UNL     1       3.145   2.617  20.684  0.00  0.00    +0.000 A 
ATOM      7  C   UNL     1       4.856   3.456  19.020  0.00  0.00    +0.000 C 
ATOM      8  C   UNL     1       4.760   4.241  17.708  0.00  0.00    +0.000 C 
ATOM      9  N   UNL     1       4.084   5.523  17.880  0.00  0.00    +0.000 N 
ATOM     10  C   UNL     1       4.224   6.677  17.146  0.00  0.00    +0.000 A 
ATOM     11  C   UNL     1       5.184   6.870  16.027  0.00  0.00    +0.000 C 
ATOM     12  C   UNL     1       3.305   7.583  17.653  0.00  0.00    +0.000 A 
ATOM     13  C   UNL     1       2.595   6.957  18.707  0.00  0.00    +0.000 A 
ATOM     14  C   UNL     1       3.102   5.686  18.835  0.00  0.00    +0.000 A 
ENDROOT
TORSDOF 0
ENDMDL
MODEL 9
REMARK VINA RESULT:      -5.8      2.063      3.618
REMARK  Name = 
REMARK  2 active torsions:
REMARK  status: ('A' for Active; 'I' for Inactive)
REMARK    1  A    between atoms: C_1  and  C_2
REMARK    2  A    between atoms: C_10  and  C_11
REMARK                            x       y       z     vdW  Elec       q    Type
REMARK                         _______ _______ _______ _____ _____    ______ ____
ROOT
ATOM      1  C   UNL     1       5.949   3.778  15.534  0.00  0.00    +0.000 C 
ATOM      2  C   UNL     1       5.028   4.334  16.556  0.00  0.00    +0.000 A 
ATOM      3  C   UNL     1       4.570   5.684  16.646  0.00  0.00    +0.000 A 
ATOM      4  C   UNL     1       3.735   5.769  17.737  0.00  0.00    +0.000 A 
ATOM      5  N   UNL     1       3.662   4.518  18.296  0.00  0.00    +0.000 N 
ATOM      6  C   UNL     1       4.443   3.641  17.603  0.00  0.00    +0.000 A 
ATOM      7  C   UNL     1       2.785   4.230  19.420  0.00  0.00    +0.000 C 
ATOM      8  C   UNL     1       2.593   5.453  20.322  0.00  0.00    +0.000 C 
ATOM      9  N   UNL     1       2.410   6.681  19.556  0.00  0.00    +0.000 N 
ATOM     10  C   UNL     1       1.746   7.831  19.913  0.00  0.00    +0.000 A 
ATOM     11  C   UNL     1       0.994   8.026  21.181  0.00  0.00    +0.000 C 
ATOM     12  C   UNL     1       1.929   8.733  18.877  0.00  0.00    +0.000 A 
ATOM     13  C   UNL     1       2.726   8.115  17.882  0.00  0.00    +0.000 A 
ATOM     14  C   UNL     1       3.002   6.843  18.320  0.00  0.00    +0.000 A 
ENDROOT
TORSDOF 0
ENDMDL
