MODEL 1
REMARK VINA RESULT:      -6.7      0.000      0.000
REMARK  Name = 
REMARK  9 active torsions:
REMARK  status: ('A' for Active; 'I' for Inactive)
REMARK    1  A    between atoms: C_1  and  C_2
REMARK    2  A    between atoms: C_2  and  C_3
REMARK    3  A    between atoms: C_3  and  C_4
REMARK    4  A    between atoms: C_4  and  C_5
REMARK    5  A    between atoms: C_5  and  N_6
REMARK    6  A    between atoms: N_6  and  C_7
REMARK    7  A    between atoms: C_10  and  C_11
REMARK    8  A    between atoms: C_11  and  O_13
REMARK    9  A    between atoms: C_15  and  N_16
REMARK                            x       y       z     vdW  Elec       q    Type
REMARK                         _______ _______ _______ _____ _____    ______ ____
ROOT
ATOM      1  C   UNL     1       3.528   5.304  17.525  0.00  0.00    +0.000 A 
ATOM      2  C   UNL     1       4.292   6.353  16.994  0.00  0.00    +0.000 A 
ATOM      3  C   UNL     1       5.333   6.122  16.084  0.00  0.00    +0.000 A 
ATOM      4  C   UNL     1       5.676   4.825  15.706  0.00  0.00    +0.000 A 
ATOM      5  C   UNL     1       4.964   3.748  16.231  0.00  0.00    +0.000 A 
ATOM      6  C   UNL     1       3.910   4.002  17.132  0.00  0.00    +0.000 A 
ENDROOT
BRANCH   6   7
ATOM      7  N   UNL     1       3.210   2.844  17.662  0.00  0.00    +0.000 N 
ATOM      8  O   UNL     1       3.820   2.131  18.472  0.00  0.00    +0.000 OA
ATOM      9  O   UNL     1       2.033   2.688  17.306  0.00  0.00    +0.000 OA
ENDBRANCH   6   7
BRANCH   1  10
ATOM     10  N   UNL     1       2.533   5.538  18.483  0.00  0.00    +0.000 N 
ATOM     11  H   UNL     1       1.733   6.056  18.112  0.00  0.00    +0.000 HD
BRANCH  10  12
ATOM     12  C   UNL     1       2.904   5.917  19.847  0.00  0.00    +0.000 C 
BRANCH  12  13
ATOM     13  C   UNL     1       2.049   5.193  20.884  0.00  0.00    +0.000 C 
BRANCH  13  14
ATOM     14  C   UNL     1       1.022   4.259  20.243  0.00  0.00    +0.000 C 
BRANCH  14  16
ATOM     15  C   UNL     1       2.376   2.713  21.681  0.00  0.00    +0.000 C 
ATOM     16  C   UNL     1       1.169   2.833  20.767  0.00  0.00    +0.000 C 
ENDBRANCH  14  16
ENDBRANCH  13  14
ENDBRANCH  12  13
ENDBRANCH  10  12
ENDBRANCH   1  10
BRANCH   4  17
ATOM     17  C   UNL     1       6.760   4.669  14.705  0.00  0.00    +0.000 C 
ATOM     18  O   UNL     1       7.725   5.410  14.670  0.00  0.00    +0.000 OA
BRANCH  17  19
ATOM     19  O   UNL     1       6.595   3.624  13.869  0.00  0.00    +0.000 OA
ATOM     20  H   UNL     1       6.275   2.797  14.274  0.00  0.00    +0.000 HD
ENDBRANCH  17  19
ENDBRANCH   4  17
TORSDOF 8
ENDMDL
MODEL 2
REMARK VINA RESULT:      -6.6      2.308      2.977
REMARK  Name = 
REMARK  9 active torsions:
REMARK  status: ('A' for Active; 'I' for Inactive)
REMARK    1  A    between atoms: C_1  and  C_2
REMARK    2  A    between atoms: C_2  and  C_3
REMARK    3  A    between atoms: C_3  and  C_4
REMARK    4  A    between atoms: C_4  and  C_5
REMARK    5  A    between atoms: C_5  and  N_6
REMARK    6  A    between atoms: N_6  and  C_7
REMARK    7  A    between atoms: C_10  and  C_11
REMARK    8  A    between atoms: C_11  and  O_13
REMARK    9  A    between atoms: C_15  and  N_16
REMARK                            x       y       z     vdW  Elec       q    Type
REMARK                         _______ _______ _______ _____ _____    ______ ____
ROOT
ATOM      1  C   UNL     1       5.126   5.099  18.160  0.00  0.00    +0.000 A 
ATOM      2  C   UNL     1       4.371   4.669  17.058  0.00  0.00    +0.000 A 
ATOM      3  C   UNL     1       4.939   4.518  15.786  0.00  0.00    +0.000 A 
ATOM      4  C   UNL     1       6.279   4.833  15.561  0.00  0.00    +0.000 A 
ATOM      5  C   UNL     1       7.061   5.293  16.619  0.00  0.00    +0.000 A 
ATOM      6  C   UNL     1       6.474   5.423  17.893  0.00  0.00    +0.000 A 
ENDROOT
BRANCH   6   7
ATOM      7  N   UNL     1       7.329   5.920  18.958  0.00  0.00    +0.000 N 
ATOM      8  O   UNL     1       7.285   5.329  20.046  0.00  0.00    +0.000 OA
ATOM      9  O   UNL     1       8.080   6.865  18.680  0.00  0.00    +0.000 OA
ENDBRANCH   6   7
BRANCH   1  10
ATOM     10  N   UNL     1       4.535   5.310  19.412  0.00  0.00    +0.000 N 
ATOM     11  H   UNL     1       5.173   5.736  20.089  0.00  0.00    +0.000 HD
BRANCH  10  12
ATOM     12  C   UNL     1       3.650   4.296  19.986  0.00  0.00    +0.000 C 
BRANCH  12  13
ATOM     13  C   UNL     1       2.433   4.926  20.657  0.00  0.00    +0.000 C 
BRANCH  13  14
ATOM     14  C   UNL     1       1.121   4.283  20.206  0.00  0.00    +0.000 C 
BRANCH  14  16
ATOM     15  C   UNL     1       0.825   2.258  18.756  0.00  0.00    +0.000 C 
ATOM     16  C   UNL     1       1.239   3.719  18.793  0.00  0.00    +0.000 C 
ENDBRANCH  14  16
ENDBRANCH  13  14
ENDBRANCH  12  13
ENDBRANCH  10  12
ENDBRANCH   1  10
BRANCH   4  17
ATOM     17  C   UNL     1       6.814   4.602  14.197  0.00  0.00    +0.000 C 
ATOM     18  O   UNL     1       7.579   5.380  13.657  0.00  0.00    +0.000 OA
BRANCH  17  19
ATOM     19  O   UNL     1       6.407   3.447  13.631  0.00  0.00    +0.000 OA
ATOM     20  H   UNL     1       6.081   2.762  14.242  0.00  0.00    +0.000 HD
ENDBRANCH  17  19
ENDBRANCH   4  17
TORSDOF 8
ENDMDL
MODEL 3
REMARK VINA RESULT:      -6.6      2.287      3.050
REMARK  Name = 
REMARK  9 active torsions:
REMARK  status: ('A' for Active; 'I' for Inactive)
REMARK    1  A    between atoms: C_1  and  C_2
REMARK    2  A    between atoms: C_2  and  C_3
REMARK    3  A    between atoms: C_3  and  C_4
REMARK    4  A    between atoms: C_4  and  C_5
REMARK    5  A    between atoms: C_5  and  N_6
REMARK    6  A    between atoms: N_6  and  C_7
REMARK    7  A    between atoms: C_10  and  C_11
REMARK    8  A    between atoms: C_11  and  O_13
REMARK    9  A    between atoms: C_15  and  N_16
REMARK                            x       y       z     vdW  Elec       q    Type
REMARK                         _______ _______ _______ _____ _____    ______ ____
ROOT
ATOM      1  C   UNL     1       5.252   4.731  18.221  0.00  0.00    +0.000 A 
ATOM      2  C   UNL     1       4.516   4.229  17.138  0.00  0.00    +0.000 A 
ATOM      3  C   UNL     1       5.042   4.190  15.840  0.00  0.00    +0.000 A 
ATOM      4  C   UNL     1       6.314   4.694  15.571  0.00  0.00    +0.000 A 
ATOM      5  C   UNL     1       7.072   5.231  16.610  0.00  0.00    +0.000 A 
ATOM      6  C   UNL     1       6.530   5.246  17.911  0.00  0.00    +0.000 A 
ENDROOT
BRANCH   6   7
ATOM      7  N   UNL     1       7.355   5.830  18.956  0.00  0.00    +0.000 N 
ATOM      8  O   UNL     1       8.013   6.839  18.664  0.00  0.00    +0.000 OA
ATOM      9  O   UNL     1       7.294   5.307  20.077  0.00  0.00    +0.000 OA
ENDBRANCH   6   7
BRANCH   1  10
ATOM     10  N   UNL     1       4.694   4.828  19.502  0.00  0.00    +0.000 N 
ATOM     11  H   UNL     1       4.792   3.967  20.047  0.00  0.00    +0.000 HD
BRANCH  10  12
ATOM     12  C   UNL     1       3.413   5.509  19.695  0.00  0.00    +0.000 C 
BRANCH  12  13
ATOM     13  C   UNL     1       2.539   4.786  20.715  0.00  0.00    +0.000 C 
BRANCH  13  14
ATOM     14  C   UNL     1       1.173   4.403  20.145  0.00  0.00    +0.000 C 
BRANCH  14  16
ATOM     15  C   UNL     1       1.203   2.347  18.708  0.00  0.00    +0.000 C 
ATOM     16  C   UNL     1       0.993   2.887  20.112  0.00  0.00    +0.000 C 
ENDBRANCH  14  16
ENDBRANCH  13  14
ENDBRANCH  12  13
ENDBRANCH  10  12
ENDBRANCH   1  10
BRANCH   4  17
ATOM     17  C   UNL     1       6.816   4.574  14.180  0.00  0.00    +0.000 C 
ATOM     18  O   UNL     1       6.375   3.752  13.397  0.00  0.00    +0.000 OA
BRANCH  17  19
ATOM     19  O   UNL     1       7.769   5.472  13.856  0.00  0.00    +0.000 OA
ATOM     20  H   UNL     1       8.690   5.194  14.013  0.00  0.00    +0.000 HD
ENDBRANCH  17  19
ENDBRANCH   4  17
TORSDOF 8
ENDMDL
MODEL 4
REMARK VINA RESULT:      -6.6      0.802      1.097
REMARK  Name = 
REMARK  9 active torsions:
REMARK  status: ('A' for Active; 'I' for Inactive)
REMARK    1  A    between atoms: C_1  and  C_2
REMARK    2  A    between atoms: C_2  and  C_3
REMARK    3  A    between atoms: C_3  and  C_4
REMARK    4  A    between atoms: C_4  and  C_5
REMARK    5  A    between atoms: C_5  and  N_6
REMARK    6  A    between atoms: N_6  and  C_7
REMARK    7  A    between atoms: C_10  and  C_11
REMARK    8  A    between atoms: C_11  and  O_13
REMARK    9  A    between atoms: C_15  and  N_16
REMARK                            x       y       z     vdW  Elec       q    Type
REMARK                         _______ _______ _______ _____ _____    ______ ____
ROOT
ATOM      1  C   UNL     1       4.713   5.103  18.177  0.00  0.00    +0.000 A 
ATOM      2  C   UNL     1       5.749   5.966  17.791  0.00  0.00    +0.000 A 
ATOM      3  C   UNL     1       6.407   5.828  16.561  0.00  0.00    +0.000 A 
ATOM      4  C   UNL     1       6.079   4.790  15.689  0.00  0.00    +0.000 A 
ATOM      5  C   UNL     1       5.076   3.890  16.043  0.00  0.00    +0.000 A 
ATOM      6  C   UNL     1       4.416   4.056  17.277  0.00  0.00    +0.000 A 
ENDROOT
BRANCH   6   7
ATOM      7  N   UNL     1       3.389   3.082  17.605  0.00  0.00    +0.000 N 
ATOM      8  O   UNL     1       3.662   2.234  18.467  0.00  0.00    +0.000 OA
ATOM      9  O   UNL     1       2.295   3.206  17.037  0.00  0.00    +0.000 OA
ENDBRANCH   6   7
BRANCH   1  10
ATOM     10  N   UNL     1       4.106   5.208  19.435  0.00  0.00    +0.000 N 
ATOM     11  H   UNL     1       4.226   4.369  20.009  0.00  0.00    +0.000 HD
BRANCH  10  12
ATOM     12  C   UNL     1       2.789   5.832  19.564  0.00  0.00    +0.000 C 
BRANCH  12  13
ATOM     13  C   UNL     1       1.976   5.199  20.691  0.00  0.00    +0.000 C 
BRANCH  13  14
ATOM     14  C   UNL     1       0.944   4.197  20.173  0.00  0.00    +0.000 C 
BRANCH  14  16
ATOM     15  C   UNL     1       2.356   2.818  21.720  0.00  0.00    +0.000 C 
ATOM     16  C   UNL     1       1.155   2.817  20.789  0.00  0.00    +0.000 C 
ENDBRANCH  14  16
ENDBRANCH  13  14
ENDBRANCH  12  13
ENDBRANCH  10  12
ENDBRANCH   1  10
BRANCH   4  17
ATOM     17  C   UNL     1       6.791   4.741  14.389  0.00  0.00    +0.000 C 
ATOM     18  O   UNL     1       6.427   4.026  13.473  0.00  0.00    +0.000 OA
BRANCH  17  19
ATOM     19  O   UNL     1       7.847   5.576  14.304  0.00  0.00    +0.000 OA
ATOM     20  H   UNL     1       8.306   5.773  15.141  0.00  0.00    +0.000 HD
ENDBRANCH  17  19
ENDBRANCH   4  17
TORSDOF 8
ENDMDL
MODEL 5
REMARK VINA RESULT:      -6.5      2.248      2.845
REMARK  Name = 
REMARK  9 active torsions:
REMARK  status: ('A' for Active; 'I' for Inactive)
REMARK    1  A    between atoms: C_1  and  C_2
REMARK    2  A    between atoms: C_2  and  C_3
REMARK    3  A    between atoms: C_3  and  C_4
REMARK    4  A    between atoms: C_4  and  C_5
REMARK    5  A    between atoms: C_5  and  N_6
REMARK    6  A    between atoms: N_6  and  C_7
REMARK    7  A    between atoms: C_10  and  C_11
REMARK    8  A    between atoms: C_11  and  O_13
REMARK    9  A    between atoms: C_15  and  N_16
REMARK                            x       y       z     vdW  Elec       q    Type
REMARK                         _______ _______ _______ _____ _____    ______ ____
ROOT
ATOM      1  C   UNL     1       5.165   5.354  18.187  0.00  0.00    +0.000 A 
ATOM      2  C   UNL     1       4.400   5.021  17.059  0.00  0.00    +0.000 A 
ATOM      3  C   UNL     1       4.987   4.805  15.805  0.00  0.00    +0.000 A 
ATOM      4  C   UNL     1       6.362   4.957  15.625  0.00  0.00    +0.000 A 
ATOM      5  C   UNL     1       7.159   5.317  16.710  0.00  0.00    +0.000 A 
ATOM      6  C   UNL     1       6.550   5.514  17.966  0.00  0.00    +0.000 A 
ENDROOT
BRANCH   6   7
ATOM      7  N   UNL     1       7.424   5.902  19.061  0.00  0.00    +0.000 N 
ATOM      8  O   UNL     1       8.184   6.862  18.870  0.00  0.00    +0.000 OA
ATOM      9  O   UNL     1       7.303   5.278  20.124  0.00  0.00    +0.000 OA
ENDBRANCH   6   7
BRANCH   1  10
ATOM     10  N   UNL     1       4.563   5.632  19.421  0.00  0.00    +0.000 N 
ATOM     11  H   UNL     1       4.903   5.032  20.177  0.00  0.00    +0.000 HD
BRANCH  10  12
ATOM     12  C   UNL     1       3.130   5.918  19.490  0.00  0.00    +0.000 C 
BRANCH  12  13
ATOM     13  C   UNL     1       2.489   5.288  20.724  0.00  0.00    +0.000 C 
BRANCH  13  14
ATOM     14  C   UNL     1       1.121   4.676  20.422  0.00  0.00    +0.000 C 
BRANCH  14  16
ATOM     15  C   UNL     1       1.535   2.497  21.593  0.00  0.00    +0.000 C 
ATOM     16  C   UNL     1       1.215   3.161  20.265  0.00  0.00    +0.000 C 
ENDBRANCH  14  16
ENDBRANCH  13  14
ENDBRANCH  12  13
ENDBRANCH  10  12
ENDBRANCH   1  10
BRANCH   4  17
ATOM     17  C   UNL     1       6.910   4.667  14.277  0.00  0.00    +0.000 C 
ATOM     18  O   UNL     1       7.776   5.351  13.765  0.00  0.00    +0.000 OA
BRANCH  17  19
ATOM     19  O   UNL     1       6.389   3.568  13.694  0.00  0.00    +0.000 OA
ATOM     20  H   UNL     1       7.000   2.819  13.569  0.00  0.00    +0.000 HD
ENDBRANCH  17  19
ENDBRANCH   4  17
TORSDOF 8
ENDMDL
MODEL 6
REMARK VINA RESULT:      -6.5      0.910      1.074
REMARK  Name = 
REMARK  9 active torsions:
REMARK  status: ('A' for Active; 'I' for Inactive)
REMARK    1  A    between atoms: C_1  and  C_2
REMARK    2  A    between atoms: C_2  and  C_3
REMARK    3  A    between atoms: C_3  and  C_4
REMARK    4  A    between atoms: C_4  and  C_5
REMARK    5  A    between atoms: C_5  and  N_6
REMARK    6  A    between atoms: N_6  and  C_7
REMARK    7  A    between atoms: C_10  and  C_11
REMARK    8  A    between atoms: C_11  and  O_13
REMARK    9  A    between atoms: C_15  and  N_16
REMARK                            x       y       z     vdW  Elec       q    Type
REMARK                         _______ _______ _______ _____ _____    ______ ____
ROOT
ATOM      1  C   UNL     1       4.707   5.186  18.139  0.00  0.00    +0.000 A 
ATOM      2  C   UNL     1       5.744   6.048  17.750  0.00  0.00    +0.000 A 
ATOM      3  C   UNL     1       6.435   5.876  16.543  0.00  0.00    +0.000 A 
ATOM      4  C   UNL     1       6.141   4.806  15.699  0.00  0.00    +0.000 A 
ATOM      5  C   UNL     1       5.140   3.905  16.058  0.00  0.00    +0.000 A 
ATOM      6  C   UNL     1       4.446   4.105  17.269  0.00  0.00    +0.000 A 
ENDROOT
BRANCH   6   7
ATOM      7  N   UNL     1       3.422   3.130  17.603  0.00  0.00    +0.000 N 
ATOM      8  O   UNL     1       3.671   2.335  18.520  0.00  0.00    +0.000 OA
ATOM      9  O   UNL     1       2.352   3.204  16.982  0.00  0.00    +0.000 OA
ENDBRANCH   6   7
BRANCH   1  10
ATOM     10  N   UNL     1       4.067   5.327  19.377  0.00  0.00    +0.000 N 
ATOM     11  H   UNL     1       4.044   4.457  19.917  0.00  0.00    +0.000 HD
BRANCH  10  12
ATOM     12  C   UNL     1       2.845   6.124  19.484  0.00  0.00    +0.000 C 
BRANCH  12  13
ATOM     13  C   UNL     1       1.857   5.508  20.471  0.00  0.00    +0.000 C 
BRANCH  13  14
ATOM     14  C   UNL     1       2.444   4.306  21.211  0.00  0.00    +0.000 C 
BRANCH  14  16
ATOM     15  C   UNL     1       0.673   3.015  19.993  0.00  0.00    +0.000 C 
ATOM     16  C   UNL     1       1.436   3.164  21.298  0.00  0.00    +0.000 C 
ENDBRANCH  14  16
ENDBRANCH  13  14
ENDBRANCH  12  13
ENDBRANCH  10  12
ENDBRANCH   1  10
BRANCH   4  17
ATOM     17  C   UNL     1       6.888   4.721  14.420  0.00  0.00    +0.000 C 
ATOM     18  O   UNL     1       7.753   5.522  14.116  0.00  0.00    +0.000 OA
BRANCH  17  19
ATOM     19  O   UNL     1       6.547   3.668  13.650  0.00  0.00    +0.000 OA
ATOM     20  H   UNL     1       5.594   3.547  13.486  0.00  0.00    +0.000 HD
ENDBRANCH  17  19
ENDBRANCH   4  17
TORSDOF 8
ENDMDL
MODEL 7
REMARK VINA RESULT:      -6.4      3.547      6.285
REMARK  Name = 
REMARK  9 active torsions:
REMARK  status: ('A' for Active; 'I' for Inactive)
REMARK    1  A    between atoms: C_1  and  C_2
REMARK    2  A    between atoms: C_2  and  C_3
REMARK    3  A    between atoms: C_3  and  C_4
REMARK    4  A    between atoms: C_4  and  C_5
REMARK    5  A    between atoms: C_5  and  N_6
REMARK    6  A    between atoms: N_6  and  C_7
REMARK    7  A    between atoms: C_10  and  C_11
REMARK    8  A    between atoms: C_11  and  O_13
REMARK    9  A    between atoms: C_15  and  N_16
REMARK                            x       y       z     vdW  Elec       q    Type
REMARK                         _______ _______ _______ _____ _____    ______ ____
ROOT
ATOM      1  C   UNL     1       5.749   6.477  17.086  0.00  0.00    +0.000 A 
ATOM      2  C   UNL     1       4.455   6.796  17.524  0.00  0.00    +0.000 A 
ATOM      3  C   UNL     1       3.471   5.814  17.705  0.00  0.00    +0.000 A 
ATOM      4  C   UNL     1       3.736   4.477  17.412  0.00  0.00    +0.000 A 
ATOM      5  C   UNL     1       4.999   4.115  16.945  0.00  0.00    +0.000 A 
ATOM      6  C   UNL     1       5.978   5.116  16.784  0.00  0.00    +0.000 A 
ENDROOT
BRANCH   6   7
ATOM      7  N   UNL     1       7.272   4.689  16.281  0.00  0.00    +0.000 N 
ATOM      8  O   UNL     1       8.050   4.158  17.087  0.00  0.00    +0.000 OA
ATOM      9  O   UNL     1       7.480   4.836  15.068  0.00  0.00    +0.000 OA
ENDBRANCH   6   7
BRANCH   1  10
ATOM     10  N   UNL     1       6.704   7.472  16.844  0.00  0.00    +0.000 N 
ATOM     11  H   UNL     1       7.033   7.484  15.875  0.00  0.00    +0.000 HD
BRANCH  10  12
ATOM     12  C   UNL     1       7.752   7.736  17.830  0.00  0.00    +0.000 C 
BRANCH  12  13
ATOM     13  C   UNL     1       8.133   9.214  17.863  0.00  0.00    +0.000 C 
BRANCH  13  14
ATOM     14  C   UNL     1       9.056   9.552  19.034  0.00  0.00    +0.000 C 
BRANCH  14  16
ATOM     15  C   UNL     1       8.805  11.763  17.876  0.00  0.00    +0.000 C 
ATOM     16  C   UNL     1       9.563  10.989  18.941  0.00  0.00    +0.000 C 
ENDBRANCH  14  16
ENDBRANCH  13  14
ENDBRANCH  12  13
ENDBRANCH  10  12
ENDBRANCH   1  10
BRANCH   4  17
ATOM     17  C   UNL     1       2.656   3.494  17.674  0.00  0.00    +0.000 C 
ATOM     18  O   UNL     1       2.873   2.407  18.178  0.00  0.00    +0.000 OA
BRANCH  17  19
ATOM     19  O   UNL     1       1.424   3.924  17.336  0.00  0.00    +0.000 OA
ATOM     20  H   UNL     1       0.693   3.619  17.904  0.00  0.00    +0.000 HD
ENDBRANCH  17  19
ENDBRANCH   4  17
TORSDOF 8
ENDMDL
MODEL 8
REMARK VINA RESULT:      -6.4      0.505      1.072
REMARK  Name = 
REMARK  9 active torsions:
REMARK  status: ('A' for Active; 'I' for Inactive)
REMARK    1  A    between atoms: C_1  and  C_2
REMARK    2  A    between atoms: C_2  and  C_3
REMARK    3  A    between atoms: C_3  and  C_4
REMARK    4  A    between atoms: C_4  and  C_5
REMARK    5  A    between atoms: C_5  and  N_6
REMARK    6  A    between atoms: N_6  and  C_7
REMARK    7  A    between atoms: C_10  and  C_11
REMARK    8  A    between atoms: C_11  and  O_13
REMARK    9  A    between atoms: C_15  and  N_16
REMARK                            x       y       z     vdW  Elec       q    Type
REMARK                         _______ _______ _______ _____ _____    ______ ____
ROOT
ATOM      1  C   UNL     1       3.644   5.623  17.492  0.00  0.00    +0.000 A 
ATOM      2  C   UNL     1       4.507   6.601  16.974  0.00  0.00    +0.000 A 
ATOM      3  C   UNL     1       5.517   6.284  16.055  0.00  0.00    +0.000 A 
ATOM      4  C   UNL     1       5.728   4.966  15.653  0.00  0.00    +0.000 A 
ATOM      5  C   UNL     1       4.915   3.956  16.165  0.00  0.00    +0.000 A 
ATOM      6  C   UNL     1       3.895   4.297  17.076  0.00  0.00    +0.000 A 
ENDROOT
BRANCH   6   7
ATOM      7  N   UNL     1       3.086   3.205  17.590  0.00  0.00    +0.000 N 
ATOM      8  O   UNL     1       1.934   3.094  17.149  0.00  0.00    +0.000 OA
ATOM      9  O   UNL     1       3.630   2.433  18.391  0.00  0.00    +0.000 OA
ENDBRANCH   6   7
BRANCH   1  10
ATOM     10  N   UNL     1       2.682   5.938  18.460  0.00  0.00    +0.000 N 
ATOM     11  H   UNL     1       2.099   6.738  18.199  0.00  0.00    +0.000 HD
BRANCH  10  12
ATOM     12  C   UNL     1       3.028   5.893  19.880  0.00  0.00    +0.000 C 
BRANCH  12  13
ATOM     13  C   UNL     1       1.948   5.193  20.701  0.00  0.00    +0.000 C 
BRANCH  13  14
ATOM     14  C   UNL     1       2.466   3.930  21.389  0.00  0.00    +0.000 C 
BRANCH  14  16
ATOM     15  C   UNL     1       0.534   2.940  20.132  0.00  0.00    +0.000 C 
ATOM     16  C   UNL     1       1.422   2.816  21.358  0.00  0.00    +0.000 C 
ENDBRANCH  14  16
ENDBRANCH  13  14
ENDBRANCH  12  13
ENDBRANCH  10  12
ENDBRANCH   1  10
BRANCH   4  17
ATOM     17  C   UNL     1       6.787   4.722  14.644  0.00  0.00    +0.000 C 
ATOM     18  O   UNL     1       7.751   5.455  14.521  0.00  0.00    +0.000 OA
BRANCH  17  19
ATOM     19  O   UNL     1       6.603   3.607  13.907  0.00  0.00    +0.000 OA
ATOM     20  H   UNL     1       5.738   3.523  13.466  0.00  0.00    +0.000 HD
ENDBRANCH  17  19
ENDBRANCH   4  17
TORSDOF 8
ENDMDL
MODEL 9
REMARK VINA RESULT:      -6.4      3.536      6.315
REMARK  Name = 
REMARK  9 active torsions:
REMARK  status: ('A' for Active; 'I' for Inactive)
REMARK    1  A    between atoms: C_1  and  C_2
REMARK    2  A    between atoms: C_2  and  C_3
REMARK    3  A    between atoms: C_3  and  C_4
REMARK    4  A    between atoms: C_4  and  C_5
REMARK    5  A    between atoms: C_5  and  N_6
REMARK    6  A    between atoms: N_6  and  C_7
REMARK    7  A    between atoms: C_10  and  C_11
REMARK    8  A    between atoms: C_11  and  O_13
REMARK    9  A    between atoms: C_15  and  N_16
REMARK                            x       y       z     vdW  Elec       q    Type
REMARK                         _______ _______ _______ _____ _____    ______ ____
ROOT
ATOM      1  C   UNL     1       5.770   6.201  16.926  0.00  0.00    +0.000 A 
ATOM      2  C   UNL     1       4.650   6.668  17.629  0.00  0.00    +0.000 A 
ATOM      3  C   UNL     1       3.526   5.861  17.852  0.00  0.00    +0.000 A 
ATOM      4  C   UNL     1       3.466   4.566  17.339  0.00  0.00    +0.000 A 
ATOM      5  C   UNL     1       4.543   4.068  16.607  0.00  0.00    +0.000 A 
ATOM      6  C   UNL     1       5.669   4.891  16.408  0.00  0.00    +0.000 A 
ENDROOT
BRANCH   6   7
ATOM      7  N   UNL     1       6.758   4.329  15.626  0.00  0.00    +0.000 N 
ATOM      8  O   UNL     1       6.479   3.870  14.510  0.00  0.00    +0.000 OA
ATOM      9  O   UNL     1       7.895   4.403  16.113  0.00  0.00    +0.000 OA
ENDBRANCH   6   7
BRANCH   1  10
ATOM     10  N   UNL     1       6.861   7.036  16.652  0.00  0.00    +0.000 N 
ATOM     11  H   UNL     1       7.389   6.745  15.825  0.00  0.00    +0.000 HD
BRANCH  10  12
ATOM     12  C   UNL     1       7.696   7.534  17.745  0.00  0.00    +0.000 C 
BRANCH  12  13
ATOM     13  C   UNL     1       7.832   9.054  17.700  0.00  0.00    +0.000 C 
BRANCH  13  14
ATOM     14  C   UNL     1       8.850   9.578  18.714  0.00  0.00    +0.000 C 
BRANCH  14  16
ATOM     15  C   UNL     1      10.573  11.336  19.193  0.00  0.00    +0.000 C 
ATOM     16  C   UNL     1       9.484  10.882  18.236  0.00  0.00    +0.000 C 
ENDBRANCH  14  16
ENDBRANCH  13  14
ENDBRANCH  12  13
ENDBRANCH  10  12
ENDBRANCH   1  10
BRANCH   4  17
ATOM     17  C   UNL     1       2.260   3.761  17.657  0.00  0.00    +0.000 C 
ATOM     18  O   UNL     1       1.326   4.212  18.294  0.00  0.00    +0.000 OA
BRANCH  17  19
ATOM     19  O   UNL     1       2.281   2.511  17.151  0.00  0.00    +0.000 OA
ATOM     20  H   UNL     1       2.329   1.787  17.801  0.00  0.00    +0.000 HD
ENDBRANCH  17  19
ENDBRANCH   4  17
TORSDOF 8
ENDMDL
