MODEL 1
REMARK VINA RESULT:      -8.6      0.000      0.000
REMARK  Name = 
REMARK  7 active torsions:
REMARK  status: ('A' for Active; 'I' for Inactive)
REMARK    1  A    between atoms: C_2  and  O_3
REMARK    2  A    between atoms: C_2  and  C_4
REMARK    3  A    between atoms: C_4  and  C_5
REMARK    4  A    between atoms: N_7  and  C_8
REMARK    5  A    between atoms: C_8  and  C_9
REMARK    6  A    between atoms: C_13  and  C_14
REMARK    7  A    between atoms: C_18  and  O_19
REMARK                            x       y       z     vdW  Elec       q    Type
REMARK                         _______ _______ _______ _____ _____    ______ ____
ROOT
ATOM      1  C   UNL     1      -1.944  10.253  17.769  0.00  0.00    +0.000 A 
ATOM      2  N   UNL     1      -0.768   9.707  17.618  0.00  0.00    +0.000 NA
ATOM      3  N   UNL     1       0.283  10.137  18.414  0.00  0.00    +0.000 N 
ATOM      4  C   UNL     1       0.151  11.101  19.411  0.00  0.00    +0.000 A 
ATOM      5  O   UNL     1       1.079  11.467  20.127  0.00  0.00    +0.000 OA
ATOM      6  C   UNL     1      -1.175  11.697  19.593  0.00  0.00    +0.000 A 
ATOM      7  C   UNL     1      -1.355  12.678  20.578  0.00  0.00    +0.000 A 
ATOM      8  C   UNL     1      -2.613  13.243  20.779  0.00  0.00    +0.000 A 
ATOM      9  C   UNL     1      -3.683  12.828  19.994  0.00  0.00    +0.000 A 
ATOM     10  C   UNL     1      -3.497  11.859  18.999  0.00  0.00    +0.000 A 
ATOM     11  C   UNL     1      -2.235  11.284  18.799  0.00  0.00    +0.000 A 
ENDROOT
BRANCH   1  12
ATOM     12  C   UNL     1      -3.041   9.831  16.803  0.00  0.00    +0.000 C 
BRANCH  12  14
ATOM     13  O   UNL     1      -2.652   9.839  14.427  0.00  0.00    +0.000 OA
ATOM     14  C   UNL     1      -2.988  10.450  15.434  0.00  0.00    +0.000 C 
BRANCH  14  15
ATOM     15  O   UNL     1      -3.361  11.750  15.402  0.00  0.00    +0.000 OA
ATOM     16  H   UNL     1      -3.582  12.125  16.269  0.00  0.00    +0.000 HD
ENDBRANCH  14  15
ENDBRANCH  12  14
ENDBRANCH   1  12
BRANCH   3  17
ATOM     17  C   UNL     1       1.652   9.636  18.228  0.00  0.00    +0.000 C 
BRANCH  17  18
ATOM     18  C   UNL     1       1.952   8.270  18.747  0.00  0.00    +0.000 A 
ATOM     19  N   UNL     1       2.539   7.346  18.016  0.00  0.00    +0.000 NA
ATOM     20  C   UNL     1       2.585   6.166  18.715  0.00  0.00    +0.000 A 
ATOM     21  C   UNL     1       2.890   4.926  18.139  0.00  0.00    +0.000 A 
ATOM     22  C   UNL     1       2.603   3.757  18.855  0.00  0.00    +0.000 A 
ATOM     23  C   UNL     1       2.347   3.845  20.225  0.00  0.00    +0.000 A 
ATOM     24  C   UNL     1       2.185   5.083  20.862  0.00  0.00    +0.000 A 
ATOM     25  C   UNL     1       2.195   6.228  20.050  0.00  0.00    +0.000 A 
ATOM     26  S   UNL     1       1.713   7.849  20.399  0.00  0.00    +0.000 S 
BRANCH  22  27
ATOM     27  C   UNL     1       2.360   2.500  18.073  0.00  0.00    +0.000 C 
ATOM     28  F   UNL     1       2.412   2.667  16.721  0.00  0.00    +0.000 F 
ATOM     29  F   UNL     1       3.234   1.505  18.373  0.00  0.00    +0.000 F 
ATOM     30  F   UNL     1       1.120   1.989  18.326  0.00  0.00    +0.000 F 
ENDBRANCH  22  27
BRANCH  23  31
ATOM     31  O   UNL     1       2.156   2.747  21.018  0.00  0.00    +0.000 OA
ATOM     32  H   UNL     1       1.296   2.778  21.474  0.00  0.00    +0.000 HD
ENDBRANCH  23  31
ENDBRANCH  17  18
ENDBRANCH   3  17
TORSDOF 7
ENDMDL
MODEL 2
REMARK VINA RESULT:      -8.4      0.890      1.229
REMARK  Name = 
REMARK  7 active torsions:
REMARK  status: ('A' for Active; 'I' for Inactive)
REMARK    1  A    between atoms: C_2  and  O_3
REMARK    2  A    between atoms: C_2  and  C_4
REMARK    3  A    between atoms: C_4  and  C_5
REMARK    4  A    between atoms: N_7  and  C_8
REMARK    5  A    between atoms: C_8  and  C_9
REMARK    6  A    between atoms: C_13  and  C_14
REMARK    7  A    between atoms: C_18  and  O_19
REMARK                            x       y       z     vdW  Elec       q    Type
REMARK                         _______ _______ _______ _____ _____    ______ ____
ROOT
ATOM      1  C   UNL     1      -2.271  10.340  17.640  0.00  0.00    +0.000 A 
ATOM      2  N   UNL     1      -1.010  10.001  17.621  0.00  0.00    +0.000 NA
ATOM      3  N   UNL     1      -0.136  10.602  18.514  0.00  0.00    +0.000 N 
ATOM      4  C   UNL     1      -0.532  11.530  19.474  0.00  0.00    +0.000 A 
ATOM      5  O   UNL     1       0.240  12.048  20.276  0.00  0.00    +0.000 OA
ATOM      6  C   UNL     1      -1.952  11.893  19.508  0.00  0.00    +0.000 A 
ATOM      7  C   UNL     1      -2.396  12.829  20.452  0.00  0.00    +0.000 A 
ATOM      8  C   UNL     1      -3.745  13.173  20.512  0.00  0.00    +0.000 A 
ATOM      9  C   UNL     1      -4.642  12.583  19.628  0.00  0.00    +0.000 A 
ATOM     10  C   UNL     1      -4.192  11.660  18.675  0.00  0.00    +0.000 A 
ATOM     11  C   UNL     1      -2.837  11.307  18.616  0.00  0.00    +0.000 A 
ENDROOT
BRANCH   1  12
ATOM     12  C   UNL     1      -3.174   9.739  16.574  0.00  0.00    +0.000 C 
BRANCH  12  14
ATOM     13  O   UNL     1      -3.812  10.047  14.273  0.00  0.00    +0.000 OA
ATOM     14  C   UNL     1      -3.204  10.457  15.253  0.00  0.00    +0.000 C 
BRANCH  14  15
ATOM     15  O   UNL     1      -2.507  11.617  15.240  0.00  0.00    +0.000 OA
ATOM     16  H   UNL     1      -1.589  11.530  14.937  0.00  0.00    +0.000 HD
ENDBRANCH  14  15
ENDBRANCH  12  14
ENDBRANCH   1  12
BRANCH   3  17
ATOM     17  C   UNL     1       1.309  10.340  18.479  0.00  0.00    +0.000 C 
BRANCH  17  18
ATOM     18  C   UNL     1       1.760   8.968  18.849  0.00  0.00    +0.000 A 
ATOM     19  N   UNL     1       2.621   8.283  18.126  0.00  0.00    +0.000 NA
ATOM     20  C   UNL     1       2.762   7.022  18.647  0.00  0.00    +0.000 A 
ATOM     21  C   UNL     1       3.381   5.961  17.974  0.00  0.00    +0.000 A 
ATOM     22  C   UNL     1       3.194   4.656  18.449  0.00  0.00    +0.000 A 
ATOM     23  C   UNL     1       2.697   4.467  19.739  0.00  0.00    +0.000 A 
ATOM     24  C   UNL     1       2.206   5.538  20.499  0.00  0.00    +0.000 A 
ATOM     25  C   UNL     1       2.145   6.794  19.875  0.00  0.00    +0.000 A 
ATOM     26  S   UNL     1       1.323   8.237  20.346  0.00  0.00    +0.000 S 
BRANCH  22  27
ATOM     27  C   UNL     1       3.320   3.530  17.465  0.00  0.00    +0.000 C 
ATOM     28  F   UNL     1       4.120   2.510  17.888  0.00  0.00    +0.000 F 
ATOM     29  F   UNL     1       2.126   2.973  17.134  0.00  0.00    +0.000 F 
ATOM     30  F   UNL     1       3.867   3.956  16.290  0.00  0.00    +0.000 F 
ENDBRANCH  22  27
BRANCH  23  31
ATOM     31  O   UNL     1       2.575   3.233  20.317  0.00  0.00    +0.000 OA
ATOM     32  H   UNL     1       2.471   3.296  21.283  0.00  0.00    +0.000 HD
ENDBRANCH  23  31
ENDBRANCH  17  18
ENDBRANCH   3  17
TORSDOF 7
ENDMDL
MODEL 3
REMARK VINA RESULT:      -8.1      3.339      4.544
REMARK  Name = 
REMARK  7 active torsions:
REMARK  status: ('A' for Active; 'I' for Inactive)
REMARK    1  A    between atoms: C_2  and  O_3
REMARK    2  A    between atoms: C_2  and  C_4
REMARK    3  A    between atoms: C_4  and  C_5
REMARK    4  A    between atoms: N_7  and  C_8
REMARK    5  A    between atoms: C_8  and  C_9
REMARK    6  A    between atoms: C_13  and  C_14
REMARK    7  A    between atoms: C_18  and  O_19
REMARK                            x       y       z     vdW  Elec       q    Type
REMARK                         _______ _______ _______ _____ _____    ______ ____
ROOT
ATOM      1  C   UNL     1       0.233  11.082  20.978  0.00  0.00    +0.000 A 
ATOM      2  N   UNL     1       0.371  10.077  20.156  0.00  0.00    +0.000 NA
ATOM      3  N   UNL     1       1.089  10.257  18.984  0.00  0.00    +0.000 N 
ATOM      4  C   UNL     1       1.720  11.451  18.642  0.00  0.00    +0.000 A 
ATOM      5  O   UNL     1       2.371  11.603  17.612  0.00  0.00    +0.000 OA
ATOM      6  C   UNL     1       1.581  12.572  19.575  0.00  0.00    +0.000 A 
ATOM      7  C   UNL     1       2.191  13.797  19.270  0.00  0.00    +0.000 A 
ATOM      8  C   UNL     1       2.087  14.868  20.154  0.00  0.00    +0.000 A 
ATOM      9  C   UNL     1       1.373  14.712  21.337  0.00  0.00    +0.000 A 
ATOM     10  C   UNL     1       0.750  13.493  21.633  0.00  0.00    +0.000 A 
ATOM     11  C   UNL     1       0.859  12.410  20.749  0.00  0.00    +0.000 A 
ENDROOT
BRANCH   1  12
ATOM     12  C   UNL     1      -0.653  10.874  22.197  0.00  0.00    +0.000 C 
BRANCH  12  14
ATOM     13  O   UNL     1       0.348   9.701  24.046  0.00  0.00    +0.000 OA
ATOM     14  C   UNL     1      -0.346   9.666  23.038  0.00  0.00    +0.000 C 
BRANCH  14  15
ATOM     15  O   UNL     1      -0.918   8.523  22.591  0.00  0.00    +0.000 OA
ATOM     16  H   UNL     1      -0.421   8.073  21.890  0.00  0.00    +0.000 HD
ENDBRANCH  14  15
ENDBRANCH  12  14
ENDBRANCH   1  12
BRANCH   3  17
ATOM     17  C   UNL     1       1.198   9.198  17.971  0.00  0.00    +0.000 C 
BRANCH  17  18
ATOM     18  C   UNL     1       2.258   8.169  18.176  0.00  0.00    +0.000 A 
ATOM     19  N   UNL     1       3.351   8.119  17.442  0.00  0.00    +0.000 NA
ATOM     20  C   UNL     1       4.084   7.011  17.783  0.00  0.00    +0.000 A 
ATOM     21  C   UNL     1       5.149   6.512  17.021  0.00  0.00    +0.000 A 
ATOM     22  C   UNL     1       5.618   5.218  17.279  0.00  0.00    +0.000 A 
ATOM     23  C   UNL     1       5.265   4.593  18.477  0.00  0.00    +0.000 A 
ATOM     24  C   UNL     1       4.307   5.147  19.338  0.00  0.00    +0.000 A 
ATOM     25  C   UNL     1       3.647   6.306  18.902  0.00  0.00    +0.000 A 
ATOM     26  S   UNL     1       2.221   7.072  19.502  0.00  0.00    +0.000 S 
BRANCH  22  27
ATOM     27  C   UNL     1       6.287   4.480  16.157  0.00  0.00    +0.000 C 
ATOM     28  F   UNL     1       5.701   3.289  15.847  0.00  0.00    +0.000 F 
ATOM     29  F   UNL     1       6.341   5.195  15.003  0.00  0.00    +0.000 F 
ATOM     30  F   UNL     1       7.581   4.177  16.463  0.00  0.00    +0.000 F 
ENDBRANCH  22  27
BRANCH  23  31
ATOM     31  O   UNL     1       5.757   3.373  18.853  0.00  0.00    +0.000 OA
ATOM     32  H   UNL     1       5.903   2.791  18.086  0.00  0.00    +0.000 HD
ENDBRANCH  23  31
ENDBRANCH  17  18
ENDBRANCH   3  17
TORSDOF 7
ENDMDL
MODEL 4
REMARK VINA RESULT:      -8.0      4.824      9.211
REMARK  Name = 
REMARK  7 active torsions:
REMARK  status: ('A' for Active; 'I' for Inactive)
REMARK    1  A    between atoms: C_2  and  O_3
REMARK    2  A    between atoms: C_2  and  C_4
REMARK    3  A    between atoms: C_4  and  C_5
REMARK    4  A    between atoms: N_7  and  C_8
REMARK    5  A    between atoms: C_8  and  C_9
REMARK    6  A    between atoms: C_13  and  C_14
REMARK    7  A    between atoms: C_18  and  O_19
REMARK                            x       y       z     vdW  Elec       q    Type
REMARK                         _______ _______ _______ _____ _____    ______ ____
ROOT
ATOM      1  C   UNL     1       6.499   5.683  18.101  0.00  0.00    +0.000 A 
ATOM      2  N   UNL     1       5.552   5.701  19.000  0.00  0.00    +0.000 NA
ATOM      3  N   UNL     1       4.288   5.246  18.658  0.00  0.00    +0.000 N 
ATOM      4  C   UNL     1       3.968   4.724  17.407  0.00  0.00    +0.000 A 
ATOM      5  O   UNL     1       2.853   4.304  17.111  0.00  0.00    +0.000 OA
ATOM      6  C   UNL     1       5.038   4.686  16.405  0.00  0.00    +0.000 A 
ATOM      7  C   UNL     1       4.763   4.175  15.129  0.00  0.00    +0.000 A 
ATOM      8  C   UNL     1       5.771   4.113  14.170  0.00  0.00    +0.000 A 
ATOM      9  C   UNL     1       7.048   4.562  14.489  0.00  0.00    +0.000 A 
ATOM     10  C   UNL     1       7.317   5.086  15.760  0.00  0.00    +0.000 A 
ATOM     11  C   UNL     1       6.306   5.144  16.729  0.00  0.00    +0.000 A 
ENDROOT
BRANCH   1  12
ATOM     12  C   UNL     1       7.839   6.292  18.484  0.00  0.00    +0.000 C 
BRANCH  12  14
ATOM     13  O   UNL     1       7.489   8.303  17.207  0.00  0.00    +0.000 OA
ATOM     14  C   UNL     1       8.018   7.750  18.162  0.00  0.00    +0.000 C 
BRANCH  14  15
ATOM     15  O   UNL     1       8.811   8.413  19.036  0.00  0.00    +0.000 OA
ATOM     16  H   UNL     1       8.474   9.284  19.302  0.00  0.00    +0.000 HD
ENDBRANCH  14  15
ENDBRANCH  12  14
ENDBRANCH   1  12
BRANCH   3  17
ATOM     17  C   UNL     1       3.155   5.331  19.590  0.00  0.00    +0.000 C 
BRANCH  17  18
ATOM     18  C   UNL     1       2.437   6.636  19.669  0.00  0.00    +0.000 A 
ATOM     19  N   UNL     1       2.415   7.497  18.672  0.00  0.00    +0.000 NA
ATOM     20  C   UNL     1       1.777   8.645  19.068  0.00  0.00    +0.000 A 
ATOM     21  C   UNL     1       1.819   9.850  18.355  0.00  0.00    +0.000 A 
ATOM     22  C   UNL     1       1.409  11.028  18.992  0.00  0.00    +0.000 A 
ATOM     23  C   UNL     1       0.664  10.941  20.170  0.00  0.00    +0.000 A 
ATOM     24  C   UNL     1       0.478   9.718  20.830  0.00  0.00    +0.000 A 
ATOM     25  C   UNL     1       1.149   8.600  20.311  0.00  0.00    +0.000 A 
ATOM     26  S   UNL     1       1.432   7.045  21.006  0.00  0.00    +0.000 S 
BRANCH  22  27
ATOM     27  C   UNL     1       1.985  12.324  18.502  0.00  0.00    +0.000 C 
ATOM     28  F   UNL     1       1.062  13.182  17.984  0.00  0.00    +0.000 F 
ATOM     29  F   UNL     1       2.653  13.011  19.465  0.00  0.00    +0.000 F 
ATOM     30  F   UNL     1       2.889  12.119  17.501  0.00  0.00    +0.000 F 
ENDBRANCH  22  27
BRANCH  23  31
ATOM     31  O   UNL     1       0.141  12.035  20.803  0.00  0.00    +0.000 OA
ATOM     32  H   UNL     1       0.814  12.503  21.328  0.00  0.00    +0.000 HD
ENDBRANCH  23  31
ENDBRANCH  17  18
ENDBRANCH   3  17
TORSDOF 7
ENDMDL
MODEL 5
REMARK VINA RESULT:      -7.9      2.666      4.583
REMARK  Name = 
REMARK  7 active torsions:
REMARK  status: ('A' for Active; 'I' for Inactive)
REMARK    1  A    between atoms: C_2  and  O_3
REMARK    2  A    between atoms: C_2  and  C_4
REMARK    3  A    between atoms: C_4  and  C_5
REMARK    4  A    between atoms: N_7  and  C_8
REMARK    5  A    between atoms: C_8  and  C_9
REMARK    6  A    between atoms: C_13  and  C_14
REMARK    7  A    between atoms: C_18  and  O_19
REMARK                            x       y       z     vdW  Elec       q    Type
REMARK                         _______ _______ _______ _____ _____    ______ ____
ROOT
ATOM      1  C   UNL     1      -3.699  12.760  20.746  0.00  0.00    +0.000 A 
ATOM      2  N   UNL     1      -2.461  12.759  20.329  0.00  0.00    +0.000 NA
ATOM      3  N   UNL     1      -2.168  12.219  19.086  0.00  0.00    +0.000 N 
ATOM      4  C   UNL     1      -3.132  11.707  18.221  0.00  0.00    +0.000 A 
ATOM      5  O   UNL     1      -2.873  11.245  17.113  0.00  0.00    +0.000 OA
ATOM      6  C   UNL     1      -4.523  11.728  18.682  0.00  0.00    +0.000 A 
ATOM      7  C   UNL     1      -5.528  11.216  17.850  0.00  0.00    +0.000 A 
ATOM      8  C   UNL     1      -6.858  11.245  18.262  0.00  0.00    +0.000 A 
ATOM      9  C   UNL     1      -7.178  11.783  19.504  0.00  0.00    +0.000 A 
ATOM     10  C   UNL     1      -6.171  12.279  20.341  0.00  0.00    +0.000 A 
ATOM     11  C   UNL     1      -4.832  12.258  19.927  0.00  0.00    +0.000 A 
ENDROOT
BRANCH   1  12
ATOM     12  C   UNL     1      -3.961  13.261  22.158  0.00  0.00    +0.000 C 
BRANCH  12  14
ATOM     13  O   UNL     1      -4.063  11.963  24.183  0.00  0.00    +0.000 OA
ATOM     14  C   UNL     1      -3.390  12.428  23.271  0.00  0.00    +0.000 C 
BRANCH  14  15
ATOM     15  O   UNL     1      -2.057  12.218  23.175  0.00  0.00    +0.000 OA
ATOM     16  H   UNL     1      -1.662  12.522  22.342  0.00  0.00    +0.000 HD
ENDBRANCH  14  15
ENDBRANCH  12  14
ENDBRANCH   1  12
BRANCH   3  17
ATOM     17  C   UNL     1      -0.787  12.096  18.601  0.00  0.00    +0.000 C 
BRANCH  17  18
ATOM     18  C   UNL     1      -0.004  10.918  19.073  0.00  0.00    +0.000 A 
ATOM     19  N   UNL     1       0.981  10.392  18.374  0.00  0.00    +0.000 NA
ATOM     20  C   UNL     1       1.440   9.262  19.001  0.00  0.00    +0.000 A 
ATOM     21  C   UNL     1       2.283   8.320  18.399  0.00  0.00    +0.000 A 
ATOM     22  C   UNL     1       2.434   7.063  19.000  0.00  0.00    +0.000 A 
ATOM     23  C   UNL     1       2.032   6.891  20.325  0.00  0.00    +0.000 A 
ATOM     24  C   UNL     1       1.313   7.882  21.007  0.00  0.00    +0.000 A 
ATOM     25  C   UNL     1       0.930   9.016  20.274  0.00  0.00    +0.000 A 
ATOM     26  S   UNL     1      -0.209  10.258  20.650  0.00  0.00    +0.000 S 
BRANCH  22  27
ATOM     27  C   UNL     1       2.808   5.907  18.118  0.00  0.00    +0.000 C 
ATOM     28  F   UNL     1       1.744   5.190  17.661  0.00  0.00    +0.000 F 
ATOM     29  F   UNL     1       3.523   6.278  17.024  0.00  0.00    +0.000 F 
ATOM     30  F   UNL     1       3.592   5.010  18.783  0.00  0.00    +0.000 F 
ENDBRANCH  22  27
BRANCH  23  31
ATOM     31  O   UNL     1       2.232   5.729  21.019  0.00  0.00    +0.000 OA
ATOM     32  H   UNL     1       1.957   5.813  21.949  0.00  0.00    +0.000 HD
ENDBRANCH  23  31
ENDBRANCH  17  18
ENDBRANCH   3  17
TORSDOF 7
ENDMDL
MODEL 6
REMARK VINA RESULT:      -7.9      1.237      1.706
REMARK  Name = 
REMARK  7 active torsions:
REMARK  status: ('A' for Active; 'I' for Inactive)
REMARK    1  A    between atoms: C_2  and  O_3
REMARK    2  A    between atoms: C_2  and  C_4
REMARK    3  A    between atoms: C_4  and  C_5
REMARK    4  A    between atoms: N_7  and  C_8
REMARK    5  A    between atoms: C_8  and  C_9
REMARK    6  A    between atoms: C_13  and  C_14
REMARK    7  A    between atoms: C_18  and  O_19
REMARK                            x       y       z     vdW  Elec       q    Type
REMARK                         _______ _______ _______ _____ _____    ______ ____
ROOT
ATOM      1  C   UNL     1      -2.777  10.577  17.740  0.00  0.00    +0.000 A 
ATOM      2  N   UNL     1      -1.498  10.373  17.900  0.00  0.00    +0.000 NA
ATOM      3  N   UNL     1      -0.820  11.075  18.886  0.00  0.00    +0.000 N 
ATOM      4  C   UNL     1      -1.437  11.968  19.759  0.00  0.00    +0.000 A 
ATOM      5  O   UNL     1      -0.839  12.575  20.643  0.00  0.00    +0.000 OA
ATOM      6  C   UNL     1      -2.878  12.180  19.591  0.00  0.00    +0.000 A 
ATOM      7  C   UNL     1      -3.541  13.076  20.441  0.00  0.00    +0.000 A 
ATOM      8  C   UNL     1      -4.913  13.277  20.309  0.00  0.00    +0.000 A 
ATOM      9  C   UNL     1      -5.616  12.584  19.329  0.00  0.00    +0.000 A 
ATOM     10  C   UNL     1      -4.948  11.701  18.470  0.00  0.00    +0.000 A 
ATOM     11  C   UNL     1      -3.568  11.492  18.604  0.00  0.00    +0.000 A 
ENDROOT
BRANCH   1  12
ATOM     12  C   UNL     1      -3.459   9.870  16.579  0.00  0.00    +0.000 C 
BRANCH  12  14
ATOM     13  O   UNL     1      -3.827  10.090  14.210  0.00  0.00    +0.000 OA
ATOM     14  C   UNL     1      -3.285  10.504  15.226  0.00  0.00    +0.000 C 
BRANCH  14  15
ATOM     15  O   UNL     1      -2.480  11.592  15.227  0.00  0.00    +0.000 OA
ATOM     16  H   UNL     1      -2.833  12.352  14.736  0.00  0.00    +0.000 HD
ENDBRANCH  14  15
ENDBRANCH  12  14
ENDBRANCH   1  12
BRANCH   3  17
ATOM     17  C   UNL     1       0.635  10.966  19.053  0.00  0.00    +0.000 C 
BRANCH  17  18
ATOM     18  C   UNL     1       1.188   9.609  19.333  0.00  0.00    +0.000 A 
ATOM     19  N   UNL     1       1.974   8.974  18.488  0.00  0.00    +0.000 NA
ATOM     20  C   UNL     1       2.234   7.713  18.961  0.00  0.00    +0.000 A 
ATOM     21  C   UNL     1       2.802   6.690  18.190  0.00  0.00    +0.000 A 
ATOM     22  C   UNL     1       2.734   5.372  18.658  0.00  0.00    +0.000 A 
ATOM     23  C   UNL     1       2.420   5.142  19.999  0.00  0.00    +0.000 A 
ATOM     24  C   UNL     1       1.990   6.178  20.839  0.00  0.00    +0.000 A 
ATOM     25  C   UNL     1       1.795   7.439  20.254  0.00  0.00    +0.000 A 
ATOM     26  S   UNL     1       0.984   8.838  20.858  0.00  0.00    +0.000 S 
BRANCH  22  27
ATOM     27  C   UNL     1       2.775   4.267  17.643  0.00  0.00    +0.000 C 
ATOM     28  F   UNL     1       1.564   3.974  17.091  0.00  0.00    +0.000 F 
ATOM     29  F   UNL     1       3.620   4.521  16.610  0.00  0.00    +0.000 F 
ATOM     30  F   UNL     1       3.212   3.099  18.198  0.00  0.00    +0.000 F 
ENDBRANCH  22  27
BRANCH  23  31
ATOM     31  O   UNL     1       2.428   3.895  20.562  0.00  0.00    +0.000 OA
ATOM     32  H   UNL     1       3.004   3.857  21.346  0.00  0.00    +0.000 HD
ENDBRANCH  23  31
ENDBRANCH  17  18
ENDBRANCH   3  17
TORSDOF 7
ENDMDL
MODEL 7
REMARK VINA RESULT:      -7.8      1.465      3.416
REMARK  Name = 
REMARK  7 active torsions:
REMARK  status: ('A' for Active; 'I' for Inactive)
REMARK    1  A    between atoms: C_2  and  O_3
REMARK    2  A    between atoms: C_2  and  C_4
REMARK    3  A    between atoms: C_4  and  C_5
REMARK    4  A    between atoms: N_7  and  C_8
REMARK    5  A    between atoms: C_8  and  C_9
REMARK    6  A    between atoms: C_13  and  C_14
REMARK    7  A    between atoms: C_18  and  O_19
REMARK                            x       y       z     vdW  Elec       q    Type
REMARK                         _______ _______ _______ _____ _____    ______ ____
ROOT
ATOM      1  C   UNL     1      -0.671  12.006  20.243  0.00  0.00    +0.000 A 
ATOM      2  N   UNL     1       0.438  11.455  19.828  0.00  0.00    +0.000 NA
ATOM      3  N   UNL     1       0.399  10.597  18.739  0.00  0.00    +0.000 N 
ATOM      4  C   UNL     1      -0.761  10.314  18.022  0.00  0.00    +0.000 A 
ATOM      5  O   UNL     1      -0.791   9.568  17.047  0.00  0.00    +0.000 OA
ATOM      6  C   UNL     1      -2.001  10.949  18.477  0.00  0.00    +0.000 A 
ATOM      7  C   UNL     1      -3.196  10.688  17.792  0.00  0.00    +0.000 A 
ATOM      8  C   UNL     1      -4.381  11.298  18.198  0.00  0.00    +0.000 A 
ATOM      9  C   UNL     1      -4.367  12.163  19.287  0.00  0.00    +0.000 A 
ATOM     10  C   UNL     1      -3.175  12.410  19.980  0.00  0.00    +0.000 A 
ATOM     11  C   UNL     1      -1.980  11.804  19.570  0.00  0.00    +0.000 A 
ENDROOT
BRANCH   1  12
ATOM     12  C   UNL     1      -0.602  12.852  21.505  0.00  0.00    +0.000 C 
BRANCH  12  14
ATOM     13  O   UNL     1      -1.946  12.569  23.483  0.00  0.00    +0.000 OA
ATOM     14  C   UNL     1      -1.026  12.174  22.779  0.00  0.00    +0.000 C 
BRANCH  14  15
ATOM     15  O   UNL     1      -0.306  11.068  23.080  0.00  0.00    +0.000 OA
ATOM     16  H   UNL     1      -0.785  10.410  23.610  0.00  0.00    +0.000 HD
ENDBRANCH  14  15
ENDBRANCH  12  14
ENDBRANCH   1  12
BRANCH   3  17
ATOM     17  C   UNL     1       1.590   9.868  18.283  0.00  0.00    +0.000 C 
BRANCH  17  18
ATOM     18  C   UNL     1       1.804   8.501  18.839  0.00  0.00    +0.000 A 
ATOM     19  N   UNL     1       2.386   7.539  18.155  0.00  0.00    +0.000 NA
ATOM     20  C   UNL     1       2.346   6.372  18.875  0.00  0.00    +0.000 A 
ATOM     21  C   UNL     1       2.625   5.109  18.336  0.00  0.00    +0.000 A 
ATOM     22  C   UNL     1       2.252   3.967  19.057  0.00  0.00    +0.000 A 
ATOM     23  C   UNL     1       1.932   4.092  20.410  0.00  0.00    +0.000 A 
ATOM     24  C   UNL     1       1.793   5.348  21.017  0.00  0.00    +0.000 A 
ATOM     25  C   UNL     1       1.893   6.476  20.188  0.00  0.00    +0.000 A 
ATOM     26  S   UNL     1       1.465   8.122  20.484  0.00  0.00    +0.000 S 
BRANCH  22  27
ATOM     27  C   UNL     1       1.993   2.707  18.285  0.00  0.00    +0.000 C 
ATOM     28  F   UNL     1       2.766   1.652  18.669  0.00  0.00    +0.000 F 
ATOM     29  F   UNL     1       0.703   2.288  18.360  0.00  0.00    +0.000 F 
ATOM     30  F   UNL     1       2.248   2.877  16.956  0.00  0.00    +0.000 F 
ENDBRANCH  22  27
BRANCH  23  31
ATOM     31  O   UNL     1       1.653   3.019  21.211  0.00  0.00    +0.000 OA
ATOM     32  H   UNL     1       1.881   3.194  22.141  0.00  0.00    +0.000 HD
ENDBRANCH  23  31
ENDBRANCH  17  18
ENDBRANCH   3  17
TORSDOF 7
ENDMDL
MODEL 8
REMARK VINA RESULT:      -7.8      2.196      3.240
REMARK  Name = 
REMARK  7 active torsions:
REMARK  status: ('A' for Active; 'I' for Inactive)
REMARK    1  A    between atoms: C_2  and  O_3
REMARK    2  A    between atoms: C_2  and  C_4
REMARK    3  A    between atoms: C_4  and  C_5
REMARK    4  A    between atoms: N_7  and  C_8
REMARK    5  A    between atoms: C_8  and  C_9
REMARK    6  A    between atoms: C_13  and  C_14
REMARK    7  A    between atoms: C_18  and  O_19
REMARK                            x       y       z     vdW  Elec       q    Type
REMARK                         _______ _______ _______ _____ _____    ______ ____
ROOT
ATOM      1  C   UNL     1      -3.773  11.475  17.131  0.00  0.00    +0.000 A 
ATOM      2  N   UNL     1      -2.506  11.542  17.440  0.00  0.00    +0.000 NA
ATOM      3  N   UNL     1      -2.142  11.970  18.707  0.00  0.00    +0.000 N 
ATOM      4  C   UNL     1      -3.058  12.300  19.703  0.00  0.00    +0.000 A 
ATOM      5  O   UNL     1      -2.734  12.662  20.831  0.00  0.00    +0.000 OA
ATOM      6  C   UNL     1      -4.480  12.205  19.361  0.00  0.00    +0.000 A 
ATOM      7  C   UNL     1      -5.440  12.534  20.328  0.00  0.00    +0.000 A 
ATOM      8  C   UNL     1      -6.796  12.432  20.028  0.00  0.00    +0.000 A 
ATOM      9  C   UNL     1      -7.188  12.003  18.764  0.00  0.00    +0.000 A 
ATOM     10  C   UNL     1      -6.227  11.690  17.795  0.00  0.00    +0.000 A 
ATOM     11  C   UNL     1      -4.861  11.786  18.095  0.00  0.00    +0.000 A 
ENDROOT
BRANCH   1  12
ATOM     12  C   UNL     1      -4.126  11.106  15.699  0.00  0.00    +0.000 C 
BRANCH  12  14
ATOM     13  O   UNL     1      -2.896  10.276  13.803  0.00  0.00    +0.000 OA
ATOM     14  C   UNL     1      -3.162  10.191  14.996  0.00  0.00    +0.000 C 
BRANCH  14  15
ATOM     15  O   UNL     1      -2.595   9.264  15.801  0.00  0.00    +0.000 OA
ATOM     16  H   UNL     1      -1.654   9.102  15.625  0.00  0.00    +0.000 HD
ENDBRANCH  14  15
ENDBRANCH  12  14
ENDBRANCH   1  12
BRANCH   3  17
ATOM     17  C   UNL     1      -0.735  12.162  19.086  0.00  0.00    +0.000 C 
BRANCH  17  18
ATOM     18  C   UNL     1       0.040  10.944  19.458  0.00  0.00    +0.000 A 
ATOM     19  N   UNL     1       1.001  10.454  18.702  0.00  0.00    +0.000 NA
ATOM     20  C   UNL     1       1.457   9.277  19.240  0.00  0.00    +0.000 A 
ATOM     21  C   UNL     1       2.272   8.367  18.555  0.00  0.00    +0.000 A 
ATOM     22  C   UNL     1       2.417   7.070  19.065  0.00  0.00    +0.000 A 
ATOM     23  C   UNL     1       2.042   6.813  20.385  0.00  0.00    +0.000 A 
ATOM     24  C   UNL     1       1.354   7.765  21.149  0.00  0.00    +0.000 A 
ATOM     25  C   UNL     1       0.972   8.952  20.504  0.00  0.00    +0.000 A 
ATOM     26  S   UNL     1      -0.139  10.181  20.991  0.00  0.00    +0.000 S 
BRANCH  22  27
ATOM     27  C   UNL     1       2.754   5.973  18.099  0.00  0.00    +0.000 C 
ATOM     28  F   UNL     1       1.666   5.335  17.581  0.00  0.00    +0.000 F 
ATOM     29  F   UNL     1       3.491   6.399  17.040  0.00  0.00    +0.000 F 
ATOM     30  F   UNL     1       3.495   4.996  18.695  0.00  0.00    +0.000 F 
ENDBRANCH  22  27
BRANCH  23  31
ATOM     31  O   UNL     1       2.240   5.604  20.993  0.00  0.00    +0.000 OA
ATOM     32  H   UNL     1       2.963   5.642  21.644  0.00  0.00    +0.000 HD
ENDBRANCH  23  31
ENDBRANCH  17  18
ENDBRANCH   3  17
TORSDOF 7
ENDMDL
MODEL 9
REMARK VINA RESULT:      -7.8      4.915      9.349
REMARK  Name = 
REMARK  7 active torsions:
REMARK  status: ('A' for Active; 'I' for Inactive)
REMARK    1  A    between atoms: C_2  and  O_3
REMARK    2  A    between atoms: C_2  and  C_4
REMARK    3  A    between atoms: C_4  and  C_5
REMARK    4  A    between atoms: N_7  and  C_8
REMARK    5  A    between atoms: C_8  and  C_9
REMARK    6  A    between atoms: C_13  and  C_14
REMARK    7  A    between atoms: C_18  and  O_19
REMARK                            x       y       z     vdW  Elec       q    Type
REMARK                         _______ _______ _______ _____ _____    ______ ____
ROOT
ATOM      1  C   UNL     1       6.447   6.307  17.060  0.00  0.00    +0.000 A 
ATOM      2  N   UNL     1       5.617   6.236  18.065  0.00  0.00    +0.000 NA
ATOM      3  N   UNL     1       4.556   5.345  18.002  0.00  0.00    +0.000 N 
ATOM      4  C   UNL     1       4.340   4.478  16.934  0.00  0.00    +0.000 A 
ATOM      5  O   UNL     1       3.410   3.677  16.888  0.00  0.00    +0.000 OA
ATOM      6  C   UNL     1       5.285   4.546  15.816  0.00  0.00    +0.000 A 
ATOM      7  C   UNL     1       5.104   3.697  14.715  0.00  0.00    +0.000 A 
ATOM      8  C   UNL     1       6.002   3.733  13.651  0.00  0.00    +0.000 A 
ATOM      9  C   UNL     1       7.076   4.617  13.691  0.00  0.00    +0.000 A 
ATOM     10  C   UNL     1       7.246   5.475  14.785  0.00  0.00    +0.000 A 
ATOM     11  C   UNL     1       6.347   5.436  15.860  0.00  0.00    +0.000 A 
ENDROOT
BRANCH   1  12
ATOM     12  C   UNL     1       7.532   7.372  17.122  0.00  0.00    +0.000 C 
BRANCH  12  14
ATOM     13  O   UNL     1       8.713   8.591  18.830  0.00  0.00    +0.000 OA
ATOM     14  C   UNL     1       8.220   7.537  18.449  0.00  0.00    +0.000 C 
BRANCH  14  15
ATOM     15  O   UNL     1       8.238   6.414  19.204  0.00  0.00    +0.000 OA
ATOM     16  H   UNL     1       7.593   5.741  18.936  0.00  0.00    +0.000 HD
ENDBRANCH  14  15
ENDBRANCH  12  14
ENDBRANCH   1  12
BRANCH   3  17
ATOM     17  C   UNL     1       3.531   5.285  19.053  0.00  0.00    +0.000 C 
BRANCH  17  18
ATOM     18  C   UNL     1       2.717   6.514  19.278  0.00  0.00    +0.000 A 
ATOM     19  N   UNL     1       2.563   7.443  18.358  0.00  0.00    +0.000 NA
ATOM     20  C   UNL     1       1.860   8.499  18.882  0.00  0.00    +0.000 A 
ATOM     21  C   UNL     1       1.760   9.754  18.268  0.00  0.00    +0.000 A 
ATOM     22  C   UNL     1       1.298  10.842  19.021  0.00  0.00    +0.000 A 
ATOM     23  C   UNL     1       0.639  10.602  20.228  0.00  0.00    +0.000 A 
ATOM     24  C   UNL     1       0.594   9.321  20.795  0.00  0.00    +0.000 A 
ATOM     25  C   UNL     1       1.319   8.307  20.150  0.00  0.00    +0.000 A 
ATOM     26  S   UNL     1       1.769   6.733  20.699  0.00  0.00    +0.000 S 
BRANCH  22  27
ATOM     27  C   UNL     1       1.736  12.216  18.605  0.00  0.00    +0.000 C 
ATOM     28  F   UNL     1       2.637  12.226  17.582  0.00  0.00    +0.000 F 
ATOM     29  F   UNL     1       0.705  13.012  18.220  0.00  0.00    +0.000 F 
ATOM     30  F   UNL     1       2.347  12.874  19.632  0.00  0.00    +0.000 F 
ENDBRANCH  22  27
BRANCH  23  31
ATOM     31  O   UNL     1       0.071  11.596  20.976  0.00  0.00    +0.000 OA
ATOM     32  H   UNL     1       0.406  12.474  20.722  0.00  0.00    +0.000 HD
ENDBRANCH  23  31
ENDBRANCH  17  18
ENDBRANCH   3  17
TORSDOF 7
ENDMDL
