MODEL 1
REMARK VINA RESULT:      -9.0      0.000      0.000
REMARK  Name = 
REMARK  4 active torsions:
REMARK  status: ('A' for Active; 'I' for Inactive)
REMARK    1  A    between atoms: C_1  and  C_2
REMARK    2  A    between atoms: C_7  and  C_8
REMARK    3  A    between atoms: C_9  and  C_10
REMARK    4  A    between atoms: C_12  and  C_13
REMARK                            x       y       z     vdW  Elec       q    Type
REMARK                         _______ _______ _______ _____ _____    ______ ____
ROOT
ATOM      1  C   UNL     1       2.297   6.670  19.884  0.00  0.00    +0.000 A 
ATOM      2  C   UNL     1       1.799   5.564  20.613  0.00  0.00    +0.000 A 
ATOM      3  C   UNL     1       2.446   4.315  20.628  0.00  0.00    +0.000 A 
ATOM      4  C   UNL     1       1.926   3.184  21.454  0.00  0.00    +0.000 C 
ATOM      5  C   UNL     1       3.585   4.200  19.849  0.00  0.00    +0.000 A 
ATOM      6  C   UNL     1       4.085   5.256  19.091  0.00  0.00    +0.000 A 
ATOM      7  C   UNL     1       3.461   6.494  19.108  0.00  0.00    +0.000 A 
ATOM      8  C   UNL     1       5.305   4.834  18.346  0.00  0.00    +0.000 C 
ATOM      9  N   UNL     1       5.462   3.466  18.767  0.00  0.00    +0.000 N 
ATOM     10  C   UNL     1       4.481   3.048  19.635  0.00  0.00    +0.000 C 
ATOM     11  O   UNL     1       4.377   1.945  20.130  0.00  0.00    +0.000 OA
ATOM     12  H   UNL     1       6.193   2.835  18.461  0.00  0.00    +0.000 HD
ENDROOT
BRANCH   1  21
ATOM     13  C   UNL     1      -1.571  12.013  23.091  0.00  0.00    +0.000 C 
ATOM     14  C   UNL     1      -0.634  10.899  22.704  0.00  0.00    +0.000 C 
ATOM     15  O   UNL     1      -0.155  10.168  23.564  0.00  0.00    +0.000 OA
ATOM     16  N   UNL     1      -0.420  10.845  21.345  0.00  0.00    +0.000 N 
ATOM     17  C   UNL     1       0.350   9.919  20.689  0.00  0.00    +0.000 A 
ATOM     18  N   UNL     1       0.719  10.091  19.444  0.00  0.00    +0.000 NA
ATOM     19  C   UNL     1       1.497   9.013  19.026  0.00  0.00    +0.000 A 
ATOM     20  C   UNL     1       2.068   9.087  17.653  0.00  0.00    +0.000 C 
ATOM     21  C   UNL     1       1.624   7.981  19.955  0.00  0.00    +0.000 A 
ATOM     22  S   UNL     1       0.822   8.457  21.404  0.00  0.00    +0.000 S 
ATOM     23  H   UNL     1      -0.720  11.609  20.756  0.00  0.00    +0.000 HD
ENDBRANCH   1  21
TORSDOF 1
ENDMDL
MODEL 2
REMARK VINA RESULT:      -8.3      4.133      8.337
REMARK  Name = 
REMARK  4 active torsions:
REMARK  status: ('A' for Active; 'I' for Inactive)
REMARK    1  A    between atoms: C_1  and  C_2
REMARK    2  A    between atoms: C_7  and  C_8
REMARK    3  A    between atoms: C_9  and  C_10
REMARK    4  A    between atoms: C_12  and  C_13
REMARK                            x       y       z     vdW  Elec       q    Type
REMARK                         _______ _______ _______ _____ _____    ______ ____
ROOT
ATOM      1  C   UNL     1       4.383   6.054  17.422  0.00  0.00    +0.000 A 
ATOM      2  C   UNL     1       3.734   7.302  17.266  0.00  0.00    +0.000 A 
ATOM      3  C   UNL     1       2.803   7.791  18.200  0.00  0.00    +0.000 A 
ATOM      4  C   UNL     1       2.178   9.139  18.036  0.00  0.00    +0.000 C 
ATOM      5  C   UNL     1       2.509   6.965  19.272  0.00  0.00    +0.000 A 
ATOM      6  C   UNL     1       3.102   5.715  19.439  0.00  0.00    +0.000 A 
ATOM      7  C   UNL     1       4.044   5.254  18.533  0.00  0.00    +0.000 A 
ATOM      8  C   UNL     1       2.582   5.050  20.667  0.00  0.00    +0.000 C 
ATOM      9  N   UNL     1       1.670   6.036  21.186  0.00  0.00    +0.000 N 
ATOM     10  C   UNL     1       1.587   7.165  20.405  0.00  0.00    +0.000 C 
ATOM     11  O   UNL     1       0.890   8.137  20.612  0.00  0.00    +0.000 OA
ATOM     12  H   UNL     1       1.111   5.939  22.025  0.00  0.00    +0.000 HD
ENDROOT
BRANCH   1  21
ATOM     13  C   UNL     1       6.865   2.559  11.470  0.00  0.00    +0.000 C 
ATOM     14  C   UNL     1       6.120   3.355  12.510  0.00  0.00    +0.000 C 
ATOM     15  O   UNL     1       4.908   3.512  12.416  0.00  0.00    +0.000 OA
ATOM     16  N   UNL     1       6.953   3.837  13.494  0.00  0.00    +0.000 N 
ATOM     17  C   UNL     1       6.565   4.559  14.593  0.00  0.00    +0.000 A 
ATOM     18  N   UNL     1       7.433   5.205  15.332  0.00  0.00    +0.000 NA
ATOM     19  C   UNL     1       6.776   5.860  16.372  0.00  0.00    +0.000 A 
ATOM     20  C   UNL     1       7.610   6.711  17.266  0.00  0.00    +0.000 C 
ATOM     21  C   UNL     1       5.406   5.613  16.455  0.00  0.00    +0.000 A 
ATOM     22  S   UNL     1       4.957   4.617  15.122  0.00  0.00    +0.000 S 
ATOM     23  H   UNL     1       7.956   3.801  13.370  0.00  0.00    +0.000 HD
ENDBRANCH   1  21
TORSDOF 1
ENDMDL
MODEL 3
REMARK VINA RESULT:      -8.1      0.874      2.038
REMARK  Name = 
REMARK  4 active torsions:
REMARK  status: ('A' for Active; 'I' for Inactive)
REMARK    1  A    between atoms: C_1  and  C_2
REMARK    2  A    between atoms: C_7  and  C_8
REMARK    3  A    between atoms: C_9  and  C_10
REMARK    4  A    between atoms: C_12  and  C_13
REMARK                            x       y       z     vdW  Elec       q    Type
REMARK                         _______ _______ _______ _____ _____    ______ ____
ROOT
ATOM      1  C   UNL     1       2.214   6.671  20.097  0.00  0.00    +0.000 A 
ATOM      2  C   UNL     1       3.394   6.420  19.357  0.00  0.00    +0.000 A 
ATOM      3  C   UNL     1       4.003   5.154  19.311  0.00  0.00    +0.000 A 
ATOM      4  C   UNL     1       5.217   4.908  18.475  0.00  0.00    +0.000 C 
ATOM      5  C   UNL     1       3.413   4.156  20.070  0.00  0.00    +0.000 A 
ATOM      6  C   UNL     1       2.272   4.374  20.837  0.00  0.00    +0.000 A 
ATOM      7  C   UNL     1       1.658   5.617  20.852  0.00  0.00    +0.000 A 
ATOM      8  C   UNL     1       1.878   3.129  21.555  0.00  0.00    +0.000 C 
ATOM      9  N   UNL     1       2.875   2.191  21.109  0.00  0.00    +0.000 N 
ATOM     10  C   UNL     1       3.796   2.743  20.250  0.00  0.00    +0.000 C 
ATOM     11  O   UNL     1       4.738   2.175  19.738  0.00  0.00    +0.000 OA
ATOM     12  H   UNL     1       2.941   1.220  21.392  0.00  0.00    +0.000 HD
ENDROOT
BRANCH   1  21
ATOM     13  C   UNL     1      -1.608  12.307  22.821  0.00  0.00    +0.000 C 
ATOM     14  C   UNL     1      -0.687  11.149  22.538  0.00  0.00    +0.000 C 
ATOM     15  O   UNL     1      -0.245  10.471  23.458  0.00  0.00    +0.000 OA
ATOM     16  N   UNL     1      -0.441  10.994  21.192  0.00  0.00    +0.000 N 
ATOM     17  C   UNL     1       0.323  10.008  20.623  0.00  0.00    +0.000 A 
ATOM     18  N   UNL     1       0.725  10.084  19.378  0.00  0.00    +0.000 NA
ATOM     19  C   UNL     1       1.489   8.964  19.057  0.00  0.00    +0.000 A 
ATOM     20  C   UNL     1       2.095   8.928  17.697  0.00  0.00    +0.000 C 
ATOM     21  C   UNL     1       1.570   7.997  20.059  0.00  0.00    +0.000 A 
ATOM     22  S   UNL     1       0.745   8.592  21.450  0.00  0.00    +0.000 S 
ATOM     23  H   UNL     1      -0.710  11.721  20.543  0.00  0.00    +0.000 HD
ENDBRANCH   1  21
TORSDOF 1
ENDMDL
MODEL 4
REMARK VINA RESULT:      -8.1      4.187      8.033
REMARK  Name = 
REMARK  4 active torsions:
REMARK  status: ('A' for Active; 'I' for Inactive)
REMARK    1  A    between atoms: C_1  and  C_2
REMARK    2  A    between atoms: C_7  and  C_8
REMARK    3  A    between atoms: C_9  and  C_10
REMARK    4  A    between atoms: C_12  and  C_13
REMARK                            x       y       z     vdW  Elec       q    Type
REMARK                         _______ _______ _______ _____ _____    ______ ____
ROOT
ATOM      1  C   UNL     1       4.944   4.830  17.939  0.00  0.00    +0.000 A 
ATOM      2  C   UNL     1       4.994   3.628  18.684  0.00  0.00    +0.000 A 
ATOM      3  C   UNL     1       4.139   3.376  19.772  0.00  0.00    +0.000 A 
ATOM      4  C   UNL     1       4.179   2.073  20.503  0.00  0.00    +0.000 C 
ATOM      5  C   UNL     1       3.261   4.391  20.116  0.00  0.00    +0.000 A 
ATOM      6  C   UNL     1       3.207   5.600  19.427  0.00  0.00    +0.000 A 
ATOM      7  C   UNL     1       4.030   5.828  18.335  0.00  0.00    +0.000 A 
ATOM      8  C   UNL     1       2.184   6.501  20.031  0.00  0.00    +0.000 C 
ATOM      9  N   UNL     1       1.654   5.690  21.096  0.00  0.00    +0.000 N 
ATOM     10  C   UNL     1       2.254   4.456  21.191  0.00  0.00    +0.000 C 
ATOM     11  O   UNL     1       2.000   3.590  22.003  0.00  0.00    +0.000 OA
ATOM     12  H   UNL     1       0.928   5.970  21.745  0.00  0.00    +0.000 HD
ENDROOT
BRANCH   1  21
ATOM     13  C   UNL     1       7.306   3.528  11.118  0.00  0.00    +0.000 C 
ATOM     14  C   UNL     1       6.541   3.771  12.393  0.00  0.00    +0.000 C 
ATOM     15  O   UNL     1       5.396   3.351  12.517  0.00  0.00    +0.000 OA
ATOM     16  N   UNL     1       7.274   4.486  13.313  0.00  0.00    +0.000 N 
ATOM     17  C   UNL     1       6.865   4.827  14.577  0.00  0.00    +0.000 A 
ATOM     18  N   UNL     1       7.502   5.726  15.286  0.00  0.00    +0.000 NA
ATOM     19  C   UNL     1       6.876   5.888  16.520  0.00  0.00    +0.000 A 
ATOM     20  C   UNL     1       7.428   6.935  17.423  0.00  0.00    +0.000 C 
ATOM     21  C   UNL     1       5.811   5.021  16.761  0.00  0.00    +0.000 A 
ATOM     22  S   UNL     1       5.559   4.070  15.346  0.00  0.00    +0.000 S 
ATOM     23  H   UNL     1       8.134   4.937  13.034  0.00  0.00    +0.000 HD
ENDBRANCH   1  21
TORSDOF 1
ENDMDL
MODEL 5
REMARK VINA RESULT:      -7.9      3.871      8.216
REMARK  Name = 
REMARK  4 active torsions:
REMARK  status: ('A' for Active; 'I' for Inactive)
REMARK    1  A    between atoms: C_1  and  C_2
REMARK    2  A    between atoms: C_7  and  C_8
REMARK    3  A    between atoms: C_9  and  C_10
REMARK    4  A    between atoms: C_12  and  C_13
REMARK                            x       y       z     vdW  Elec       q    Type
REMARK                         _______ _______ _______ _____ _____    ______ ____
ROOT
ATOM      1  C   UNL     1       4.353   6.141  17.601  0.00  0.00    +0.000 A 
ATOM      2  C   UNL     1       3.923   5.430  18.747  0.00  0.00    +0.000 A 
ATOM      3  C   UNL     1       2.928   5.921  19.612  0.00  0.00    +0.000 A 
ATOM      4  C   UNL     1       2.455   5.120  20.781  0.00  0.00    +0.000 C 
ATOM      5  C   UNL     1       2.412   7.171  19.314  0.00  0.00    +0.000 A 
ATOM      6  C   UNL     1       2.836   7.915  18.215  0.00  0.00    +0.000 A 
ATOM      7  C   UNL     1       3.792   7.410  17.348  0.00  0.00    +0.000 A 
ATOM      8  C   UNL     1       2.119   9.220  18.158  0.00  0.00    +0.000 C 
ATOM      9  N   UNL     1       1.243   9.137  19.299  0.00  0.00    +0.000 N 
ATOM     10  C   UNL     1       1.382   7.967  20.007  0.00  0.00    +0.000 C 
ATOM     11  O   UNL     1       0.773   7.652  21.009  0.00  0.00    +0.000 OA
ATOM     12  H   UNL     1       0.592   9.854  19.596  0.00  0.00    +0.000 HD
ENDROOT
BRANCH   1  21
ATOM     13  C   UNL     1       6.592   2.494  11.645  0.00  0.00    +0.000 C 
ATOM     14  C   UNL     1       5.930   3.372  12.675  0.00  0.00    +0.000 C 
ATOM     15  O   UNL     1       4.780   3.761  12.508  0.00  0.00    +0.000 OA
ATOM     16  N   UNL     1       6.760   3.644  13.739  0.00  0.00    +0.000 N 
ATOM     17  C   UNL     1       6.430   4.380  14.848  0.00  0.00    +0.000 A 
ATOM     18  N   UNL     1       7.343   4.817  15.680  0.00  0.00    +0.000 NA
ATOM     19  C   UNL     1       6.742   5.540  16.708  0.00  0.00    +0.000 A 
ATOM     20  C   UNL     1       7.649   6.178  17.703  0.00  0.00    +0.000 C 
ATOM     21  C   UNL     1       5.348   5.555  16.683  0.00  0.00    +0.000 A 
ATOM     22  S   UNL     1       4.825   4.721  15.269  0.00  0.00    +0.000 S 
ATOM     23  H   UNL     1       7.745   3.423  13.682  0.00  0.00    +0.000 HD
ENDBRANCH   1  21
TORSDOF 1
ENDMDL
MODEL 6
REMARK VINA RESULT:      -7.7      2.496      7.704
REMARK  Name = 
REMARK  4 active torsions:
REMARK  status: ('A' for Active; 'I' for Inactive)
REMARK    1  A    between atoms: C_1  and  C_2
REMARK    2  A    between atoms: C_7  and  C_8
REMARK    3  A    between atoms: C_9  and  C_10
REMARK    4  A    between atoms: C_12  and  C_13
REMARK                            x       y       z     vdW  Elec       q    Type
REMARK                         _______ _______ _______ _____ _____    ______ ____
ROOT
ATOM      1  C   UNL     1       1.663   8.064  19.795  0.00  0.00    +0.000 A 
ATOM      2  C   UNL     1       1.388   9.218  19.023  0.00  0.00    +0.000 A 
ATOM      3  C   UNL     1       0.733  10.344  19.554  0.00  0.00    +0.000 A 
ATOM      4  C   UNL     1       0.509  11.569  18.728  0.00  0.00    +0.000 C 
ATOM      5  C   UNL     1       0.323  10.256  20.874  0.00  0.00    +0.000 A 
ATOM      6  C   UNL     1       0.546   9.123  21.653  0.00  0.00    +0.000 A 
ATOM      7  C   UNL     1       1.221   8.030  21.133  0.00  0.00    +0.000 A 
ATOM      8  C   UNL     1      -0.018   9.310  23.021  0.00  0.00    +0.000 C 
ATOM      9  N   UNL     1      -0.553  10.646  22.950  0.00  0.00    +0.000 N 
ATOM     10  C   UNL     1      -0.385  11.235  21.719  0.00  0.00    +0.000 C 
ATOM     11  O   UNL     1      -0.750  12.346  21.395  0.00  0.00    +0.000 OA
ATOM     12  H   UNL     1      -1.029  11.131  23.701  0.00  0.00    +0.000 HD
ENDROOT
BRANCH   1  21
ATOM     13  C   UNL     1       6.026   4.767  14.908  0.00  0.00    +0.000 C 
ATOM     14  C   UNL     1       5.329   5.678  15.884  0.00  0.00    +0.000 C 
ATOM     15  O   UNL     1       5.473   6.893  15.807  0.00  0.00    +0.000 OA
ATOM     16  N   UNL     1       4.573   4.981  16.799  0.00  0.00    +0.000 N 
ATOM     17  C   UNL     1       3.794   5.532  17.784  0.00  0.00    +0.000 A 
ATOM     18  N   UNL     1       3.324   4.811  18.772  0.00  0.00    +0.000 NA
ATOM     19  C   UNL     1       2.577   5.614  19.632  0.00  0.00    +0.000 A 
ATOM     20  C   UNL     1       2.034   4.965  20.858  0.00  0.00    +0.000 C 
ATOM     21  C   UNL     1       2.415   6.935  19.216  0.00  0.00    +0.000 A 
ATOM     22  S   UNL     1       3.319   7.158  17.766  0.00  0.00    +0.000 S 
ATOM     23  H   UNL     1       4.675   3.979  16.881  0.00  0.00    +0.000 HD
ENDBRANCH   1  21
TORSDOF 1
ENDMDL
MODEL 7
REMARK VINA RESULT:      -7.7      2.501      7.590
REMARK  Name = 
REMARK  4 active torsions:
REMARK  status: ('A' for Active; 'I' for Inactive)
REMARK    1  A    between atoms: C_1  and  C_2
REMARK    2  A    between atoms: C_7  and  C_8
REMARK    3  A    between atoms: C_9  and  C_10
REMARK    4  A    between atoms: C_12  and  C_13
REMARK                            x       y       z     vdW  Elec       q    Type
REMARK                         _______ _______ _______ _____ _____    ______ ____
ROOT
ATOM      1  C   UNL     1       1.708   8.251  19.694  0.00  0.00    +0.000 A 
ATOM      2  C   UNL     1       1.369   8.302  21.067  0.00  0.00    +0.000 A 
ATOM      3  C   UNL     1       0.650   9.372  21.629  0.00  0.00    +0.000 A 
ATOM      4  C   UNL     1       0.258   9.370  23.071  0.00  0.00    +0.000 C 
ATOM      5  C   UNL     1       0.321  10.413  20.775  0.00  0.00    +0.000 A 
ATOM      6  C   UNL     1       0.668  10.412  19.426  0.00  0.00    +0.000 A 
ATOM      7  C   UNL     1       1.348   9.338  18.872  0.00  0.00    +0.000 A 
ATOM      8  C   UNL     1       0.199  11.663  18.765  0.00  0.00    +0.000 C 
ATOM      9  N   UNL     1      -0.459  12.351  19.846  0.00  0.00    +0.000 N 
ATOM     10  C   UNL     1      -0.408  11.667  21.037  0.00  0.00    +0.000 C 
ATOM     11  O   UNL     1      -0.874  12.028  22.098  0.00  0.00    +0.000 OA
ATOM     12  H   UNL     1      -0.907  13.258  19.782  0.00  0.00    +0.000 HD
ENDROOT
BRANCH   1  21
ATOM     13  C   UNL     1       6.034   4.688  14.963  0.00  0.00    +0.000 C 
ATOM     14  C   UNL     1       5.362   5.639  15.919  0.00  0.00    +0.000 C 
ATOM     15  O   UNL     1       5.599   6.840  15.865  0.00  0.00    +0.000 OA
ATOM     16  N   UNL     1       4.515   4.990  16.791  0.00  0.00    +0.000 N 
ATOM     17  C   UNL     1       3.735   5.588  17.747  0.00  0.00    +0.000 A 
ATOM     18  N   UNL     1       3.169   4.894  18.703  0.00  0.00    +0.000 NA
ATOM     19  C   UNL     1       2.445   5.741  19.539  0.00  0.00    +0.000 A 
ATOM     20  C   UNL     1       1.800   5.122  20.731  0.00  0.00    +0.000 C 
ATOM     21  C   UNL     1       2.400   7.075  19.135  0.00  0.00    +0.000 A 
ATOM     22  S   UNL     1       3.383   7.245  17.730  0.00  0.00    +0.000 S 
ATOM     23  H   UNL     1       4.540   3.983  16.863  0.00  0.00    +0.000 HD
ENDBRANCH   1  21
TORSDOF 1
ENDMDL
MODEL 8
REMARK VINA RESULT:      -7.3      3.179      4.726
REMARK  Name = 
REMARK  4 active torsions:
REMARK  status: ('A' for Active; 'I' for Inactive)
REMARK    1  A    between atoms: C_1  and  C_2
REMARK    2  A    between atoms: C_7  and  C_8
REMARK    3  A    between atoms: C_9  and  C_10
REMARK    4  A    between atoms: C_12  and  C_13
REMARK                            x       y       z     vdW  Elec       q    Type
REMARK                         _______ _______ _______ _____ _____    ______ ____
ROOT
ATOM      1  C   UNL     1       4.298   5.475  17.991  0.00  0.00    +0.000 A 
ATOM      2  C   UNL     1       5.420   6.335  17.944  0.00  0.00    +0.000 A 
ATOM      3  C   UNL     1       6.378   6.272  16.916  0.00  0.00    +0.000 A 
ATOM      4  C   UNL     1       7.522   7.232  16.864  0.00  0.00    +0.000 C 
ATOM      5  C   UNL     1       6.196   5.286  15.960  0.00  0.00    +0.000 A 
ATOM      6  C   UNL     1       5.122   4.400  15.994  0.00  0.00    +0.000 A 
ATOM      7  C   UNL     1       4.164   4.489  16.991  0.00  0.00    +0.000 A 
ATOM      8  C   UNL     1       5.196   3.445  14.852  0.00  0.00    +0.000 C 
ATOM      9  N   UNL     1       6.384   3.883  14.164  0.00  0.00    +0.000 N 
ATOM     10  C   UNL     1       7.005   4.947  14.775  0.00  0.00    +0.000 C 
ATOM     11  O   UNL     1       8.021   5.498  14.407  0.00  0.00    +0.000 OA
ATOM     12  H   UNL     1       6.768   3.464  13.326  0.00  0.00    +0.000 HD
ENDROOT
BRANCH   1  21
ATOM     13  C   UNL     1      -0.397   9.161  22.254  0.00  0.00    +0.000 C 
ATOM     14  C   UNL     1       0.459   8.586  21.155  0.00  0.00    +0.000 C 
ATOM     15  O   UNL     1       0.724   9.256  20.164  0.00  0.00    +0.000 OA
ATOM     16  N   UNL     1       0.855   7.295  21.423  0.00  0.00    +0.000 N 
ATOM     17  C   UNL     1       1.670   6.525  20.635  0.00  0.00    +0.000 A 
ATOM     18  N   UNL     1       1.781   5.232  20.819  0.00  0.00    +0.000 NA
ATOM     19  C   UNL     1       2.659   4.693  19.882  0.00  0.00    +0.000 A 
ATOM     20  C   UNL     1       2.840   3.215  19.899  0.00  0.00    +0.000 C 
ATOM     21  C   UNL     1       3.280   5.624  19.049  0.00  0.00    +0.000 A 
ATOM     22  S   UNL     1       2.645   7.183  19.416  0.00  0.00    +0.000 S 
ATOM     23  H   UNL     1       0.426   6.782  22.181  0.00  0.00    +0.000 HD
ENDBRANCH   1  21
TORSDOF 1
ENDMDL
MODEL 9
REMARK VINA RESULT:      -7.3      1.209      2.219
REMARK  Name = 
REMARK  4 active torsions:
REMARK  status: ('A' for Active; 'I' for Inactive)
REMARK    1  A    between atoms: C_1  and  C_2
REMARK    2  A    between atoms: C_7  and  C_8
REMARK    3  A    between atoms: C_9  and  C_10
REMARK    4  A    between atoms: C_12  and  C_13
REMARK                            x       y       z     vdW  Elec       q    Type
REMARK                         _______ _______ _______ _____ _____    ______ ____
ROOT
ATOM      1  C   UNL     1       1.958   7.608  19.686  0.00  0.00    +0.000 A 
ATOM      2  C   UNL     1       2.850   7.352  18.618  0.00  0.00    +0.000 A 
ATOM      3  C   UNL     1       3.435   6.090  18.407  0.00  0.00    +0.000 A 
ATOM      4  C   UNL     1       4.328   5.837  17.237  0.00  0.00    +0.000 C 
ATOM      5  C   UNL     1       3.130   5.105  19.332  0.00  0.00    +0.000 A 
ATOM      6  C   UNL     1       2.283   5.331  20.415  0.00  0.00    +0.000 A 
ATOM      7  C   UNL     1       1.684   6.567  20.597  0.00  0.00    +0.000 A 
ATOM      8  C   UNL     1       2.155   4.098  21.244  0.00  0.00    +0.000 C 
ATOM      9  N   UNL     1       2.978   3.160  20.525  0.00  0.00    +0.000 N 
ATOM     10  C   UNL     1       3.572   3.701  19.410  0.00  0.00    +0.000 C 
ATOM     11  O   UNL     1       4.316   3.130  18.639  0.00  0.00    +0.000 OA
ATOM     12  H   UNL     1       3.145   2.197  20.792  0.00  0.00    +0.000 HD
ENDROOT
BRANCH   1  21
ATOM     13  C   UNL     1      -2.086  12.729  23.035  0.00  0.00    +0.000 C 
ATOM     14  C   UNL     1      -1.141  11.628  22.629  0.00  0.00    +0.000 C 
ATOM     15  O   UNL     1      -0.767  10.800  23.451  0.00  0.00    +0.000 OA
ATOM     16  N   UNL     1      -0.793  11.704  21.299  0.00  0.00    +0.000 N 
ATOM     17  C   UNL     1       0.017  10.823  20.629  0.00  0.00    +0.000 A 
ATOM     18  N   UNL     1       0.512  11.107  19.450  0.00  0.00    +0.000 NA
ATOM     19  C   UNL     1       1.303  10.051  19.001  0.00  0.00    +0.000 A 
ATOM     20  C   UNL     1       2.011  10.243  17.704  0.00  0.00    +0.000 C 
ATOM     21  C   UNL     1       1.313   8.927  19.826  0.00  0.00    +0.000 A 
ATOM     22  S   UNL     1       0.381   9.283  21.232  0.00  0.00    +0.000 S 
ATOM     23  H   UNL     1      -1.015  12.533  20.765  0.00  0.00    +0.000 HD
ENDBRANCH   1  21
TORSDOF 1
ENDMDL
