MODEL 1
REMARK VINA RESULT:      -8.4      0.000      0.000
REMARK  Name = 
REMARK  6 active torsions:
REMARK  status: ('A' for Active; 'I' for Inactive)
REMARK    1  A    between atoms: C_1  and  O_2
REMARK    2  A    between atoms: O_2  and  C_3
REMARK    3  A    between atoms: C_4  and  C_5
REMARK    4  A    between atoms: C_11  and  S_12
REMARK    5  A    between atoms: S_12  and  N_15
REMARK    6  A    between atoms: C_28  and  C_29
REMARK                            x       y       z     vdW  Elec       q    Type
REMARK                         _______ _______ _______ _____ _____    ______ ____
ROOT
ATOM      1  C   UNL     1      -0.026  11.476  19.639  0.00  0.00    +0.000 A 
ATOM      2  N   UNL     1       0.595  12.519  19.027  0.00  0.00    +0.000 NA
ATOM      3  C   UNL     1       1.631  12.291  18.209  0.00  0.00    +0.000 A 
ATOM      4  C   UNL     1       2.183  11.070  18.081  0.00  0.00    +0.000 A 
ATOM      5  C   UNL     1       1.503   9.987  18.576  0.00  0.00    +0.000 A 
ATOM      6  C   UNL     1       2.042   8.792  18.145  0.00  0.00    +0.000 A 
ATOM      7  C   UNL     1       2.086   7.707  19.008  0.00  0.00    +0.000 A 
ATOM      8  C   UNL     1       1.630   7.926  20.306  0.00  0.00    +0.000 A 
ATOM      9  C   UNL     1       0.836   9.099  20.598  0.00  0.00    +0.000 A 
ATOM     10  C   UNL     1       0.613  10.157  19.629  0.00  0.00    +0.000 A 
ENDROOT
BRANCH   1  12
ATOM     11  C   UNL     1      -2.587  11.303  18.893  0.00  0.00    +0.000 A 
ATOM     12  C   UNL     1      -1.519  11.865  19.615  0.00  0.00    +0.000 A 
ATOM     13  C   UNL     1      -1.922  12.878  20.560  0.00  0.00    +0.000 A 
ATOM     14  C   UNL     1      -3.230  13.304  20.775  0.00  0.00    +0.000 A 
ATOM     15  C   UNL     1      -4.219  12.796  19.972  0.00  0.00    +0.000 A 
ATOM     16  C   UNL     1      -3.916  11.815  19.005  0.00  0.00    +0.000 A 
BRANCH  16  17
ATOM     17  C   UNL     1      -5.101  11.344  18.192  0.00  0.00    +0.000 C 
ATOM     18  F   UNL     1      -4.956  11.402  16.846  0.00  0.00    +0.000 F 
ATOM     19  F   UNL     1      -5.443  10.054  18.484  0.00  0.00    +0.000 F 
ATOM     20  F   UNL     1      -6.225  12.075  18.473  0.00  0.00    +0.000 F 
ENDBRANCH  16  17
BRANCH  11  22
ATOM     21  C   UNL     1      -1.902  10.512  16.845  0.00  0.00    +0.000 C 
ATOM     22  O   UNL     1      -2.403  10.172  18.145  0.00  0.00    +0.000 OA
ENDBRANCH  11  22
ENDBRANCH   1  12
BRANCH   7  23
ATOM     23  S   UNL     1       3.022   6.271  18.477  0.00  0.00    +0.000 S 
ATOM     24  O   UNL     1       3.776   5.838  19.622  0.00  0.00    +0.000 OA
ATOM     25  O   UNL     1       2.106   5.385  17.823  0.00  0.00    +0.000 OA
BRANCH  23  26
ATOM     26  N   UNL     1       4.122   6.811  17.343  0.00  0.00    +0.000 N 
ATOM     27  C   UNL     1       5.248   6.011  17.098  0.00  0.00    +0.000 A 
ATOM     28  C   UNL     1       5.239   4.948  16.220  0.00  0.00    +0.000 A 
ATOM     29  C   UNL     1       6.439   4.288  16.114  0.00  0.00    +0.000 A 
ATOM     30  N   UNL     1       7.537   4.623  16.824  0.00  0.00    +0.000 NA
ATOM     31  C   UNL     1       7.409   5.664  17.654  0.00  0.00    +0.000 A 
ATOM     32  N   UNL     1       6.309   6.391  17.820  0.00  0.00    +0.000 NA
ATOM     33  H   UNL     1       4.366   7.775  17.540  0.00  0.00    +0.000 HD
ENDBRANCH  23  26
ENDBRANCH   7  23
TORSDOF 5
ENDMDL
MODEL 2
REMARK VINA RESULT:      -8.4      2.187      2.643
REMARK  Name = 
REMARK  6 active torsions:
REMARK  status: ('A' for Active; 'I' for Inactive)
REMARK    1  A    between atoms: C_1  and  O_2
REMARK    2  A    between atoms: O_2  and  C_3
REMARK    3  A    between atoms: C_4  and  C_5
REMARK    4  A    between atoms: C_11  and  S_12
REMARK    5  A    between atoms: S_12  and  N_15
REMARK    6  A    between atoms: C_28  and  C_29
REMARK                            x       y       z     vdW  Elec       q    Type
REMARK                         _______ _______ _______ _____ _____    ______ ____
ROOT
ATOM      1  C   UNL     1      -0.299  11.669  19.762  0.00  0.00    +0.000 A 
ATOM      2  N   UNL     1       0.283  12.772  19.222  0.00  0.00    +0.000 NA
ATOM      3  C   UNL     1       1.346  12.638  18.416  0.00  0.00    +0.000 A 
ATOM      4  C   UNL     1       1.956  11.452  18.234  0.00  0.00    +0.000 A 
ATOM      5  C   UNL     1       1.318  10.313  18.654  0.00  0.00    +0.000 A 
ATOM      6  C   UNL     1       1.922   9.170  18.170  0.00  0.00    +0.000 A 
ATOM      7  C   UNL     1       2.000   8.042  18.973  0.00  0.00    +0.000 A 
ATOM      8  C   UNL     1       1.508   8.167  20.270  0.00  0.00    +0.000 A 
ATOM      9  C   UNL     1       0.654   9.285  20.608  0.00  0.00    +0.000 A 
ATOM     10  C   UNL     1       0.401  10.383  19.693  0.00  0.00    +0.000 A 
ENDROOT
BRANCH   1  12
ATOM     11  C   UNL     1      -2.756  11.760  18.712  0.00  0.00    +0.000 A 
ATOM     12  C   UNL     1      -1.808  11.990  19.726  0.00  0.00    +0.000 A 
ATOM     13  C   UNL     1      -2.377  12.491  20.953  0.00  0.00    +0.000 A 
ATOM     14  C   UNL     1      -3.727  12.749  21.169  0.00  0.00    +0.000 A 
ATOM     15  C   UNL     1      -4.593  12.606  20.115  0.00  0.00    +0.000 A 
ATOM     16  C   UNL     1      -4.124  12.139  18.869  0.00  0.00    +0.000 A 
BRANCH  16  17
ATOM     17  C   UNL     1      -5.187  12.027  17.798  0.00  0.00    +0.000 C 
ATOM     18  F   UNL     1      -4.779  12.279  16.531  0.00  0.00    +0.000 F 
ATOM     19  F   UNL     1      -5.764  10.789  17.775  0.00  0.00    +0.000 F 
ATOM     20  F   UNL     1      -6.224  12.891  18.029  0.00  0.00    +0.000 F 
ENDBRANCH  16  17
BRANCH  11  22
ATOM     21  C   UNL     1      -2.661   9.663  17.774  0.00  0.00    +0.000 C 
ATOM     22  O   UNL     1      -2.415  11.062  17.585  0.00  0.00    +0.000 OA
ENDBRANCH  11  22
ENDBRANCH   1  12
BRANCH   7  23
ATOM     23  S   UNL     1       3.012   6.682  18.386  0.00  0.00    +0.000 S 
ATOM     24  O   UNL     1       2.112   5.749  17.766  0.00  0.00    +0.000 OA
ATOM     25  O   UNL     1       4.102   7.251  17.651  0.00  0.00    +0.000 OA
BRANCH  23  26
ATOM     26  N   UNL     1       3.637   5.932  19.741  0.00  0.00    +0.000 N 
ATOM     27  C   UNL     1       3.153   4.653  20.056  0.00  0.00    +0.000 A 
ATOM     28  C   UNL     1       3.652   3.499  19.491  0.00  0.00    +0.000 A 
ATOM     29  C   UNL     1       3.050   2.345  19.929  0.00  0.00    +0.000 A 
ATOM     30  N   UNL     1       2.034   2.327  20.818  0.00  0.00    +0.000 NA
ATOM     31  C   UNL     1       1.631   3.517  21.279  0.00  0.00    +0.000 A 
ATOM     32  N   UNL     1       2.154   4.693  20.946  0.00  0.00    +0.000 NA
ATOM     33  H   UNL     1       3.596   6.567  20.529  0.00  0.00    +0.000 HD
ENDBRANCH  23  26
ENDBRANCH   7  23
TORSDOF 5
ENDMDL
MODEL 3
REMARK VINA RESULT:      -8.4      1.713      2.406
REMARK  Name = 
REMARK  6 active torsions:
REMARK  status: ('A' for Active; 'I' for Inactive)
REMARK    1  A    between atoms: C_1  and  O_2
REMARK    2  A    between atoms: O_2  and  C_3
REMARK    3  A    between atoms: C_4  and  C_5
REMARK    4  A    between atoms: C_11  and  S_12
REMARK    5  A    between atoms: S_12  and  N_15
REMARK    6  A    between atoms: C_28  and  C_29
REMARK                            x       y       z     vdW  Elec       q    Type
REMARK                         _______ _______ _______ _____ _____    ______ ____
ROOT
ATOM      1  C   UNL     1       0.072  11.263  19.854  0.00  0.00    +0.000 A 
ATOM      2  N   UNL     1       0.659  12.318  19.229  0.00  0.00    +0.000 NA
ATOM      3  C   UNL     1       1.658  12.107  18.361  0.00  0.00    +0.000 A 
ATOM      4  C   UNL     1       2.208  10.891  18.190  0.00  0.00    +0.000 A 
ATOM      5  C   UNL     1       1.556   9.797  18.700  0.00  0.00    +0.000 A 
ATOM      6  C   UNL     1       2.080   8.611  18.227  0.00  0.00    +0.000 A 
ATOM      7  C   UNL     1       2.168   7.513  19.071  0.00  0.00    +0.000 A 
ATOM      8  C   UNL     1       1.770   7.712  20.391  0.00  0.00    +0.000 A 
ATOM      9  C   UNL     1       0.986   8.877  20.737  0.00  0.00    +0.000 A 
ATOM     10  C   UNL     1       0.714   9.947  19.795  0.00  0.00    +0.000 A 
ENDROOT
BRANCH   1  12
ATOM     11  C   UNL     1      -2.145  12.335  20.895  0.00  0.00    +0.000 A 
ATOM     12  C   UNL     1      -1.423  11.645  19.904  0.00  0.00    +0.000 A 
ATOM     13  C   UNL     1      -2.185  11.370  18.711  0.00  0.00    +0.000 A 
ATOM     14  C   UNL     1      -3.515  11.723  18.505  0.00  0.00    +0.000 A 
ATOM     15  C   UNL     1      -4.202  12.301  19.542  0.00  0.00    +0.000 A 
ATOM     16  C   UNL     1      -3.544  12.591  20.755  0.00  0.00    +0.000 A 
BRANCH  16  17
ATOM     17  C   UNL     1      -4.421  13.229  21.811  0.00  0.00    +0.000 C 
ATOM     18  F   UNL     1      -4.073  14.482  22.191  0.00  0.00    +0.000 F 
ATOM     19  F   UNL     1      -5.727  13.297  21.419  0.00  0.00    +0.000 F 
ATOM     20  F   UNL     1      -4.440  12.487  22.962  0.00  0.00    +0.000 F 
ENDBRANCH  16  17
BRANCH  11  22
ATOM     21  C   UNL     1      -1.251  11.875  22.963  0.00  0.00    +0.000 C 
ATOM     22  O   UNL     1      -1.504  12.880  21.973  0.00  0.00    +0.000 OA
ENDBRANCH  11  22
ENDBRANCH   1  12
BRANCH   7  23
ATOM     23  S   UNL     1       3.084   6.090  18.477  0.00  0.00    +0.000 S 
ATOM     24  O   UNL     1       3.868   5.625  19.588  0.00  0.00    +0.000 OA
ATOM     25  O   UNL     1       2.148   5.225  17.825  0.00  0.00    +0.000 OA
BRANCH  23  26
ATOM     26  N   UNL     1       4.154   6.658  17.328  0.00  0.00    +0.000 N 
ATOM     27  C   UNL     1       5.282   5.872  17.046  0.00  0.00    +0.000 A 
ATOM     28  C   UNL     1       5.264   4.822  16.153  0.00  0.00    +0.000 A 
ATOM     29  C   UNL     1       6.467   4.175  16.011  0.00  0.00    +0.000 A 
ATOM     30  N   UNL     1       7.578   4.511  16.702  0.00  0.00    +0.000 NA
ATOM     31  C   UNL     1       7.458   5.538  17.550  0.00  0.00    +0.000 A 
ATOM     32  N   UNL     1       6.355   6.252  17.751  0.00  0.00    +0.000 NA
ATOM     33  H   UNL     1       4.394   7.621  17.533  0.00  0.00    +0.000 HD
ENDBRANCH  23  26
ENDBRANCH   7  23
TORSDOF 5
ENDMDL
MODEL 4
REMARK VINA RESULT:      -8.3      2.172      2.648
REMARK  Name = 
REMARK  6 active torsions:
REMARK  status: ('A' for Active; 'I' for Inactive)
REMARK    1  A    between atoms: C_1  and  O_2
REMARK    2  A    between atoms: O_2  and  C_3
REMARK    3  A    between atoms: C_4  and  C_5
REMARK    4  A    between atoms: C_11  and  S_12
REMARK    5  A    between atoms: S_12  and  N_15
REMARK    6  A    between atoms: C_28  and  C_29
REMARK                            x       y       z     vdW  Elec       q    Type
REMARK                         _______ _______ _______ _____ _____    ______ ____
ROOT
ATOM      1  C   UNL     1      -0.343  11.663  19.788  0.00  0.00    +0.000 A 
ATOM      2  N   UNL     1       0.235  12.764  19.238  0.00  0.00    +0.000 NA
ATOM      3  C   UNL     1       1.299  12.628  18.436  0.00  0.00    +0.000 A 
ATOM      4  C   UNL     1       1.917  11.444  18.267  0.00  0.00    +0.000 A 
ATOM      5  C   UNL     1       1.284  10.306  18.697  0.00  0.00    +0.000 A 
ATOM      6  C   UNL     1       1.895   9.161  18.226  0.00  0.00    +0.000 A 
ATOM      7  C   UNL     1       1.977   8.041  19.041  0.00  0.00    +0.000 A 
ATOM      8  C   UNL     1       1.482   8.177  20.336  0.00  0.00    +0.000 A 
ATOM      9  C   UNL     1       0.622   9.293  20.661  0.00  0.00    +0.000 A 
ATOM     10  C   UNL     1       0.364  10.381  19.734  0.00  0.00    +0.000 A 
ENDROOT
BRANCH   1  12
ATOM     11  C   UNL     1      -2.795  11.742  18.727  0.00  0.00    +0.000 A 
ATOM     12  C   UNL     1      -1.854  11.976  19.746  0.00  0.00    +0.000 A 
ATOM     13  C   UNL     1      -2.431  12.472  20.971  0.00  0.00    +0.000 A 
ATOM     14  C   UNL     1      -3.784  12.721  21.182  0.00  0.00    +0.000 A 
ATOM     15  C   UNL     1      -4.644  12.574  20.124  0.00  0.00    +0.000 A 
ATOM     16  C   UNL     1      -4.167  12.113  18.879  0.00  0.00    +0.000 A 
BRANCH  16  17
ATOM     17  C   UNL     1      -5.224  11.996  17.803  0.00  0.00    +0.000 C 
ATOM     18  F   UNL     1      -5.829  10.789  17.695  0.00  0.00    +0.000 F 
ATOM     19  F   UNL     1      -6.225  12.912  17.966  0.00  0.00    +0.000 F 
ATOM     20  F   UNL     1      -4.707  12.261  16.562  0.00  0.00    +0.000 F 
ENDBRANCH  16  17
BRANCH  11  22
ATOM     21  C   UNL     1      -2.698   9.648  17.781  0.00  0.00    +0.000 C 
ATOM     22  O   UNL     1      -2.446  11.048  17.601  0.00  0.00    +0.000 OA
ENDBRANCH  11  22
ENDBRANCH   1  12
BRANCH   7  23
ATOM     23  S   UNL     1       2.999   6.681  18.470  0.00  0.00    +0.000 S 
ATOM     24  O   UNL     1       3.825   7.213  17.421  0.00  0.00    +0.000 OA
ATOM     25  O   UNL     1       3.583   6.074  19.627  0.00  0.00    +0.000 OA
BRANCH  23  26
ATOM     26  N   UNL     1       1.968   5.573  17.766  0.00  0.00    +0.000 N 
ATOM     27  C   UNL     1       1.971   4.266  18.278  0.00  0.00    +0.000 A 
ATOM     28  C   UNL     1       1.230   3.886  19.376  0.00  0.00    +0.000 A 
ATOM     29  C   UNL     1       1.364   2.564  19.723  0.00  0.00    +0.000 A 
ATOM     30  N   UNL     1       2.171   1.702  19.069  0.00  0.00    +0.000 NA
ATOM     31  C   UNL     1       2.849   2.200  18.030  0.00  0.00    +0.000 A 
ATOM     32  N   UNL     1       2.780   3.453  17.588  0.00  0.00    +0.000 NA
ATOM     33  H   UNL     1       2.082   5.595  16.759  0.00  0.00    +0.000 HD
ENDBRANCH  23  26
ENDBRANCH   7  23
TORSDOF 5
ENDMDL
MODEL 5
REMARK VINA RESULT:      -8.3      2.597      3.370
REMARK  Name = 
REMARK  6 active torsions:
REMARK  status: ('A' for Active; 'I' for Inactive)
REMARK    1  A    between atoms: C_1  and  O_2
REMARK    2  A    between atoms: O_2  and  C_3
REMARK    3  A    between atoms: C_4  and  C_5
REMARK    4  A    between atoms: C_11  and  S_12
REMARK    5  A    between atoms: S_12  and  N_15
REMARK    6  A    between atoms: C_28  and  C_29
REMARK                            x       y       z     vdW  Elec       q    Type
REMARK                         _______ _______ _______ _____ _____    ______ ____
ROOT
ATOM      1  C   UNL     1       1.015  10.104  19.828  0.00  0.00    +0.000 A 
ATOM      2  N   UNL     1       1.599  10.898  18.892  0.00  0.00    +0.000 NA
ATOM      3  C   UNL     1       2.215  10.345  17.839  0.00  0.00    +0.000 A 
ATOM      4  C   UNL     1       2.409   9.016  17.744  0.00  0.00    +0.000 A 
ATOM      5  C   UNL     1       1.722   8.190  18.596  0.00  0.00    +0.000 A 
ATOM      6  C   UNL     1       1.807   6.865  18.217  0.00  0.00    +0.000 A 
ATOM      7  C   UNL     1       1.907   5.878  19.186  0.00  0.00    +0.000 A 
ATOM      8  C   UNL     1       1.983   6.311  20.508  0.00  0.00    +0.000 A 
ATOM      9  C   UNL     1       1.614   7.669  20.840  0.00  0.00    +0.000 A 
ATOM     10  C   UNL     1       1.308   8.668  19.832  0.00  0.00    +0.000 A 
ENDROOT
BRANCH   1  12
ATOM     11  C   UNL     1      -0.726  11.294  21.471  0.00  0.00    +0.000 A 
ATOM     12  C   UNL     1      -0.272  10.864  20.211  0.00  0.00    +0.000 A 
ATOM     13  C   UNL     1      -1.088  11.316  19.111  0.00  0.00    +0.000 A 
ATOM     14  C   UNL     1      -2.232  12.101  19.225  0.00  0.00    +0.000 A 
ATOM     15  C   UNL     1      -2.688  12.406  20.482  0.00  0.00    +0.000 A 
ATOM     16  C   UNL     1      -1.966  11.989  21.620  0.00  0.00    +0.000 A 
BRANCH  16  17
ATOM     17  C   UNL     1      -2.581  12.396  22.940  0.00  0.00    +0.000 C 
ATOM     18  F   UNL     1      -2.871  11.385  23.794  0.00  0.00    +0.000 F 
ATOM     19  F   UNL     1      -1.785  13.263  23.633  0.00  0.00    +0.000 F 
ATOM     20  F   UNL     1      -3.758  13.072  22.758  0.00  0.00    +0.000 F 
ENDBRANCH  16  17
BRANCH  11  22
ATOM     21  C   UNL     1      -0.125   9.864  23.168  0.00  0.00    +0.000 C 
ATOM     22  O   UNL     1       0.063  11.158  22.579  0.00  0.00    +0.000 OA
ENDBRANCH  11  22
ENDBRANCH   1  12
BRANCH   7  23
ATOM     23  S   UNL     1       2.267   4.211  18.629  0.00  0.00    +0.000 S 
ATOM     24  O   UNL     1       1.830   3.333  19.679  0.00  0.00    +0.000 OA
ATOM     25  O   UNL     1       1.745   4.085  17.301  0.00  0.00    +0.000 OA
BRANCH  23  26
ATOM     26  N   UNL     1       3.930   4.085  18.547  0.00  0.00    +0.000 N 
ATOM     27  C   UNL     1       4.583   4.767  17.509  0.00  0.00    +0.000 A 
ATOM     28  C   UNL     1       4.936   6.097  17.588  0.00  0.00    +0.000 A 
ATOM     29  C   UNL     1       5.569   6.584  16.471  0.00  0.00    +0.000 A 
ATOM     30  N   UNL     1       5.809   5.843  15.369  0.00  0.00    +0.000 NA
ATOM     31  C   UNL     1       5.402   4.570  15.413  0.00  0.00    +0.000 A 
ATOM     32  N   UNL     1       4.803   3.984  16.446  0.00  0.00    +0.000 NA
ATOM     33  H   UNL     1       4.199   3.109  18.599  0.00  0.00    +0.000 HD
ENDBRANCH  23  26
ENDBRANCH   7  23
TORSDOF 5
ENDMDL
MODEL 6
REMARK VINA RESULT:      -8.2      2.924      3.908
REMARK  Name = 
REMARK  6 active torsions:
REMARK  status: ('A' for Active; 'I' for Inactive)
REMARK    1  A    between atoms: C_1  and  O_2
REMARK    2  A    between atoms: O_2  and  C_3
REMARK    3  A    between atoms: C_4  and  C_5
REMARK    4  A    between atoms: C_11  and  S_12
REMARK    5  A    between atoms: S_12  and  N_15
REMARK    6  A    between atoms: C_28  and  C_29
REMARK                            x       y       z     vdW  Elec       q    Type
REMARK                         _______ _______ _______ _____ _____    ______ ____
ROOT
ATOM      1  C   UNL     1       1.671   8.912  19.429  0.00  0.00    +0.000 A 
ATOM      2  N   UNL     1       2.352   9.552  18.442  0.00  0.00    +0.000 NA
ATOM      3  C   UNL     1       2.932   8.843  17.464  0.00  0.00    +0.000 A 
ATOM      4  C   UNL     1       2.994   7.499  17.498  0.00  0.00    +0.000 A 
ATOM      5  C   UNL     1       2.209   6.829  18.401  0.00  0.00    +0.000 A 
ATOM      6  C   UNL     1       2.168   5.472  18.149  0.00  0.00    +0.000 A 
ATOM      7  C   UNL     1       2.147   4.577  19.208  0.00  0.00    +0.000 A 
ATOM      8  C   UNL     1       2.238   5.124  20.486  0.00  0.00    +0.000 A 
ATOM      9  C   UNL     1       2.000   6.537  20.680  0.00  0.00    +0.000 A 
ATOM     10  C   UNL     1       1.818   7.461  19.574  0.00  0.00    +0.000 A 
ENDROOT
BRANCH   1  12
ATOM     11  C   UNL     1       0.081  10.502  20.874  0.00  0.00    +0.000 A 
ATOM     12  C   UNL     1       0.458   9.827  19.699  0.00  0.00    +0.000 A 
ATOM     13  C   UNL     1      -0.357  10.149  18.553  0.00  0.00    +0.000 A 
ATOM     14  C   UNL     1      -1.433  11.032  18.552  0.00  0.00    +0.000 A 
ATOM     15  C   UNL     1      -1.822  11.583  19.746  0.00  0.00    +0.000 A 
ATOM     16  C   UNL     1      -1.097  11.310  20.925  0.00  0.00    +0.000 A 
BRANCH  16  17
ATOM     17  C   UNL     1      -1.636  11.984  22.167  0.00  0.00    +0.000 C 
ATOM     18  F   UNL     1      -2.006  11.159  23.175  0.00  0.00    +0.000 F 
ATOM     19  F   UNL     1      -0.738  12.863  22.704  0.00  0.00    +0.000 F 
ATOM     20  F   UNL     1      -2.742  12.742  21.886  0.00  0.00    +0.000 F 
ENDBRANCH  16  17
BRANCH  11  22
ATOM     21  C   UNL     1       0.642   9.328  22.770  0.00  0.00    +0.000 C 
ATOM     22  O   UNL     1       0.894  10.494  21.974  0.00  0.00    +0.000 OA
ENDBRANCH  11  22
ENDBRANCH   1  12
BRANCH   7  23
ATOM     23  S   UNL     1       2.350   2.838  18.819  0.00  0.00    +0.000 S 
ATOM     24  O   UNL     1       1.950   2.114  19.994  0.00  0.00    +0.000 OA
ATOM     25  O   UNL     1       1.708   2.607  17.560  0.00  0.00    +0.000 OA
BRANCH  23  26
ATOM     26  N   UNL     1       3.988   2.581  18.621  0.00  0.00    +0.000 N 
ATOM     27  C   UNL     1       4.782   3.686  18.278  0.00  0.00    +0.000 A 
ATOM     28  C   UNL     1       5.285   4.569  19.209  0.00  0.00    +0.000 A 
ATOM     29  C   UNL     1       6.041   5.585  18.678  0.00  0.00    +0.000 A 
ATOM     30  N   UNL     1       6.261   5.735  17.354  0.00  0.00    +0.000 NA
ATOM     31  C   UNL     1       5.704   4.819  16.556  0.00  0.00    +0.000 A 
ATOM     32  N   UNL     1       4.975   3.782  16.957  0.00  0.00    +0.000 NA
ATOM     33  H   UNL     1       4.135   1.791  18.004  0.00  0.00    +0.000 HD
ENDBRANCH  23  26
ENDBRANCH   7  23
TORSDOF 5
ENDMDL
MODEL 7
REMARK VINA RESULT:      -8.1      3.149      3.979
REMARK  Name = 
REMARK  6 active torsions:
REMARK  status: ('A' for Active; 'I' for Inactive)
REMARK    1  A    between atoms: C_1  and  O_2
REMARK    2  A    between atoms: O_2  and  C_3
REMARK    3  A    between atoms: C_4  and  C_5
REMARK    4  A    between atoms: C_11  and  S_12
REMARK    5  A    between atoms: S_12  and  N_15
REMARK    6  A    between atoms: C_28  and  C_29
REMARK                            x       y       z     vdW  Elec       q    Type
REMARK                         _______ _______ _______ _____ _____    ______ ____
ROOT
ATOM      1  C   UNL     1      -0.257  11.794  20.643  0.00  0.00    +0.000 A 
ATOM      2  N   UNL     1       0.169  12.905  19.986  0.00  0.00    +0.000 NA
ATOM      3  C   UNL     1       1.015  12.786  18.954  0.00  0.00    +0.000 A 
ATOM      4  C   UNL     1       1.581  11.609  18.629  0.00  0.00    +0.000 A 
ATOM      5  C   UNL     1       1.073  10.462  19.181  0.00  0.00    +0.000 A 
ATOM      6  C   UNL     1       1.561   9.327  18.565  0.00  0.00    +0.000 A 
ATOM      7  C   UNL     1       1.839   8.198  19.322  0.00  0.00    +0.000 A 
ATOM      8  C   UNL     1       1.662   8.316  20.699  0.00  0.00    +0.000 A 
ATOM      9  C   UNL     1       0.897   9.421  21.232  0.00  0.00    +0.000 A 
ATOM     10  C   UNL     1       0.423  10.517  20.407  0.00  0.00    +0.000 A 
ENDROOT
BRANCH   1  12
ATOM     11  C   UNL     1      -2.351  12.405  22.188  0.00  0.00    +0.000 A 
ATOM     12  C   UNL     1      -1.737  12.095  20.961  0.00  0.00    +0.000 A 
ATOM     13  C   UNL     1      -2.619  12.198  19.825  0.00  0.00    +0.000 A 
ATOM     14  C   UNL     1      -3.963  12.558  19.877  0.00  0.00    +0.000 A 
ATOM     15  C   UNL     1      -4.536  12.749  21.108  0.00  0.00    +0.000 A 
ATOM     16  C   UNL     1      -3.756  12.650  22.279  0.00  0.00    +0.000 A 
BRANCH  16  17
ATOM     17  C   UNL     1      -4.516  12.886  23.565  0.00  0.00    +0.000 C 
ATOM     18  F   UNL     1      -4.327  14.092  24.152  0.00  0.00    +0.000 F 
ATOM     19  F   UNL     1      -5.865  12.752  23.396  0.00  0.00    +0.000 F 
ATOM     20  F   UNL     1      -4.190  11.958  24.518  0.00  0.00    +0.000 F 
ENDBRANCH  16  17
BRANCH  11  22
ATOM     21  C   UNL     1      -1.110  13.938  23.371  0.00  0.00    +0.000 C 
ATOM     22  O   UNL     1      -1.599  12.591  23.316  0.00  0.00    +0.000 OA
ENDBRANCH  11  22
ENDBRANCH   1  12
BRANCH   7  23
ATOM     23  S   UNL     1       2.703   6.854  18.508  0.00  0.00    +0.000 S 
ATOM     24  O   UNL     1       1.688   6.004  17.949  0.00  0.00    +0.000 OA
ATOM     25  O   UNL     1       3.711   7.439  17.676  0.00  0.00    +0.000 OA
BRANCH  23  26
ATOM     26  N   UNL     1       3.466   5.980  19.710  0.00  0.00    +0.000 N 
ATOM     27  C   UNL     1       2.983   4.690  19.981  0.00  0.00    +0.000 A 
ATOM     28  C   UNL     1       3.371   3.576  19.268  0.00  0.00    +0.000 A 
ATOM     29  C   UNL     1       2.790   2.404  19.685  0.00  0.00    +0.000 A 
ATOM     30  N   UNL     1       1.892   2.335  20.691  0.00  0.00    +0.000 NA
ATOM     31  C   UNL     1       1.588   3.491  21.291  0.00  0.00    +0.000 A 
ATOM     32  N   UNL     1       2.104   4.679  20.990  0.00  0.00    +0.000 NA
ATOM     33  H   UNL     1       3.544   6.548  20.545  0.00  0.00    +0.000 HD
ENDBRANCH  23  26
ENDBRANCH   7  23
TORSDOF 5
ENDMDL
MODEL 8
REMARK VINA RESULT:      -8.1      2.401      3.197
REMARK  Name = 
REMARK  6 active torsions:
REMARK  status: ('A' for Active; 'I' for Inactive)
REMARK    1  A    between atoms: C_1  and  O_2
REMARK    2  A    between atoms: O_2  and  C_3
REMARK    3  A    between atoms: C_4  and  C_5
REMARK    4  A    between atoms: C_11  and  S_12
REMARK    5  A    between atoms: S_12  and  N_15
REMARK    6  A    between atoms: C_28  and  C_29
REMARK                            x       y       z     vdW  Elec       q    Type
REMARK                         _______ _______ _______ _____ _____    ______ ____
ROOT
ATOM      1  C   UNL     1       0.096  10.824  19.164  0.00  0.00    +0.000 A 
ATOM      2  N   UNL     1       0.644  11.982  18.711  0.00  0.00    +0.000 NA
ATOM      3  C   UNL     1       1.803  11.953  18.039  0.00  0.00    +0.000 A 
ATOM      4  C   UNL     1       2.529  10.827  17.919  0.00  0.00    +0.000 A 
ATOM      5  C   UNL     1       1.943   9.630  18.246  0.00  0.00    +0.000 A 
ATOM      6  C   UNL     1       2.695   8.551  17.827  0.00  0.00    +0.000 A 
ATOM      7  C   UNL     1       2.770   7.416  18.621  0.00  0.00    +0.000 A 
ATOM      8  C   UNL     1       2.117   7.473  19.850  0.00  0.00    +0.000 A 
ATOM      9  C   UNL     1       1.138   8.509  20.094  0.00  0.00    +0.000 A 
ATOM     10  C   UNL     1       0.905   9.602  19.167  0.00  0.00    +0.000 A 
ENDROOT
BRANCH   1  12
ATOM     11  C   UNL     1      -2.328  11.856  19.624  0.00  0.00    +0.000 A 
ATOM     12  C   UNL     1      -1.420  11.020  18.948  0.00  0.00    +0.000 A 
ATOM     13  C   UNL     1      -1.987  10.345  17.807  0.00  0.00    +0.000 A 
ATOM     14  C   UNL     1      -3.304  10.465  17.371  0.00  0.00    +0.000 A 
ATOM     15  C   UNL     1      -4.172  11.211  18.127  0.00  0.00    +0.000 A 
ATOM     16  C   UNL     1      -3.712  11.892  19.273  0.00  0.00    +0.000 A 
BRANCH  16  17
ATOM     17  C   UNL     1      -4.775  12.677  20.009  0.00  0.00    +0.000 C 
ATOM     18  F   UNL     1      -4.581  14.016  20.079  0.00  0.00    +0.000 F 
ATOM     19  F   UNL     1      -6.015  12.499  19.463  0.00  0.00    +0.000 F 
ATOM     20  F   UNL     1      -4.902  12.255  21.306  0.00  0.00    +0.000 F 
ENDBRANCH  16  17
BRANCH  11  22
ATOM     21  C   UNL     1      -1.656  12.072  21.813  0.00  0.00    +0.000 C 
ATOM     22  O   UNL     1      -1.887  12.744  20.567  0.00  0.00    +0.000 OA
ENDBRANCH  11  22
ENDBRANCH   1  12
BRANCH   7  23
ATOM     23  S   UNL     1       3.958   6.158  18.147  0.00  0.00    +0.000 S 
ATOM     24  O   UNL     1       4.862   6.787  17.224  0.00  0.00    +0.000 OA
ATOM     25  O   UNL     1       4.440   5.554  19.352  0.00  0.00    +0.000 OA
BRANCH  23  26
ATOM     26  N   UNL     1       3.111   5.002  17.289  0.00  0.00    +0.000 N 
ATOM     27  C   UNL     1       2.591   3.913  18.006  0.00  0.00    +0.000 A 
ATOM     28  C   UNL     1       1.381   3.954  18.665  0.00  0.00    +0.000 A 
ATOM     29  C   UNL     1       1.043   2.789  19.308  0.00  0.00    +0.000 A 
ATOM     30  N   UNL     1       1.832   1.693  19.324  0.00  0.00    +0.000 NA
ATOM     31  C   UNL     1       2.989   1.788  18.660  0.00  0.00    +0.000 A 
ATOM     32  N   UNL     1       3.408   2.853  17.983  0.00  0.00    +0.000 NA
ATOM     33  H   UNL     1       3.653   4.712  16.483  0.00  0.00    +0.000 HD
ENDBRANCH  23  26
ENDBRANCH   7  23
TORSDOF 5
ENDMDL
MODEL 9
REMARK VINA RESULT:      -8.0      2.619      3.526
REMARK  Name = 
REMARK  6 active torsions:
REMARK  status: ('A' for Active; 'I' for Inactive)
REMARK    1  A    between atoms: C_1  and  O_2
REMARK    2  A    between atoms: O_2  and  C_3
REMARK    3  A    between atoms: C_4  and  C_5
REMARK    4  A    between atoms: C_11  and  S_12
REMARK    5  A    between atoms: S_12  and  N_15
REMARK    6  A    between atoms: C_28  and  C_29
REMARK                            x       y       z     vdW  Elec       q    Type
REMARK                         _______ _______ _______ _____ _____    ______ ____
ROOT
ATOM      1  C   UNL     1      -0.020  11.349  19.676  0.00  0.00    +0.000 A 
ATOM      2  N   UNL     1       0.547  12.462  19.140  0.00  0.00    +0.000 NA
ATOM      3  C   UNL     1       1.607  12.345  18.328  0.00  0.00    +0.000 A 
ATOM      4  C   UNL     1       2.230  11.168  18.136  0.00  0.00    +0.000 A 
ATOM      5  C   UNL     1       1.607  10.019  18.552  0.00  0.00    +0.000 A 
ATOM      6  C   UNL     1       2.221   8.886  18.058  0.00  0.00    +0.000 A 
ATOM      7  C   UNL     1       2.316   7.753  18.854  0.00  0.00    +0.000 A 
ATOM      8  C   UNL     1       1.829   7.865  20.154  0.00  0.00    +0.000 A 
ATOM      9  C   UNL     1       0.964   8.971  20.503  0.00  0.00    +0.000 A 
ATOM     10  C   UNL     1       0.694  10.072  19.596  0.00  0.00    +0.000 A 
ENDROOT
BRANCH   1  12
ATOM     11  C   UNL     1      -2.333  12.338  20.581  0.00  0.00    +0.000 A 
ATOM     12  C   UNL     1      -1.533  11.653  19.649  0.00  0.00    +0.000 A 
ATOM     13  C   UNL     1      -2.227  11.295  18.437  0.00  0.00    +0.000 A 
ATOM     14  C   UNL     1      -3.564  11.569  18.162  0.00  0.00    +0.000 A 
ATOM     15  C   UNL     1      -4.324  12.147  19.146  0.00  0.00    +0.000 A 
ATOM     16  C   UNL     1      -3.736  12.514  20.374  0.00  0.00    +0.000 A 
BRANCH  16  17
ATOM     17  C   UNL     1      -4.689  13.142  21.367  0.00  0.00    +0.000 C 
ATOM     18  F   UNL     1      -4.724  12.573  22.596  0.00  0.00    +0.000 F 
ATOM     19  F   UNL     1      -4.423  14.467  21.567  0.00  0.00    +0.000 F 
ATOM     20  F   UNL     1      -5.980  13.111  20.911  0.00  0.00    +0.000 F 
ENDBRANCH  16  17
BRANCH  11  22
ATOM     21  C   UNL     1      -1.495  11.999  22.696  0.00  0.00    +0.000 C 
ATOM     22  O   UNL     1      -1.768  12.955  21.664  0.00  0.00    +0.000 OA
ENDBRANCH  11  22
ENDBRANCH   1  12
BRANCH   7  23
ATOM     23  S   UNL     1       3.341   6.409  18.253  0.00  0.00    +0.000 S 
ATOM     24  O   UNL     1       3.941   6.876  17.034  0.00  0.00    +0.000 OA
ATOM     25  O   UNL     1       4.152   5.971  19.349  0.00  0.00    +0.000 OA
BRANCH  23  26
ATOM     26  N   UNL     1       2.306   5.165  17.843  0.00  0.00    +0.000 N 
ATOM     27  C   UNL     1       2.085   4.162  18.800  0.00  0.00    +0.000 A 
ATOM     28  C   UNL     1       1.152   4.276  19.808  0.00  0.00    +0.000 A 
ATOM     29  C   UNL     1       1.082   3.188  20.643  0.00  0.00    +0.000 A 
ATOM     30  N   UNL     1       1.873   2.101  20.517  0.00  0.00    +0.000 NA
ATOM     31  C   UNL     1       2.749   2.123  19.507  0.00  0.00    +0.000 A 
ATOM     32  N   UNL     1       2.889   3.106  18.624  0.00  0.00    +0.000 NA
ATOM     33  H   UNL     1       2.569   4.789  16.940  0.00  0.00    +0.000 HD
ENDBRANCH  23  26
ENDBRANCH   7  23
TORSDOF 5
ENDMDL
