MODEL 1
REMARK VINA RESULT:      -7.7      0.000      0.000
REMARK  Name = 
REMARK  4 active torsions:
REMARK  status: ('A' for Active; 'I' for Inactive)
REMARK    1  A    between atoms: C_1  and  N_2
REMARK    2  A    between atoms: C_4  and  N_5
REMARK    3  A    between atoms: N_15  and  C_16
REMARK    4  A    between atoms: C_18  and  C_19
REMARK                            x       y       z     vdW  Elec       q    Type
REMARK                         _______ _______ _______ _____ _____    ______ ____
ROOT
ATOM      1  C   UNL     1       0.512   1.961  18.745  0.00  0.00    +0.000 C 
ATOM      2  N   UNL     1       1.406   3.041  19.162  0.00  0.00    +0.000 NA
ATOM      3  C   UNL     1       0.757   3.985  20.107  0.00  0.00    +0.000 C 
ATOM      4  C   UNL     1       1.679   5.065  20.772  0.00  0.00    +0.000 C 
ATOM      5  C   UNL     1       3.023   4.448  21.169  0.00  0.00    +0.000 C 
ATOM      6  C   UNL     1       3.632   3.544  20.079  0.00  0.00    +0.000 C 
ATOM      7  C   UNL     1       2.630   2.454  19.712  0.00  0.00    +0.000 C 
ENDROOT
BRANCH   4   8
ATOM      8  N   UNL     1       1.852   6.263  19.932  0.00  0.00    +0.000 N 
ATOM      9  C   UNL     1       1.443   7.548  20.286  0.00  0.00    +0.000 A 
ATOM     10  N   UNL     1       0.806   7.723  21.424  0.00  0.00    +0.000 NA
ATOM     11  C   UNL     1       0.371   9.023  21.681  0.00  0.00    +0.000 A 
ATOM     12  C   UNL     1      -0.456   9.473  22.726  0.00  0.00    +0.000 A 
ATOM     13  C   UNL     1      -0.676  10.823  22.500  0.00  0.00    +0.000 A 
ATOM     14  N   UNL     1       0.038  11.189  21.382  0.00  0.00    +0.000 N 
ATOM     15  C   UNL     1       0.648  10.078  20.870  0.00  0.00    +0.000 A 
ATOM     16  C   UNL     1       1.403   9.958  19.676  0.00  0.00    +0.000 A 
ATOM     17  O   UNL     1       1.707  10.924  18.981  0.00  0.00    +0.000 OA
ATOM     18  N   UNL     1       1.717   8.618  19.392  0.00  0.00    +0.000 N 
ATOM     19  C   UNL     1       2.308   8.388  18.089  0.00  0.00    +0.000 C 
ATOM     20  H   UNL     1       2.499   6.138  19.165  0.00  0.00    +0.000 HD
ATOM     21  H   UNL     1       0.068  12.111  20.963  0.00  0.00    +0.000 HD
ENDBRANCH   4   8
BRANCH   6  22
ATOM     22  C   UNL     1       4.247   4.273  18.893  0.00  0.00    +0.000 A 
ATOM     23  C   UNL     1       4.021   3.975  17.537  0.00  0.00    +0.000 A 
ATOM     24  C   UNL     1       4.782   4.597  16.532  0.00  0.00    +0.000 A 
ATOM     25  C   UNL     1       5.813   5.463  16.878  0.00  0.00    +0.000 A 
ATOM     26  C   UNL     1       6.066   5.704  18.219  0.00  0.00    +0.000 A 
ATOM     27  C   UNL     1       5.244   5.192  19.206  0.00  0.00    +0.000 A 
ATOM     28  O   UNL     1       7.177   6.345  18.673  0.00  0.00    +0.000 OA
ATOM     29  C   UNL     1       7.579   7.338  17.755  0.00  0.00    +0.000 C 
ATOM     30  C   UNL     1       7.592   6.884  16.298  0.00  0.00    +0.000 C 
ATOM     31  O   UNL     1       6.537   6.018  15.868  0.00  0.00    +0.000 OA
ENDBRANCH   6  22
TORSDOF 2
ENDMDL
MODEL 2
REMARK VINA RESULT:      -7.3      8.407     11.671
REMARK  Name = 
REMARK  4 active torsions:
REMARK  status: ('A' for Active; 'I' for Inactive)
REMARK    1  A    between atoms: C_1  and  N_2
REMARK    2  A    between atoms: C_4  and  N_5
REMARK    3  A    between atoms: N_15  and  C_16
REMARK    4  A    between atoms: C_18  and  C_19
REMARK                            x       y       z     vdW  Elec       q    Type
REMARK                         _______ _______ _______ _____ _____    ______ ____
ROOT
ATOM      1  C   UNL     1       0.496  15.628  20.882  0.00  0.00    +0.000 C 
ATOM      2  N   UNL     1      -0.513  14.621  21.210  0.00  0.00    +0.000 NA
ATOM      3  C   UNL     1      -0.485  13.463  20.281  0.00  0.00    +0.000 C 
ATOM      4  C   UNL     1      -1.386  12.235  20.654  0.00  0.00    +0.000 C 
ATOM      5  C   UNL     1      -1.317  11.961  22.159  0.00  0.00    +0.000 C 
ATOM      6  C   UNL     1      -1.428  13.233  23.023  0.00  0.00    +0.000 C 
ATOM      7  C   UNL     1      -0.340  14.219  22.608  0.00  0.00    +0.000 C 
ENDROOT
BRANCH   4   8
ATOM      8  N   UNL     1      -2.775  12.383  20.186  0.00  0.00    +0.000 N 
ATOM      9  C   UNL     1      -3.261  11.897  18.973  0.00  0.00    +0.000 A 
ATOM     10  N   UNL     1      -2.428  11.308  18.143  0.00  0.00    +0.000 NA
ATOM     11  C   UNL     1      -2.971  10.906  16.923  0.00  0.00    +0.000 A 
ATOM     12  C   UNL     1      -2.300  10.397  15.797  0.00  0.00    +0.000 A 
ATOM     13  C   UNL     1      -3.258  10.234  14.808  0.00  0.00    +0.000 A 
ATOM     14  N   UNL     1      -4.479  10.584  15.337  0.00  0.00    +0.000 N 
ATOM     15  C   UNL     1      -4.291  11.024  16.618  0.00  0.00    +0.000 A 
ATOM     16  C   UNL     1      -5.245  11.575  17.509  0.00  0.00    +0.000 A 
ATOM     17  O   UNL     1      -6.446  11.619  17.255  0.00  0.00    +0.000 OA
ATOM     18  N   UNL     1      -4.639  12.076  18.674  0.00  0.00    +0.000 N 
ATOM     19  C   UNL     1      -5.514  12.838  19.543  0.00  0.00    +0.000 C 
ATOM     20  H   UNL     1      -3.425  12.666  20.908  0.00  0.00    +0.000 HD
ATOM     21  H   UNL     1      -5.368  10.579  14.851  0.00  0.00    +0.000 HD
ENDBRANCH   4   8
BRANCH   6  22
ATOM     22  C   UNL     1      -2.823  13.830  23.133  0.00  0.00    +0.000 A 
ATOM     23  C   UNL     1      -3.127  15.200  23.237  0.00  0.00    +0.000 A 
ATOM     24  C   UNL     1      -4.438  15.623  23.514  0.00  0.00    +0.000 A 
ATOM     25  C   UNL     1      -5.434  14.683  23.756  0.00  0.00    +0.000 A 
ATOM     26  C   UNL     1      -5.111  13.336  23.709  0.00  0.00    +0.000 A 
ATOM     27  C   UNL     1      -3.854  12.913  23.318  0.00  0.00    +0.000 A 
ATOM     28  O   UNL     1      -5.938  12.347  24.146  0.00  0.00    +0.000 OA
ATOM     29  C   UNL     1      -7.285  12.694  23.906  0.00  0.00    +0.000 C 
ATOM     30  C   UNL     1      -7.649  14.122  24.301  0.00  0.00    +0.000 C 
ATOM     31  O   UNL     1      -6.681  15.144  24.047  0.00  0.00    +0.000 OA
ENDBRANCH   6  22
TORSDOF 2
ENDMDL
MODEL 3
REMARK VINA RESULT:      -7.2      1.144      1.578
REMARK  Name = 
REMARK  4 active torsions:
REMARK  status: ('A' for Active; 'I' for Inactive)
REMARK    1  A    between atoms: C_1  and  N_2
REMARK    2  A    between atoms: C_4  and  N_5
REMARK    3  A    between atoms: N_15  and  C_16
REMARK    4  A    between atoms: C_18  and  C_19
REMARK                            x       y       z     vdW  Elec       q    Type
REMARK                         _______ _______ _______ _____ _____    ______ ____
ROOT
ATOM      1  C   UNL     1       0.717   2.016  18.695  0.00  0.00    +0.000 C 
ATOM      2  N   UNL     1       1.523   3.154  19.140  0.00  0.00    +0.000 NA
ATOM      3  C   UNL     1       0.774   4.065  20.041  0.00  0.00    +0.000 C 
ATOM      4  C   UNL     1       1.596   5.206  20.735  0.00  0.00    +0.000 C 
ATOM      5  C   UNL     1       2.954   4.676  21.203  0.00  0.00    +0.000 C 
ATOM      6  C   UNL     1       3.669   3.801  20.154  0.00  0.00    +0.000 C 
ATOM      7  C   UNL     1       2.753   2.648  19.755  0.00  0.00    +0.000 C 
ENDROOT
BRANCH   4   8
ATOM      8  N   UNL     1       1.735   6.404  19.889  0.00  0.00    +0.000 N 
ATOM      9  C   UNL     1       1.349   7.691  20.263  0.00  0.00    +0.000 A 
ATOM     10  N   UNL     1       0.766   7.867  21.428  0.00  0.00    +0.000 NA
ATOM     11  C   UNL     1       0.349   9.169  21.706  0.00  0.00    +0.000 A 
ATOM     12  C   UNL     1      -0.427   9.622  22.788  0.00  0.00    +0.000 A 
ATOM     13  C   UNL     1      -0.651  10.973  22.574  0.00  0.00    +0.000 A 
ATOM     14  N   UNL     1       0.013  11.337  21.424  0.00  0.00    +0.000 N 
ATOM     15  C   UNL     1       0.593  10.223  20.884  0.00  0.00    +0.000 A 
ATOM     16  C   UNL     1       1.291  10.101  19.656  0.00  0.00    +0.000 A 
ATOM     17  O   UNL     1       1.568  11.067  18.949  0.00  0.00    +0.000 OA
ATOM     18  N   UNL     1       1.586   8.760  19.357  0.00  0.00    +0.000 N 
ATOM     19  C   UNL     1       2.115   8.528  18.028  0.00  0.00    +0.000 C 
ATOM     20  H   UNL     1       2.346   6.277  19.093  0.00  0.00    +0.000 HD
ATOM     21  H   UNL     1       0.027  12.259  21.005  0.00  0.00    +0.000 HD
ENDBRANCH   4   8
BRANCH   6  22
ATOM     22  C   UNL     1       4.294   4.554  18.989  0.00  0.00    +0.000 A 
ATOM     23  C   UNL     1       4.225   5.943  18.775  0.00  0.00    +0.000 A 
ATOM     24  C   UNL     1       4.686   6.505  17.573  0.00  0.00    +0.000 A 
ATOM     25  C   UNL     1       5.152   5.680  16.556  0.00  0.00    +0.000 A 
ATOM     26  C   UNL     1       5.162   4.308  16.754  0.00  0.00    +0.000 A 
ATOM     27  C   UNL     1       4.825   3.760  17.977  0.00  0.00    +0.000 A 
ATOM     28  O   UNL     1       5.379   3.404  15.760  0.00  0.00    +0.000 OA
ATOM     29  C   UNL     1       6.292   3.924  14.818  0.00  0.00    +0.000 C 
ATOM     30  C   UNL     1       6.012   5.362  14.392  0.00  0.00    +0.000 C 
ATOM     31  O   UNL     1       5.562   6.271  15.400  0.00  0.00    +0.000 OA
ENDBRANCH   6  22
TORSDOF 2
ENDMDL
MODEL 4
REMARK VINA RESULT:      -7.1      2.976      6.647
REMARK  Name = 
REMARK  4 active torsions:
REMARK  status: ('A' for Active; 'I' for Inactive)
REMARK    1  A    between atoms: C_1  and  N_2
REMARK    2  A    between atoms: C_4  and  N_5
REMARK    3  A    between atoms: N_15  and  C_16
REMARK    4  A    between atoms: C_18  and  C_19
REMARK                            x       y       z     vdW  Elec       q    Type
REMARK                         _______ _______ _______ _____ _____    ______ ____
ROOT
ATOM      1  C   UNL     1       2.205   1.640  21.905  0.00  0.00    +0.000 C 
ATOM      2  N   UNL     1       2.461   2.484  20.737  0.00  0.00    +0.000 NA
ATOM      3  C   UNL     1       3.497   1.916  19.839  0.00  0.00    +0.000 C 
ATOM      4  C   UNL     1       3.710   2.633  18.461  0.00  0.00    +0.000 C 
ATOM      5  C   UNL     1       2.361   3.031  17.854  0.00  0.00    +0.000 C 
ATOM      6  C   UNL     1       1.395   3.677  18.868  0.00  0.00    +0.000 C 
ATOM      7  C   UNL     1       1.193   2.726  20.044  0.00  0.00    +0.000 C 
ENDROOT
BRANCH   4   8
ATOM      8  N   UNL     1       4.632   3.779  18.550  0.00  0.00    +0.000 N 
ATOM      9  C   UNL     1       5.354   4.303  17.479  0.00  0.00    +0.000 A 
ATOM     10  N   UNL     1       5.265   3.718  16.304  0.00  0.00    +0.000 NA
ATOM     11  C   UNL     1       6.065   4.257  15.297  0.00  0.00    +0.000 A 
ATOM     12  C   UNL     1       6.292   3.756  14.003  0.00  0.00    +0.000 A 
ATOM     13  C   UNL     1       7.229   4.592  13.414  0.00  0.00    +0.000 A 
ATOM     14  N   UNL     1       7.520   5.598  14.307  0.00  0.00    +0.000 N 
ATOM     15  C   UNL     1       6.830   5.369  15.465  0.00  0.00    +0.000 A 
ATOM     16  C   UNL     1       6.896   6.086  16.686  0.00  0.00    +0.000 A 
ATOM     17  O   UNL     1       7.536   7.126  16.813  0.00  0.00    +0.000 OA
ATOM     18  N   UNL     1       6.173   5.442  17.705  0.00  0.00    +0.000 N 
ATOM     19  C   UNL     1       6.355   5.996  19.032  0.00  0.00    +0.000 C 
ATOM     20  H   UNL     1       4.539   4.317  19.401  0.00  0.00    +0.000 HD
ATOM     21  H   UNL     1       8.178   6.355  14.165  0.00  0.00    +0.000 HD
ENDBRANCH   4   8
BRANCH   6  22
ATOM     22  C   UNL     1       1.716   5.113  19.255  0.00  0.00    +0.000 A 
ATOM     23  C   UNL     1       1.698   5.637  20.561  0.00  0.00    +0.000 A 
ATOM     24  C   UNL     1       1.835   7.018  20.778  0.00  0.00    +0.000 A 
ATOM     25  C   UNL     1       1.921   7.886  19.695  0.00  0.00    +0.000 A 
ATOM     26  C   UNL     1       1.878   7.365  18.411  0.00  0.00    +0.000 A 
ATOM     27  C   UNL     1       1.867   6.000  18.193  0.00  0.00    +0.000 A 
ATOM     28  O   UNL     1       1.727   8.126  17.294  0.00  0.00    +0.000 OA
ATOM     29  C   UNL     1       2.367   9.372  17.460  0.00  0.00    +0.000 C 
ATOM     30  C   UNL     1       2.091  10.051  18.798  0.00  0.00    +0.000 C 
ATOM     31  O   UNL     1       2.025   9.218  19.959  0.00  0.00    +0.000 OA
ENDBRANCH   6  22
TORSDOF 2
ENDMDL
MODEL 5
REMARK VINA RESULT:      -6.8      1.172      1.278
REMARK  Name = 
REMARK  4 active torsions:
REMARK  status: ('A' for Active; 'I' for Inactive)
REMARK    1  A    between atoms: C_1  and  N_2
REMARK    2  A    between atoms: C_4  and  N_5
REMARK    3  A    between atoms: N_15  and  C_16
REMARK    4  A    between atoms: C_18  and  C_19
REMARK                            x       y       z     vdW  Elec       q    Type
REMARK                         _______ _______ _______ _____ _____    ______ ____
ROOT
ATOM      1  C   UNL     1       0.358   1.932  19.277  0.00  0.00    +0.000 C 
ATOM      2  N   UNL     1       1.440   2.916  19.344  0.00  0.00    +0.000 NA
ATOM      3  C   UNL     1       1.160   4.003  20.316  0.00  0.00    +0.000 C 
ATOM      4  C   UNL     1       2.332   5.002  20.615  0.00  0.00    +0.000 C 
ATOM      5  C   UNL     1       3.659   4.247  20.732  0.00  0.00    +0.000 C 
ATOM      6  C   UNL     1       3.867   3.193  19.625  0.00  0.00    +0.000 C 
ATOM      7  C   UNL     1       2.695   2.218  19.634  0.00  0.00    +0.000 C 
ENDROOT
BRANCH   4   8
ATOM      8  N   UNL     1       2.409   6.101  19.638  0.00  0.00    +0.000 N 
ATOM      9  C   UNL     1       1.891   7.381  19.838  0.00  0.00    +0.000 A 
ATOM     10  N   UNL     1       1.234   7.635  20.949  0.00  0.00    +0.000 NA
ATOM     11  C   UNL     1       0.690   8.915  21.051  0.00  0.00    +0.000 A 
ATOM     12  C   UNL     1      -0.178   9.416  22.037  0.00  0.00    +0.000 A 
ATOM     13  C   UNL     1      -0.509  10.706  21.653  0.00  0.00    +0.000 A 
ATOM     14  N   UNL     1       0.179  10.995  20.496  0.00  0.00    +0.000 N 
ATOM     15  C   UNL     1       0.883   9.886  20.118  0.00  0.00    +0.000 A 
ATOM     16  C   UNL     1       1.652   9.689  18.944  0.00  0.00    +0.000 A 
ATOM     17  O   UNL     1       1.879  10.587  18.138  0.00  0.00    +0.000 OA
ATOM     18  N   UNL     1       2.080   8.355  18.821  0.00  0.00    +0.000 N 
ATOM     19  C   UNL     1       2.696   8.022  17.552  0.00  0.00    +0.000 C 
ATOM     20  H   UNL     1       3.069   5.940  18.889  0.00  0.00    +0.000 HD
ATOM     21  H   UNL     1       0.133  11.859  19.970  0.00  0.00    +0.000 HD
ENDBRANCH   4   8
BRANCH   6  22
ATOM     22  C   UNL     1       4.230   3.746  18.255  0.00  0.00    +0.000 A 
ATOM     23  C   UNL     1       3.406   3.723  17.114  0.00  0.00    +0.000 A 
ATOM     24  C   UNL     1       3.914   4.100  15.859  0.00  0.00    +0.000 A 
ATOM     25  C   UNL     1       5.257   4.432  15.725  0.00  0.00    +0.000 A 
ATOM     26  C   UNL     1       6.074   4.394  16.844  0.00  0.00    +0.000 A 
ATOM     27  C   UNL     1       5.555   4.144  18.101  0.00  0.00    +0.000 A 
ATOM     28  O   UNL     1       7.431   4.476  16.790  0.00  0.00    +0.000 OA
ATOM     29  C   UNL     1       7.827   5.324  15.733  0.00  0.00    +0.000 C 
ATOM     30  C   UNL     1       7.099   5.075  14.416  0.00  0.00    +0.000 C 
ATOM     31  O   UNL     1       5.705   4.763  14.482  0.00  0.00    +0.000 OA
ENDBRANCH   6  22
TORSDOF 2
ENDMDL
MODEL 6
REMARK VINA RESULT:      -6.8      2.834      6.571
REMARK  Name = 
REMARK  4 active torsions:
REMARK  status: ('A' for Active; 'I' for Inactive)
REMARK    1  A    between atoms: C_1  and  N_2
REMARK    2  A    between atoms: C_4  and  N_5
REMARK    3  A    between atoms: N_15  and  C_16
REMARK    4  A    between atoms: C_18  and  C_19
REMARK                            x       y       z     vdW  Elec       q    Type
REMARK                         _______ _______ _______ _____ _____    ______ ____
ROOT
ATOM      1  C   UNL     1       1.917   2.106  22.042  0.00  0.00    +0.000 C 
ATOM      2  N   UNL     1       2.441   2.623  20.777  0.00  0.00    +0.000 NA
ATOM      3  C   UNL     1       3.730   1.993  20.394  0.00  0.00    +0.000 C 
ATOM      4  C   UNL     1       4.282   2.324  18.965  0.00  0.00    +0.000 C 
ATOM      5  C   UNL     1       3.144   2.327  17.941  0.00  0.00    +0.000 C 
ATOM      6  C   UNL     1       1.883   3.072  18.424  0.00  0.00    +0.000 C 
ATOM      7  C   UNL     1       1.415   2.465  19.743  0.00  0.00    +0.000 C 
ENDROOT
BRANCH   4   8
ATOM      8  N   UNL     1       5.057   3.576  18.928  0.00  0.00    +0.000 N 
ATOM      9  C   UNL     1       5.606   4.138  17.775  0.00  0.00    +0.000 A 
ATOM     10  N   UNL     1       5.483   3.497  16.634  0.00  0.00    +0.000 NA
ATOM     11  C   UNL     1       6.112   4.086  15.537  0.00  0.00    +0.000 A 
ATOM     12  C   UNL     1       6.280   3.561  14.243  0.00  0.00    +0.000 A 
ATOM     13  C   UNL     1       7.045   4.479  13.541  0.00  0.00    +0.000 A 
ATOM     14  N   UNL     1       7.289   5.551  14.369  0.00  0.00    +0.000 N 
ATOM     15  C   UNL     1       6.744   5.289  15.595  0.00  0.00    +0.000 A 
ATOM     16  C   UNL     1       6.831   6.060  16.781  0.00  0.00    +0.000 A 
ATOM     17  O   UNL     1       7.344   7.175  16.814  0.00  0.00    +0.000 OA
ATOM     18  N   UNL     1       6.292   5.378  17.886  0.00  0.00    +0.000 N 
ATOM     19  C   UNL     1       6.525   6.007  19.171  0.00  0.00    +0.000 C 
ATOM     20  H   UNL     1       4.977   4.135  19.767  0.00  0.00    +0.000 HD
ATOM     21  H   UNL     1       7.831   6.375  14.140  0.00  0.00    +0.000 HD
ENDBRANCH   4   8
BRANCH   6  22
ATOM     22  C   UNL     1       1.977   4.590  18.416  0.00  0.00    +0.000 A 
ATOM     23  C   UNL     1       2.726   5.364  17.510  0.00  0.00    +0.000 A 
ATOM     24  C   UNL     1       2.882   6.746  17.709  0.00  0.00    +0.000 A 
ATOM     25  C   UNL     1       2.351   7.348  18.844  0.00  0.00    +0.000 A 
ATOM     26  C   UNL     1       1.665   6.566  19.760  0.00  0.00    +0.000 A 
ATOM     27  C   UNL     1       1.404   5.232  19.510  0.00  0.00    +0.000 A 
ATOM     28  O   UNL     1       1.306   6.998  21.000  0.00  0.00    +0.000 OA
ATOM     29  C   UNL     1       0.992   8.374  20.967  0.00  0.00    +0.000 C 
ATOM     30  C   UNL     1       1.995   9.232  20.202  0.00  0.00    +0.000 C 
ATOM     31  O   UNL     1       2.553   8.685  19.004  0.00  0.00    +0.000 OA
ENDBRANCH   6  22
TORSDOF 2
ENDMDL
MODEL 7
REMARK VINA RESULT:      -6.7      6.969      9.994
REMARK  Name = 
REMARK  4 active torsions:
REMARK  status: ('A' for Active; 'I' for Inactive)
REMARK    1  A    between atoms: C_1  and  N_2
REMARK    2  A    between atoms: C_4  and  N_5
REMARK    3  A    between atoms: N_15  and  C_16
REMARK    4  A    between atoms: C_18  and  C_19
REMARK                            x       y       z     vdW  Elec       q    Type
REMARK                         _______ _______ _______ _____ _____    ______ ____
ROOT
ATOM      1  C   UNL     1       2.490  13.132  18.874  0.00  0.00    +0.000 C 
ATOM      2  N   UNL     1       1.338  12.491  19.510  0.00  0.00    +0.000 NA
ATOM      3  C   UNL     1       0.789  11.375  18.699  0.00  0.00    +0.000 C 
ATOM      4  C   UNL     1      -0.318  10.491  19.371  0.00  0.00    +0.000 C 
ATOM      5  C   UNL     1       0.033  10.219  20.836  0.00  0.00    +0.000 C 
ATOM      6  C   UNL     1       0.525  11.470  21.594  0.00  0.00    +0.000 C 
ATOM      7  C   UNL     1       1.721  12.065  20.858  0.00  0.00    +0.000 C 
ENDROOT
BRANCH   4   8
ATOM      8  N   UNL     1      -1.669  11.060  19.227  0.00  0.00    +0.000 N 
ATOM      9  C   UNL     1      -2.473  10.922  18.096  0.00  0.00    +0.000 A 
ATOM     10  N   UNL     1      -1.994  10.288  17.047  0.00  0.00    +0.000 NA
ATOM     11  C   UNL     1      -2.830  10.246  15.931  0.00  0.00    +0.000 A 
ATOM     12  C   UNL     1      -2.532   9.779  14.638  0.00  0.00    +0.000 A 
ATOM     13  C   UNL     1      -3.653  10.030  13.862  0.00  0.00    +0.000 A 
ATOM     14  N   UNL     1      -4.617  10.583  14.673  0.00  0.00    +0.000 N 
ATOM     15  C   UNL     1      -4.096  10.742  15.927  0.00  0.00    +0.000 A 
ATOM     16  C   UNL     1      -4.689  11.358  17.056  0.00  0.00    +0.000 A 
ATOM     17  O   UNL     1      -5.855  11.745  17.068  0.00  0.00    +0.000 OA
ATOM     18  N   UNL     1      -3.776  11.489  18.117  0.00  0.00    +0.000 N 
ATOM     19  C   UNL     1      -4.239  12.290  19.232  0.00  0.00    +0.000 C 
ATOM     20  H   UNL     1      -2.079  11.373  20.097  0.00  0.00    +0.000 HD
ATOM     21  H   UNL     1      -5.542  10.884  14.387  0.00  0.00    +0.000 HD
ENDBRANCH   4   8
BRANCH   6  22
ATOM     22  C   UNL     1      -0.556  12.471  21.974  0.00  0.00    +0.000 A 
ATOM     23  C   UNL     1      -0.396  13.868  22.043  0.00  0.00    +0.000 A 
ATOM     24  C   UNL     1      -1.411  14.677  22.579  0.00  0.00    +0.000 A 
ATOM     25  C   UNL     1      -2.557  14.094  23.108  0.00  0.00    +0.000 A 
ATOM     26  C   UNL     1      -2.679  12.714  23.089  0.00  0.00    +0.000 A 
ATOM     27  C   UNL     1      -1.741  11.921  22.454  0.00  0.00    +0.000 A 
ATOM     28  O   UNL     1      -3.637  12.032  23.774  0.00  0.00    +0.000 OA
ATOM     29  C   UNL     1      -4.832  12.782  23.821  0.00  0.00    +0.000 C 
ATOM     30  C   UNL     1      -4.641  14.252  24.183  0.00  0.00    +0.000 C 
ATOM     31  O   UNL     1      -3.499  14.921  23.641  0.00  0.00    +0.000 OA
ENDBRANCH   6  22
TORSDOF 2
ENDMDL
MODEL 8
REMARK VINA RESULT:      -6.5      5.978     11.729
REMARK  Name = 
REMARK  4 active torsions:
REMARK  status: ('A' for Active; 'I' for Inactive)
REMARK    1  A    between atoms: C_1  and  N_2
REMARK    2  A    between atoms: C_4  and  N_5
REMARK    3  A    between atoms: N_15  and  C_16
REMARK    4  A    between atoms: C_18  and  C_19
REMARK                            x       y       z     vdW  Elec       q    Type
REMARK                         _______ _______ _______ _____ _____    ______ ____
ROOT
ATOM      1  C   UNL     1      -4.550  17.099  24.768  0.00  0.00    +0.000 C 
ATOM      2  N   UNL     1      -4.623  15.835  24.035  0.00  0.00    +0.000 NA
ATOM      3  C   UNL     1      -3.563  14.879  24.443  0.00  0.00    +0.000 C 
ATOM      4  C   UNL     1      -3.664  13.423  23.869  0.00  0.00    +0.000 C 
ATOM      5  C   UNL     1      -5.118  12.945  23.883  0.00  0.00    +0.000 C 
ATOM      6  C   UNL     1      -6.119  14.000  23.371  0.00  0.00    +0.000 C 
ATOM      7  C   UNL     1      -5.968  15.276  24.192  0.00  0.00    +0.000 C 
ENDROOT
BRANCH   4   8
ATOM      8  N   UNL     1      -3.056  13.293  22.533  0.00  0.00    +0.000 N 
ATOM      9  C   UNL     1      -2.140  12.307  22.170  0.00  0.00    +0.000 A 
ATOM     10  N   UNL     1      -1.730  11.451  23.080  0.00  0.00    +0.000 NA
ATOM     11  C   UNL     1      -0.766  10.535  22.661  0.00  0.00    +0.000 A 
ATOM     12  C   UNL     1      -0.042   9.615  23.440  0.00  0.00    +0.000 A 
ATOM     13  C   UNL     1       0.858   8.996  22.585  0.00  0.00    +0.000 A 
ATOM     14  N   UNL     1       0.647   9.490  21.318  0.00  0.00    +0.000 N 
ATOM     15  C   UNL     1      -0.323  10.451  21.378  0.00  0.00    +0.000 A 
ATOM     16  C   UNL     1      -0.794  11.294  20.340  0.00  0.00    +0.000 A 
ATOM     17  O   UNL     1      -0.440  11.171  19.171  0.00  0.00    +0.000 OA
ATOM     18  N   UNL     1      -1.671  12.278  20.828  0.00  0.00    +0.000 N 
ATOM     19  C   UNL     1      -2.037  13.304  19.872  0.00  0.00    +0.000 C 
ATOM     20  H   UNL     1      -3.520  13.834  21.815  0.00  0.00    +0.000 HD
ATOM     21  H   UNL     1       1.160   9.235  20.482  0.00  0.00    +0.000 HD
ENDBRANCH   4   8
BRANCH   6  22
ATOM     22  C   UNL     1      -6.138  14.207  21.864  0.00  0.00    +0.000 A 
ATOM     23  C   UNL     1      -6.154  15.450  21.204  0.00  0.00    +0.000 A 
ATOM     24  C   UNL     1      -6.352  15.519  19.815  0.00  0.00    +0.000 A 
ATOM     25  C   UNL     1      -6.601  14.358  19.091  0.00  0.00    +0.000 A 
ATOM     26  C   UNL     1      -6.641  13.145  19.760  0.00  0.00    +0.000 A 
ATOM     27  C   UNL     1      -6.327  13.057  21.103  0.00  0.00    +0.000 A 
ATOM     28  O   UNL     1      -7.096  11.990  19.200  0.00  0.00    +0.000 OA
ATOM     29  C   UNL     1      -6.780  11.956  17.825  0.00  0.00    +0.000 C 
ATOM     30  C   UNL     1      -7.082  13.250  17.075  0.00  0.00    +0.000 C 
ATOM     31  O   UNL     1      -6.814  14.482  17.752  0.00  0.00    +0.000 OA
ENDBRANCH   6  22
TORSDOF 2
ENDMDL
MODEL 9
REMARK VINA RESULT:      -6.4      5.610      9.827
REMARK  Name = 
REMARK  4 active torsions:
REMARK  status: ('A' for Active; 'I' for Inactive)
REMARK    1  A    between atoms: C_1  and  N_2
REMARK    2  A    between atoms: C_4  and  N_5
REMARK    3  A    between atoms: N_15  and  C_16
REMARK    4  A    between atoms: C_18  and  C_19
REMARK                            x       y       z     vdW  Elec       q    Type
REMARK                         _______ _______ _______ _____ _____    ______ ____
ROOT
ATOM      1  C   UNL     1      -5.624  16.653  21.052  0.00  0.00    +0.000 C 
ATOM      2  N   UNL     1      -5.026  15.325  20.908  0.00  0.00    +0.000 NA
ATOM      3  C   UNL     1      -3.875  15.117  21.821  0.00  0.00    +0.000 C 
ATOM      4  C   UNL     1      -3.283  13.666  21.894  0.00  0.00    +0.000 C 
ATOM      5  C   UNL     1      -4.411  12.630  21.900  0.00  0.00    +0.000 C 
ATOM      6  C   UNL     1      -5.513  12.914  20.860  0.00  0.00    +0.000 C 
ATOM      7  C   UNL     1      -6.072  14.315  21.090  0.00  0.00    +0.000 C 
ENDROOT
BRANCH   4   8
ATOM      8  N   UNL     1      -2.296  13.398  20.834  0.00  0.00    +0.000 N 
ATOM      9  C   UNL     1      -1.380  12.346  20.849  0.00  0.00    +0.000 A 
ATOM     10  N   UNL     1      -1.337  11.554  21.898  0.00  0.00    +0.000 NA
ATOM     11  C   UNL     1      -0.353  10.566  21.870  0.00  0.00    +0.000 A 
ATOM     12  C   UNL     1       0.026   9.685  22.899  0.00  0.00    +0.000 A 
ATOM     13  C   UNL     1       1.105   8.959  22.419  0.00  0.00    +0.000 A 
ATOM     14  N   UNL     1       1.338   9.352  21.120  0.00  0.00    +0.000 N 
ATOM     15  C   UNL     1       0.465  10.355  20.804  0.00  0.00    +0.000 A 
ATOM     16  C   UNL     1       0.402  11.127  19.616  0.00  0.00    +0.000 A 
ATOM     17  O   UNL     1       1.097  10.891  18.632  0.00  0.00    +0.000 OA
ATOM     18  N   UNL     1      -0.516  12.185  19.732  0.00  0.00    +0.000 N 
ATOM     19  C   UNL     1      -0.493  13.141  18.643  0.00  0.00    +0.000 C 
ATOM     20  H   UNL     1      -2.473  13.895  19.972  0.00  0.00    +0.000 HD
ATOM     21  H   UNL     1       2.069   9.006  20.510  0.00  0.00    +0.000 HD
ENDBRANCH   4   8
BRANCH   6  22
ATOM     22  C   UNL     1      -5.148  12.600  19.417  0.00  0.00    +0.000 A 
ATOM     23  C   UNL     1      -5.894  12.965  18.281  0.00  0.00    +0.000 A 
ATOM     24  C   UNL     1      -5.554  12.467  17.012  0.00  0.00    +0.000 A 
ATOM     25  C   UNL     1      -4.516  11.551  16.881  0.00  0.00    +0.000 A 
ATOM     26  C   UNL     1      -3.825  11.152  18.015  0.00  0.00    +0.000 A 
ATOM     27  C   UNL     1      -4.075  11.731  19.245  0.00  0.00    +0.000 A 
ATOM     28  O   UNL     1      -2.955  10.106  18.039  0.00  0.00    +0.000 OA
ATOM     29  C   UNL     1      -2.278  10.006  16.805  0.00  0.00    +0.000 C 
ATOM     30  C   UNL     1      -3.177  10.126  15.578  0.00  0.00    +0.000 C 
ATOM     31  O   UNL     1      -4.244  11.077  15.635  0.00  0.00    +0.000 OA
ENDBRANCH   6  22
TORSDOF 2
ENDMDL
