MODEL 1
REMARK VINA RESULT:      -7.6      0.000      0.000
REMARK  Name = 
REMARK  5 active torsions:
REMARK  status: ('A' for Active; 'I' for Inactive)
REMARK    1  A    between atoms: C_2  and  C_3
REMARK    2  A    between atoms: C_3  and  S_4
REMARK    3  A    between atoms: S_4  and  C_5
REMARK    4  A    between atoms: N_16  and  C_17
REMARK    5  A    between atoms: C_17  and  C_18
REMARK                            x       y       z     vdW  Elec       q    Type
REMARK                         _______ _______ _______ _____ _____    ______ ____
ROOT
ATOM      1  C   UNL     1       3.065   2.523  20.993  0.00  0.00    +0.000 C 
ENDROOT
BRANCH   1   3
ATOM      2  O   UNL     1       0.805   3.374  20.940  0.00  0.00    +0.000 OA
ATOM      3  C   UNL     1       2.011   3.615  20.975  0.00  0.00    +0.000 C 
ATOM      4  N   UNL     1       2.512   4.897  21.044  0.00  0.00    +0.000 N 
ATOM      5  H   UNL     1       3.472   5.047  20.753  0.00  0.00    +0.000 HD
BRANCH   4   6
ATOM      6  C   UNL     1       1.623   6.036  20.981  0.00  0.00    +0.000 C 
BRANCH   6   7
ATOM      7  C   UNL     1       1.990   6.957  19.848  0.00  0.00    +0.000 A 
ATOM      8  C   UNL     1       2.842   6.474  18.837  0.00  0.00    +0.000 A 
ATOM      9  C   UNL     1       3.220   7.285  17.766  0.00  0.00    +0.000 A 
ATOM     10  C   UNL     1       2.740   8.589  17.678  0.00  0.00    +0.000 A 
ATOM     11  C   UNL     1       1.881   9.078  18.660  0.00  0.00    +0.000 A 
ATOM     12  C   UNL     1       1.505   8.269  19.738  0.00  0.00    +0.000 A 
ATOM     13 CL   UNL     1       0.433   8.945  20.910  0.00  0.00    +0.000 Cl
ENDBRANCH   6   7
ENDBRANCH   4   6
ENDBRANCH   1   3
BRANCH   1  14
ATOM     14  S   UNL     1       3.379   1.894  19.330  0.00  0.00    +0.000 S 
BRANCH  14  15
ATOM     15  C   UNL     1       4.415   3.150  18.685  0.00  0.00    +0.000 A 
ATOM     16  N   UNL     1       5.212   3.784  19.467  0.00  0.00    +0.000 NA
ATOM     17  C   UNL     1       6.090   4.680  18.922  0.00  0.00    +0.000 A 
ATOM     18  O   UNL     1       6.827   5.331  19.663  0.00  0.00    +0.000 OA
ATOM     19  N   UNL     1       6.136   4.812  17.543  0.00  0.00    +0.000 N 
ATOM     20  C   UNL     1       7.091   5.612  16.927  0.00  0.00    +0.000 A 
ATOM     21  C   UNL     1       7.134   5.748  15.595  0.00  0.00    +0.000 A 
ATOM     22  C   UNL     1       6.149   5.089  14.777  0.00  0.00    +0.000 A 
ATOM     23  C   UNL     1       5.208   4.320  15.336  0.00  0.00    +0.000 A 
ATOM     24  C   UNL     1       5.203   4.125  16.812  0.00  0.00    +0.000 A 
ATOM     25  N   UNL     1       4.345   3.327  17.343  0.00  0.00    +0.000 NA
ENDBRANCH  14  15
ENDBRANCH   1  14
TORSDOF 5
ENDMDL
MODEL 2
REMARK VINA RESULT:      -7.6      1.402      2.126
REMARK  Name = 
REMARK  5 active torsions:
REMARK  status: ('A' for Active; 'I' for Inactive)
REMARK    1  A    between atoms: C_2  and  C_3
REMARK    2  A    between atoms: C_3  and  S_4
REMARK    3  A    between atoms: S_4  and  C_5
REMARK    4  A    between atoms: N_16  and  C_17
REMARK    5  A    between atoms: C_17  and  C_18
REMARK                            x       y       z     vdW  Elec       q    Type
REMARK                         _______ _______ _______ _____ _____    ______ ____
ROOT
ATOM      1  C   UNL     1       2.331   2.592  19.210  0.00  0.00    +0.000 C 
ENDROOT
BRANCH   1   3
ATOM      2  O   UNL     1       0.609   3.720  20.474  0.00  0.00    +0.000 OA
ATOM      3  C   UNL     1       1.733   3.758  19.977  0.00  0.00    +0.000 C 
ATOM      4  N   UNL     1       2.568   4.847  20.106  0.00  0.00    +0.000 N 
ATOM      5  H   UNL     1       3.319   4.952  19.432  0.00  0.00    +0.000 HD
BRANCH   4   6
ATOM      6  C   UNL     1       2.108   6.049  20.765  0.00  0.00    +0.000 C 
BRANCH   6   7
ATOM      7  C   UNL     1       2.052   7.212  19.811  0.00  0.00    +0.000 A 
ATOM      8  C   UNL     1       2.733   7.108  18.583  0.00  0.00    +0.000 A 
ATOM      9  C   UNL     1       2.719   8.156  17.662  0.00  0.00    +0.000 A 
ATOM     10  C   UNL     1       2.012   9.322  17.945  0.00  0.00    +0.000 A 
ATOM     11  C   UNL     1       1.318   9.435  19.148  0.00  0.00    +0.000 A 
ATOM     12  C   UNL     1       1.334   8.388  20.076  0.00  0.00    +0.000 A 
ATOM     13 CL   UNL     1       0.444   8.601  21.539  0.00  0.00    +0.000 Cl
ENDBRANCH   6   7
ENDBRANCH   4   6
ENDBRANCH   1   3
BRANCH   1  14
ATOM     14  S   UNL     1       4.048   2.307  19.693  0.00  0.00    +0.000 S 
BRANCH  14  15
ATOM     15  C   UNL     1       4.877   3.489  18.700  0.00  0.00    +0.000 A 
ATOM     16  N   UNL     1       4.442   3.748  17.520  0.00  0.00    +0.000 NA
ATOM     17  C   UNL     1       5.036   4.753  16.809  0.00  0.00    +0.000 A 
ATOM     18  O   UNL     1       4.663   4.982  15.658  0.00  0.00    +0.000 OA
ATOM     19  N   UNL     1       6.032   5.500  17.418  0.00  0.00    +0.000 N 
ATOM     20  C   UNL     1       6.585   6.612  16.791  0.00  0.00    +0.000 A 
ATOM     21  C   UNL     1       7.552   7.332  17.374  0.00  0.00    +0.000 A 
ATOM     22  C   UNL     1       8.069   6.931  18.658  0.00  0.00    +0.000 A 
ATOM     23  C   UNL     1       7.569   5.860  19.284  0.00  0.00    +0.000 A 
ATOM     24  C   UNL     1       6.452   5.100  18.659  0.00  0.00    +0.000 A 
ATOM     25  N   UNL     1       5.921   4.116  19.295  0.00  0.00    +0.000 NA
ENDBRANCH  14  15
ENDBRANCH   1  14
TORSDOF 5
ENDMDL
MODEL 3
REMARK VINA RESULT:      -7.4      1.798      2.779
REMARK  Name = 
REMARK  5 active torsions:
REMARK  status: ('A' for Active; 'I' for Inactive)
REMARK    1  A    between atoms: C_2  and  C_3
REMARK    2  A    between atoms: C_3  and  S_4
REMARK    3  A    between atoms: S_4  and  C_5
REMARK    4  A    between atoms: N_16  and  C_17
REMARK    5  A    between atoms: C_17  and  C_18
REMARK                            x       y       z     vdW  Elec       q    Type
REMARK                         _______ _______ _______ _____ _____    ______ ____
ROOT
ATOM      1  C   UNL     1       2.739   3.656  20.918  0.00  0.00    +0.000 C 
ENDROOT
BRANCH   1   3
ATOM      2  O   UNL     1       1.359   4.503  19.125  0.00  0.00    +0.000 OA
ATOM      3  C   UNL     1       2.247   4.716  19.949  0.00  0.00    +0.000 C 
ATOM      4  N   UNL     1       2.847   5.948  20.094  0.00  0.00    +0.000 N 
ATOM      5  H   UNL     1       3.758   5.982  20.540  0.00  0.00    +0.000 HD
BRANCH   4   6
ATOM      6  C   UNL     1       2.514   7.036  19.201  0.00  0.00    +0.000 C 
BRANCH   6   7
ATOM      7  C   UNL     1       1.715   8.100  19.904  0.00  0.00    +0.000 A 
ATOM      8  C   UNL     1       1.327   7.877  21.240  0.00  0.00    +0.000 A 
ATOM      9  C   UNL     1       0.582   8.827  21.940  0.00  0.00    +0.000 A 
ATOM     10  C   UNL     1       0.224  10.023  21.323  0.00  0.00    +0.000 A 
ATOM     11  C   UNL     1       0.615  10.268  20.008  0.00  0.00    +0.000 A 
ATOM     12  C   UNL     1       1.358   9.315  19.302  0.00  0.00    +0.000 A 
ATOM     13 CL   UNL     1       1.810   9.695  17.680  0.00  0.00    +0.000 Cl
ENDBRANCH   6   7
ENDBRANCH   4   6
ENDBRANCH   1   3
BRANCH   1  14
ATOM     14  S   UNL     1       3.683   2.377  20.061  0.00  0.00    +0.000 S 
BRANCH  14  15
ATOM     15  C   UNL     1       4.612   3.343  18.934  0.00  0.00    +0.000 A 
ATOM     16  N   UNL     1       4.281   3.372  17.694  0.00  0.00    +0.000 NA
ATOM     17  C   UNL     1       4.951   4.220  16.856  0.00  0.00    +0.000 A 
ATOM     18  O   UNL     1       4.679   4.225  15.655  0.00  0.00    +0.000 OA
ATOM     19  N   UNL     1       5.907   5.068  17.393  0.00  0.00    +0.000 N 
ATOM     20  C   UNL     1       6.530   6.037  16.614  0.00  0.00    +0.000 A 
ATOM     21  C   UNL     1       7.459   6.853  17.128  0.00  0.00    +0.000 A 
ATOM     22  C   UNL     1       7.860   6.706  18.504  0.00  0.00    +0.000 A 
ATOM     23  C   UNL     1       7.290   5.776  19.279  0.00  0.00    +0.000 A 
ATOM     24  C   UNL     1       6.215   4.913  18.718  0.00  0.00    +0.000 A 
ATOM     25  N   UNL     1       5.615   4.071  19.484  0.00  0.00    +0.000 NA
ENDBRANCH  14  15
ENDBRANCH   1  14
TORSDOF 5
ENDMDL
MODEL 4
REMARK VINA RESULT:      -7.3      1.790      2.676
REMARK  Name = 
REMARK  5 active torsions:
REMARK  status: ('A' for Active; 'I' for Inactive)
REMARK    1  A    between atoms: C_2  and  C_3
REMARK    2  A    between atoms: C_3  and  S_4
REMARK    3  A    between atoms: S_4  and  C_5
REMARK    4  A    between atoms: N_16  and  C_17
REMARK    5  A    between atoms: C_17  and  C_18
REMARK                            x       y       z     vdW  Elec       q    Type
REMARK                         _______ _______ _______ _____ _____    ______ ____
ROOT
ATOM      1  C   UNL     1       1.665   3.229  18.990  0.00  0.00    +0.000 C 
ENDROOT
BRANCH   1   3
ATOM      2  O   UNL     1       1.676   4.155  21.221  0.00  0.00    +0.000 OA
ATOM      3  C   UNL     1       1.839   4.335  20.015  0.00  0.00    +0.000 C 
ATOM      4  N   UNL     1       2.235   5.546  19.490  0.00  0.00    +0.000 N 
ATOM      5  H   UNL     1       2.045   5.722  18.509  0.00  0.00    +0.000 HD
BRANCH   4   6
ATOM      6  C   UNL     1       2.386   6.702  20.346  0.00  0.00    +0.000 C 
BRANCH   6   7
ATOM      7  C   UNL     1       1.885   7.952  19.674  0.00  0.00    +0.000 A 
ATOM      8  C   UNL     1       0.944   8.750  20.353  0.00  0.00    +0.000 A 
ATOM      9  C   UNL     1       0.442   9.917  19.776  0.00  0.00    +0.000 A 
ATOM     10  C   UNL     1       0.882  10.317  18.517  0.00  0.00    +0.000 A 
ATOM     11  C   UNL     1       1.826   9.548  17.838  0.00  0.00    +0.000 A 
ATOM     12  C   UNL     1       2.328   8.375  18.412  0.00  0.00    +0.000 A 
ATOM     13 CL   UNL     1       3.500   7.482  17.512  0.00  0.00    +0.000 Cl
ENDBRANCH   6   7
ENDBRANCH   4   6
ENDBRANCH   1   3
BRANCH   1  14
ATOM     14  S   UNL     1       3.103   2.137  18.959  0.00  0.00    +0.000 S 
BRANCH  14  15
ATOM     15  C   UNL     1       4.287   3.163  18.177  0.00  0.00    +0.000 A 
ATOM     16  N   UNL     1       4.241   3.337  16.907  0.00  0.00    +0.000 NA
ATOM     17  C   UNL     1       5.105   4.231  16.336  0.00  0.00    +0.000 A 
ATOM     18  O   UNL     1       5.107   4.373  15.113  0.00  0.00    +0.000 OA
ATOM     19  N   UNL     1       5.943   4.966  17.160  0.00  0.00    +0.000 N 
ATOM     20  C   UNL     1       6.752   5.975  16.649  0.00  0.00    +0.000 A 
ATOM     21  C   UNL     1       7.567   6.683  17.442  0.00  0.00    +0.000 A 
ATOM     22  C   UNL     1       7.648   6.373  18.846  0.00  0.00    +0.000 A 
ATOM     23  C   UNL     1       6.893   5.400  19.369  0.00  0.00    +0.000 A 
ATOM     24  C   UNL     1       5.944   4.658  18.494  0.00  0.00    +0.000 A 
ATOM     25  N   UNL     1       5.164   3.775  19.011  0.00  0.00    +0.000 NA
ENDBRANCH  14  15
ENDBRANCH   1  14
TORSDOF 5
ENDMDL
MODEL 5
REMARK VINA RESULT:      -7.3      1.908      2.689
REMARK  Name = 
REMARK  5 active torsions:
REMARK  status: ('A' for Active; 'I' for Inactive)
REMARK    1  A    between atoms: C_2  and  C_3
REMARK    2  A    between atoms: C_3  and  S_4
REMARK    3  A    between atoms: S_4  and  C_5
REMARK    4  A    between atoms: N_16  and  C_17
REMARK    5  A    between atoms: C_17  and  C_18
REMARK                            x       y       z     vdW  Elec       q    Type
REMARK                         _______ _______ _______ _____ _____    ______ ____
ROOT
ATOM      1  C   UNL     1       2.039   3.615  17.823  0.00  0.00    +0.000 C 
ENDROOT
BRANCH   1   3
ATOM      2  O   UNL     1       1.423   4.017  20.124  0.00  0.00    +0.000 OA
ATOM      3  C   UNL     1       1.889   4.460  19.076  0.00  0.00    +0.000 C 
ATOM      4  N   UNL     1       2.356   5.751  18.956  0.00  0.00    +0.000 N 
ATOM      5  H   UNL     1       2.423   6.146  18.023  0.00  0.00    +0.000 HD
BRANCH   4   6
ATOM      6  C   UNL     1       2.225   6.682  20.054  0.00  0.00    +0.000 C 
BRANCH   6   7
ATOM      7  C   UNL     1       1.833   8.052  19.569  0.00  0.00    +0.000 A 
ATOM      8  C   UNL     1       2.176   8.424  18.255  0.00  0.00    +0.000 A 
ATOM      9  C   UNL     1       1.842   9.684  17.754  0.00  0.00    +0.000 A 
ATOM     10  C   UNL     1       1.146  10.588  18.551  0.00  0.00    +0.000 A 
ATOM     11  C   UNL     1       0.783  10.230  19.849  0.00  0.00    +0.000 A 
ATOM     12  C   UNL     1       1.121   8.970  20.356  0.00  0.00    +0.000 A 
ATOM     13 CL   UNL     1       0.630   8.599  21.968  0.00  0.00    +0.000 Cl
ENDBRANCH   6   7
ENDBRANCH   4   6
ENDBRANCH   1   3
BRANCH   1  14
ATOM     14  S   UNL     1       3.633   2.767  17.797  0.00  0.00    +0.000 S 
BRANCH  14  15
ATOM     15  C   UNL     1       4.717   4.099  17.454  0.00  0.00    +0.000 A 
ATOM     16  N   UNL     1       4.472   4.884  16.469  0.00  0.00    +0.000 NA
ATOM     17  C   UNL     1       5.268   5.981  16.291  0.00  0.00    +0.000 A 
ATOM     18  O   UNL     1       5.077   6.717  15.322  0.00  0.00    +0.000 OA
ATOM     19  N   UNL     1       6.260   6.242  17.223  0.00  0.00    +0.000 N 
ATOM     20  C   UNL     1       7.018   7.406  17.163  0.00  0.00    +0.000 A 
ATOM     21  C   UNL     1       7.981   7.658  18.059  0.00  0.00    +0.000 A 
ATOM     22  C   UNL     1       8.277   6.690  19.084  0.00  0.00    +0.000 A 
ATOM     23  C   UNL     1       7.576   5.553  19.164  0.00  0.00    +0.000 A 
ATOM     24  C   UNL     1       6.466   5.307  18.203  0.00  0.00    +0.000 A 
ATOM     25  N   UNL     1       5.744   4.250  18.326  0.00  0.00    +0.000 NA
ENDBRANCH  14  15
ENDBRANCH   1  14
TORSDOF 5
ENDMDL
MODEL 6
REMARK VINA RESULT:      -7.2      1.349      1.778
REMARK  Name = 
REMARK  5 active torsions:
REMARK  status: ('A' for Active; 'I' for Inactive)
REMARK    1  A    between atoms: C_2  and  C_3
REMARK    2  A    between atoms: C_3  and  S_4
REMARK    3  A    between atoms: S_4  and  C_5
REMARK    4  A    between atoms: N_16  and  C_17
REMARK    5  A    between atoms: C_17  and  C_18
REMARK                            x       y       z     vdW  Elec       q    Type
REMARK                         _______ _______ _______ _____ _____    ______ ____
ROOT
ATOM      1  C   UNL     1       1.380   3.105  19.533  0.00  0.00    +0.000 C 
ENDROOT
BRANCH   1   3
ATOM      2  O   UNL     1       2.162   4.085  21.598  0.00  0.00    +0.000 OA
ATOM      3  C   UNL     1       1.789   4.253  20.438  0.00  0.00    +0.000 C 
ATOM      4  N   UNL     1       1.748   5.496  19.843  0.00  0.00    +0.000 N 
ATOM      5  H   UNL     1       1.149   5.613  19.032  0.00  0.00    +0.000 HD
BRANCH   4   6
ATOM      6  C   UNL     1       2.059   6.684  20.606  0.00  0.00    +0.000 C 
BRANCH   6   7
ATOM      7  C   UNL     1       1.776   7.934  19.815  0.00  0.00    +0.000 A 
ATOM      8  C   UNL     1       0.943   8.916  20.384  0.00  0.00    +0.000 A 
ATOM      9  C   UNL     1       0.644  10.092  19.694  0.00  0.00    +0.000 A 
ATOM     10  C   UNL     1       1.182  10.314  18.430  0.00  0.00    +0.000 A 
ATOM     11  C   UNL     1       2.023   9.360  17.858  0.00  0.00    +0.000 A 
ATOM     12  C   UNL     1       2.321   8.178  18.545  0.00  0.00    +0.000 A 
ATOM     13 CL   UNL     1       3.375   7.049  17.774  0.00  0.00    +0.000 Cl
ENDBRANCH   6   7
ENDBRANCH   4   6
ENDBRANCH   1   3
BRANCH   1  14
ATOM     14  S   UNL     1       2.777   2.010  19.200  0.00  0.00    +0.000 S 
BRANCH  14  15
ATOM     15  C   UNL     1       3.964   3.151  18.603  0.00  0.00    +0.000 A 
ATOM     16  N   UNL     1       4.736   3.759  19.429  0.00  0.00    +0.000 NA
ATOM     17  C   UNL     1       5.729   4.558  18.932  0.00  0.00    +0.000 A 
ATOM     18  O   UNL     1       6.446   5.186  19.710  0.00  0.00    +0.000 OA
ATOM     19  N   UNL     1       5.908   4.619  17.559  0.00  0.00    +0.000 N 
ATOM     20  C   UNL     1       6.976   5.314  17.002  0.00  0.00    +0.000 A 
ATOM     21  C   UNL     1       7.149   5.380  15.675  0.00  0.00    +0.000 A 
ATOM     22  C   UNL     1       6.191   4.760  14.796  0.00  0.00    +0.000 A 
ATOM     23  C   UNL     1       5.145   4.093  15.297  0.00  0.00    +0.000 A 
ATOM     24  C   UNL     1       4.992   3.971  16.773  0.00  0.00    +0.000 A 
ATOM     25  N   UNL     1       4.029   3.267  17.254  0.00  0.00    +0.000 NA
ENDBRANCH  14  15
ENDBRANCH   1  14
TORSDOF 5
ENDMDL
MODEL 7
REMARK VINA RESULT:      -7.2      2.137      4.914
REMARK  Name = 
REMARK  5 active torsions:
REMARK  status: ('A' for Active; 'I' for Inactive)
REMARK    1  A    between atoms: C_2  and  C_3
REMARK    2  A    between atoms: C_3  and  S_4
REMARK    3  A    between atoms: S_4  and  C_5
REMARK    4  A    between atoms: N_16  and  C_17
REMARK    5  A    between atoms: C_17  and  C_18
REMARK                            x       y       z     vdW  Elec       q    Type
REMARK                         _______ _______ _______ _____ _____    ______ ____
ROOT
ATOM      1  C   UNL     1       6.269   5.117  16.653  0.00  0.00    +0.000 C 
ENDROOT
BRANCH   1   3
ATOM      2  O   UNL     1       5.264   6.889  15.356  0.00  0.00    +0.000 OA
ATOM      3  C   UNL     1       5.305   6.265  16.415  0.00  0.00    +0.000 C 
ATOM      4  N   UNL     1       4.452   6.525  17.465  0.00  0.00    +0.000 N 
ATOM      5  H   UNL     1       4.732   6.217  18.391  0.00  0.00    +0.000 HD
BRANCH   4   6
ATOM      6  C   UNL     1       3.518   7.627  17.396  0.00  0.00    +0.000 C 
BRANCH   6   7
ATOM      7  C   UNL     1       2.662   7.700  18.632  0.00  0.00    +0.000 A 
ATOM      8  C   UNL     1       2.657   6.602  19.513  0.00  0.00    +0.000 A 
ATOM      9  C   UNL     1       1.878   6.613  20.671  0.00  0.00    +0.000 A 
ATOM     10  C   UNL     1       1.102   7.727  20.978  0.00  0.00    +0.000 A 
ATOM     11  C   UNL     1       1.108   8.830  20.125  0.00  0.00    +0.000 A 
ATOM     12  C   UNL     1       1.884   8.820  18.961  0.00  0.00    +0.000 A 
ATOM     13 CL   UNL     1       1.844  10.227  17.961  0.00  0.00    +0.000 Cl
ENDBRANCH   6   7
ENDBRANCH   4   6
ENDBRANCH   1   3
BRANCH   1  14
ATOM     14  S   UNL     1       5.494   3.528  16.283  0.00  0.00    +0.000 S 
BRANCH  14  15
ATOM     15  C   UNL     1       4.105   3.575  17.349  0.00  0.00    +0.000 A 
ATOM     16  N   UNL     1       2.941   3.828  16.870  0.00  0.00    +0.000 NA
ATOM     17  C   UNL     1       1.858   3.747  17.701  0.00  0.00    +0.000 A 
ATOM     18  O   UNL     1       0.742   4.033  17.270  0.00  0.00    +0.000 OA
ATOM     19  N   UNL     1       2.052   3.324  19.007  0.00  0.00    +0.000 N 
ATOM     20  C   UNL     1       0.977   3.104  19.860  0.00  0.00    +0.000 A 
ATOM     21  C   UNL     1       1.161   2.702  21.125  0.00  0.00    +0.000 A 
ATOM     22  C   UNL     1       2.498   2.532  21.635  0.00  0.00    +0.000 A 
ATOM     23  C   UNL     1       3.556   2.747  20.845  0.00  0.00    +0.000 A 
ATOM     24  C   UNL     1       3.343   3.134  19.423  0.00  0.00    +0.000 A 
ATOM     25  N   UNL     1       4.358   3.268  18.645  0.00  0.00    +0.000 NA
ENDBRANCH  14  15
ENDBRANCH   1  14
TORSDOF 5
ENDMDL
MODEL 8
REMARK VINA RESULT:      -7.2      2.858      5.993
REMARK  Name = 
REMARK  5 active torsions:
REMARK  status: ('A' for Active; 'I' for Inactive)
REMARK    1  A    between atoms: C_2  and  C_3
REMARK    2  A    between atoms: C_3  and  S_4
REMARK    3  A    between atoms: S_4  and  C_5
REMARK    4  A    between atoms: N_16  and  C_17
REMARK    5  A    between atoms: C_17  and  C_18
REMARK                            x       y       z     vdW  Elec       q    Type
REMARK                         _______ _______ _______ _____ _____    ______ ____
ROOT
ATOM      1  C   UNL     1       2.108   3.921  19.152  0.00  0.00    +0.000 C 
ENDROOT
BRANCH   1   3
ATOM      2  O   UNL     1       4.269   2.854  19.318  0.00  0.00    +0.000 OA
ATOM      3  C   UNL     1       3.520   3.602  18.693  0.00  0.00    +0.000 C 
ATOM      4  N   UNL     1       3.879   4.185  17.497  0.00  0.00    +0.000 N 
ATOM      5  H   UNL     1       3.372   5.014  17.203  0.00  0.00    +0.000 HD
BRANCH   4   6
ATOM      6  C   UNL     1       5.214   4.012  16.969  0.00  0.00    +0.000 C 
BRANCH   6   7
ATOM      7  C   UNL     1       6.127   5.124  17.407  0.00  0.00    +0.000 A 
ATOM      8  C   UNL     1       7.016   4.885  18.473  0.00  0.00    +0.000 A 
ATOM      9  C   UNL     1       7.883   5.882  18.925  0.00  0.00    +0.000 A 
ATOM     10  C   UNL     1       7.887   7.131  18.310  0.00  0.00    +0.000 A 
ATOM     11  C   UNL     1       7.027   7.380  17.242  0.00  0.00    +0.000 A 
ATOM     12  C   UNL     1       6.154   6.384  16.790  0.00  0.00    +0.000 A 
ATOM     13 CL   UNL     1       5.125   6.767  15.459  0.00  0.00    +0.000 Cl
ENDBRANCH   6   7
ENDBRANCH   4   6
ENDBRANCH   1   3
BRANCH   1  14
ATOM     14  S   UNL     1       2.122   4.881  20.681  0.00  0.00    +0.000 S 
BRANCH  14  15
ATOM     15  C   UNL     1       2.039   6.514  20.054  0.00  0.00    +0.000 A 
ATOM     16  N   UNL     1       2.438   6.760  18.859  0.00  0.00    +0.000 NA
ATOM     17  C   UNL     1       2.258   8.017  18.353  0.00  0.00    +0.000 A 
ATOM     18  O   UNL     1       2.679   8.282  17.227  0.00  0.00    +0.000 OA
ATOM     19  N   UNL     1       1.586   8.954  19.122  0.00  0.00    +0.000 N 
ATOM     20  C   UNL     1       1.264  10.208  18.614  0.00  0.00    +0.000 A 
ATOM     21  C   UNL     1       0.621  11.118  19.357  0.00  0.00    +0.000 A 
ATOM     22  C   UNL     1       0.287  10.818  20.726  0.00  0.00    +0.000 A 
ATOM     23  C   UNL     1       0.592   9.626  21.252  0.00  0.00    +0.000 A 
ATOM     24  C   UNL     1       1.253   8.597  20.402  0.00  0.00    +0.000 A 
ATOM     25  N   UNL     1       1.478   7.427  20.885  0.00  0.00    +0.000 NA
ENDBRANCH  14  15
ENDBRANCH   1  14
TORSDOF 5
ENDMDL
MODEL 9
REMARK VINA RESULT:      -7.1      2.603      5.990
REMARK  Name = 
REMARK  5 active torsions:
REMARK  status: ('A' for Active; 'I' for Inactive)
REMARK    1  A    between atoms: C_2  and  C_3
REMARK    2  A    between atoms: C_3  and  S_4
REMARK    3  A    between atoms: S_4  and  C_5
REMARK    4  A    between atoms: N_16  and  C_17
REMARK    5  A    between atoms: C_17  and  C_18
REMARK                            x       y       z     vdW  Elec       q    Type
REMARK                         _______ _______ _______ _____ _____    ______ ____
ROOT
ATOM      1  C   UNL     1       5.842   6.286  17.790  0.00  0.00    +0.000 C 
ENDROOT
BRANCH   1   3
ATOM      2  O   UNL     1       6.160   4.447  19.324  0.00  0.00    +0.000 OA
ATOM      3  C   UNL     1       5.544   4.913  18.367  0.00  0.00    +0.000 C 
ATOM      4  N   UNL     1       4.501   4.250  17.758  0.00  0.00    +0.000 N 
ATOM      5  H   UNL     1       4.255   4.521  16.811  0.00  0.00    +0.000 HD
BRANCH   4   6
ATOM      6  C   UNL     1       4.144   2.910  18.170  0.00  0.00    +0.000 C 
BRANCH   6   7
ATOM      7  C   UNL     1       3.103   2.929  19.257  0.00  0.00    +0.000 A 
ATOM      8  C   UNL     1       3.476   2.529  20.554  0.00  0.00    +0.000 A 
ATOM      9  C   UNL     1       2.551   2.522  21.599  0.00  0.00    +0.000 A 
ATOM     10  C   UNL     1       1.239   2.928  21.370  0.00  0.00    +0.000 A 
ATOM     11  C   UNL     1       0.856   3.344  20.096  0.00  0.00    +0.000 A 
ATOM     12  C   UNL     1       1.781   3.348  19.045  0.00  0.00    +0.000 A 
ATOM     13 CL   UNL     1       1.231   3.883  17.499  0.00  0.00    +0.000 Cl
ENDBRANCH   6   7
ENDBRANCH   4   6
ENDBRANCH   1   3
BRANCH   1  14
ATOM     14  S   UNL     1       4.539   6.813  16.657  0.00  0.00    +0.000 S 
BRANCH  14  15
ATOM     15  C   UNL     1       3.315   7.361  17.784  0.00  0.00    +0.000 A 
ATOM     16  N   UNL     1       3.054   6.665  18.830  0.00  0.00    +0.000 NA
ATOM     17  C   UNL     1       2.178   7.170  19.751  0.00  0.00    +0.000 A 
ATOM     18  O   UNL     1       1.879   6.494  20.736  0.00  0.00    +0.000 OA
ATOM     19  N   UNL     1       1.665   8.442  19.554  0.00  0.00    +0.000 N 
ATOM     20  C   UNL     1       0.869   9.056  20.515  0.00  0.00    +0.000 A 
ATOM     21  C   UNL     1       0.367  10.283  20.324  0.00  0.00    +0.000 A 
ATOM     22  C   UNL     1       0.613  10.973  19.085  0.00  0.00    +0.000 A 
ATOM     23  C   UNL     1       1.364  10.408  18.133  0.00  0.00    +0.000 A 
ATOM     24  C   UNL     1       1.970   9.070  18.375  0.00  0.00    +0.000 A 
ATOM     25  N   UNL     1       2.753   8.560  17.491  0.00  0.00    +0.000 NA
ENDBRANCH  14  15
ENDBRANCH   1  14
TORSDOF 5
ENDMDL
