MODEL 1
REMARK VINA RESULT:      -9.4      0.000      0.000
REMARK  Name = 
REMARK  7 active torsions:
REMARK  status: ('A' for Active; 'I' for Inactive)
REMARK    1  A    between atoms: C_1  and  C_2
REMARK    2  A    between atoms: C_2  and  C_3
REMARK    3  A    between atoms: C_7  and  C_8
REMARK    4  A    between atoms: N_10  and  C_11
REMARK    5  A    between atoms: N_14  and  C_15
REMARK    6  A    between atoms: C_15  and  C_16
REMARK    7  A    between atoms: C_15  and  C_22
REMARK                            x       y       z     vdW  Elec       q    Type
REMARK                         _______ _______ _______ _____ _____    ______ ____
ROOT
ATOM      1  C   UNL     1       1.569   9.194  19.287  0.00  0.00    +0.000 A 
ATOM      2  C   UNL     1       1.838   9.379  17.913  0.00  0.00    +0.000 A 
ATOM      3  N   UNL     1       2.359   8.291  17.345  0.00  0.00    +0.000 NA
ATOM      4  N   UNL     1       2.412   7.399  18.357  0.00  0.00    +0.000 N 
ATOM      5  C   UNL     1       1.995   7.913  19.556  0.00  0.00    +0.000 A 
ENDROOT
BRANCH   1   8
ATOM      6  C   UNL     1      -0.349  10.418  20.086  0.00  0.00    +0.000 C 
ATOM      7  O   UNL     1      -1.104  10.041  19.190  0.00  0.00    +0.000 OA
ATOM      8  N   UNL     1       0.981  10.057  20.191  0.00  0.00    +0.000 N 
ATOM      9  H   UNL     1       1.477  10.355  21.024  0.00  0.00    +0.000 HD
BRANCH   6  16
ATOM     10  C   UNL     1      -5.422  14.275  22.057  0.00  0.00    +0.000 C 
ATOM     11  C   UNL     1      -3.990  14.207  21.478  0.00  0.00    +0.000 C 
ATOM     12  C   UNL     1      -3.619  15.618  20.972  0.00  0.00    +0.000 C 
ATOM     13  C   UNL     1      -4.062  13.244  20.242  0.00  0.00    +0.000 C 
ATOM     14  C   UNL     1      -2.897  12.303  19.941  0.00  0.00    +0.000 C 
ATOM     15  C   UNL     1      -1.973  12.119  21.073  0.00  0.00    +0.000 A 
ATOM     16  C   UNL     1      -0.844  11.269  21.173  0.00  0.00    +0.000 A 
ATOM     17  N   UNL     1      -0.288  11.349  22.402  0.00  0.00    +0.000 NA
ATOM     18  N   UNL     1      -1.022  12.300  23.026  0.00  0.00    +0.000 N 
ATOM     19  C   UNL     1      -2.042  12.786  22.260  0.00  0.00    +0.000 A 
ATOM     20  C   UNL     1      -3.021  13.820  22.650  0.00  0.00    +0.000 C 
ATOM     21  H   UNL     1      -0.768  12.564  23.974  0.00  0.00    +0.000 HD
ENDBRANCH   6  16
ENDBRANCH   1   8
BRANCH   4  22
ATOM     22  C   UNL     1       2.972   6.075  18.068  0.00  0.00    +0.000 C 
BRANCH  22  23
ATOM     23  C   UNL     1       4.529   6.062  18.255  0.00  0.00    +0.000 C 
ATOM     24  C   UNL     1       5.291   6.923  17.213  0.00  0.00    +0.000 C 
ATOM     25  C   UNL     1       5.169   6.412  15.782  0.00  0.00    +0.000 C 
ATOM     26  S   UNL     1       5.963   4.788  15.594  0.00  0.00    +0.000 S 
ATOM     27  O   UNL     1       5.500   4.189  14.219  0.00  0.00    +0.000 OA
ATOM     28  C   UNL     1       5.025   3.936  16.892  0.00  0.00    +0.000 C 
ATOM     29  C   UNL     1       5.142   4.644  18.234  0.00  0.00    +0.000 C 
ENDBRANCH  22  23
BRANCH  22  30
ATOM     30  C   UNL     1       2.171   4.988  18.783  0.00  0.00    +0.000 A 
ATOM     31  C   UNL     1       2.081   4.899  20.179  0.00  0.00    +0.000 A 
ATOM     32  C   UNL     1       1.450   3.811  20.786  0.00  0.00    +0.000 A 
ATOM     33  C   UNL     1       0.859   2.820  20.007  0.00  0.00    +0.000 A 
ATOM     34  C   UNL     1       0.865   2.934  18.620  0.00  0.00    +0.000 A 
ATOM     35  C   UNL     1       1.512   4.012  18.012  0.00  0.00    +0.000 A 
ENDBRANCH  22  30
ENDBRANCH   4  22
TORSDOF 5
ENDMDL
MODEL 2
REMARK VINA RESULT:      -9.3      2.870      3.625
REMARK  Name = 
REMARK  7 active torsions:
REMARK  status: ('A' for Active; 'I' for Inactive)
REMARK    1  A    between atoms: C_1  and  C_2
REMARK    2  A    between atoms: C_2  and  C_3
REMARK    3  A    between atoms: C_7  and  C_8
REMARK    4  A    between atoms: N_10  and  C_11
REMARK    5  A    between atoms: N_14  and  C_15
REMARK    6  A    between atoms: C_15  and  C_16
REMARK    7  A    between atoms: C_15  and  C_22
REMARK                            x       y       z     vdW  Elec       q    Type
REMARK                         _______ _______ _______ _____ _____    ______ ____
ROOT
ATOM      1  C   UNL     1       1.634   8.941  19.429  0.00  0.00    +0.000 A 
ATOM      2  C   UNL     1       1.520   8.038  20.509  0.00  0.00    +0.000 A 
ATOM      3  N   UNL     1       2.029   6.839  20.226  0.00  0.00    +0.000 NA
ATOM      4  N   UNL     1       2.485   6.976  18.964  0.00  0.00    +0.000 N 
ATOM      5  C   UNL     1       2.224   8.208  18.423  0.00  0.00    +0.000 A 
ENDROOT
BRANCH   1   8
ATOM      6  C   UNL     1       0.201  10.699  18.609  0.00  0.00    +0.000 C 
ATOM      7  O   UNL     1      -0.510   9.958  17.932  0.00  0.00    +0.000 OA
ATOM      8  N   UNL     1       1.283  10.274  19.358  0.00  0.00    +0.000 N 
ATOM      9  H   UNL     1       1.735  10.963  19.948  0.00  0.00    +0.000 HD
BRANCH   6  16
ATOM     10  C   UNL     1       2.656  16.815  17.579  0.00  0.00    +0.000 C 
ATOM     11  C   UNL     1       2.328  15.702  18.599  0.00  0.00    +0.000 C 
ATOM     12  C   UNL     1       3.006  16.074  19.936  0.00  0.00    +0.000 C 
ATOM     13  C   UNL     1       3.001  14.394  18.055  0.00  0.00    +0.000 C 
ATOM     14  C   UNL     1       2.299  13.048  18.228  0.00  0.00    +0.000 C 
ATOM     15  C   UNL     1       0.869  13.160  18.557  0.00  0.00    +0.000 A 
ATOM     16  C   UNL     1      -0.094  12.132  18.709  0.00  0.00    +0.000 A 
ATOM     17  N   UNL     1      -1.317  12.650  18.959  0.00  0.00    +0.000 NA
ATOM     18  N   UNL     1      -1.092  13.983  19.038  0.00  0.00    +0.000 N 
ATOM     19  C   UNL     1       0.208  14.327  18.803  0.00  0.00    +0.000 A 
ATOM     20  C   UNL     1       0.773  15.691  18.808  0.00  0.00    +0.000 C 
ATOM     21  H   UNL     1      -1.874  14.594  19.254  0.00  0.00    +0.000 HD
ENDBRANCH   6  16
ENDBRANCH   1   8
BRANCH   4  22
ATOM     22  C   UNL     1       3.096   5.804  18.329  0.00  0.00    +0.000 C 
BRANCH  22  23
ATOM     23  C   UNL     1       4.661   5.885  18.371  0.00  0.00    +0.000 C 
ATOM     24  C   UNL     1       5.265   6.868  17.334  0.00  0.00    +0.000 C 
ATOM     25  C   UNL     1       5.038   6.454  15.885  0.00  0.00    +0.000 C 
ATOM     26  S   UNL     1       5.908   4.906  15.499  0.00  0.00    +0.000 S 
ATOM     27  O   UNL     1       5.353   4.376  14.130  0.00  0.00    +0.000 OA
ATOM     28  C   UNL     1       5.153   3.901  16.808  0.00  0.00    +0.000 C 
ATOM     29  C   UNL     1       5.356   4.517  18.184  0.00  0.00    +0.000 C 
ENDBRANCH  22  23
BRANCH  22  30
ATOM     30  C   UNL     1       2.446   4.520  18.840  0.00  0.00    +0.000 A 
ATOM     31  C   UNL     1       1.517   3.784  18.092  0.00  0.00    +0.000 A 
ATOM     32  C   UNL     1       0.851   2.694  18.656  0.00  0.00    +0.000 A 
ATOM     33  C   UNL     1       1.137   2.294  19.958  0.00  0.00    +0.000 A 
ATOM     34  C   UNL     1       2.117   2.960  20.687  0.00  0.00    +0.000 A 
ATOM     35  C   UNL     1       2.771   4.062  20.131  0.00  0.00    +0.000 A 
ENDBRANCH  22  30
ENDBRANCH   4  22
TORSDOF 5
ENDMDL
MODEL 3
REMARK VINA RESULT:      -9.3      1.203      1.378
REMARK  Name = 
REMARK  7 active torsions:
REMARK  status: ('A' for Active; 'I' for Inactive)
REMARK    1  A    between atoms: C_1  and  C_2
REMARK    2  A    between atoms: C_2  and  C_3
REMARK    3  A    between atoms: C_7  and  C_8
REMARK    4  A    between atoms: N_10  and  C_11
REMARK    5  A    between atoms: N_14  and  C_15
REMARK    6  A    between atoms: C_15  and  C_16
REMARK    7  A    between atoms: C_15  and  C_22
REMARK                            x       y       z     vdW  Elec       q    Type
REMARK                         _______ _______ _______ _____ _____    ______ ____
ROOT
ATOM      1  C   UNL     1       1.606   9.118  19.354  0.00  0.00    +0.000 A 
ATOM      2  C   UNL     1       1.826   9.309  17.972  0.00  0.00    +0.000 A 
ATOM      3  N   UNL     1       2.331   8.225  17.382  0.00  0.00    +0.000 NA
ATOM      4  N   UNL     1       2.421   7.329  18.387  0.00  0.00    +0.000 N 
ATOM      5  C   UNL     1       2.045   7.837  19.603  0.00  0.00    +0.000 A 
ENDROOT
BRANCH   1   8
ATOM      6  C   UNL     1      -0.267  10.393  20.180  0.00  0.00    +0.000 C 
ATOM      7  O   UNL     1      -1.030  10.075  19.269  0.00  0.00    +0.000 OA
ATOM      8  N   UNL     1       1.047   9.975  20.281  0.00  0.00    +0.000 N 
ATOM      9  H   UNL     1       1.549  10.227  21.125  0.00  0.00    +0.000 HD
BRANCH   6  16
ATOM     10  C   UNL     1      -2.422  16.485  21.831  0.00  0.00    +0.000 C 
ATOM     11  C   UNL     1      -1.249  15.480  21.826  0.00  0.00    +0.000 C 
ATOM     12  C   UNL     1       0.034  16.251  22.207  0.00  0.00    +0.000 C 
ATOM     13  C   UNL     1      -1.103  14.983  20.345  0.00  0.00    +0.000 C 
ATOM     14  C   UNL     1      -0.726  13.530  20.064  0.00  0.00    +0.000 C 
ATOM     15  C   UNL     1      -0.909  12.633  21.217  0.00  0.00    +0.000 A 
ATOM     16  C   UNL     1      -0.735  11.229  21.291  0.00  0.00    +0.000 A 
ATOM     17  N   UNL     1      -1.057  10.767  22.518  0.00  0.00    +0.000 NA
ATOM     18  N   UNL     1      -1.352  11.889  23.217  0.00  0.00    +0.000 N 
ATOM     19  C   UNL     1      -1.273  13.028  22.470  0.00  0.00    +0.000 A 
ATOM     20  C   UNL     1      -1.538  14.405  22.932  0.00  0.00    +0.000 C 
ATOM     21  H   UNL     1      -1.598  11.797  24.198  0.00  0.00    +0.000 HD
ENDBRANCH   6  16
ENDBRANCH   1   8
BRANCH   4  22
ATOM     22  C   UNL     1       2.975   6.008  18.074  0.00  0.00    +0.000 C 
BRANCH  22  23
ATOM     23  C   UNL     1       4.534   5.988  18.248  0.00  0.00    +0.000 C 
ATOM     24  C   UNL     1       5.288   6.880  17.227  0.00  0.00    +0.000 C 
ATOM     25  C   UNL     1       5.153   6.414  15.782  0.00  0.00    +0.000 C 
ATOM     26  S   UNL     1       5.944   4.796  15.537  0.00  0.00    +0.000 S 
ATOM     27  O   UNL     1       5.469   4.240  14.148  0.00  0.00    +0.000 OA
ATOM     28  C   UNL     1       5.016   3.905  16.816  0.00  0.00    +0.000 C 
ATOM     29  C   UNL     1       5.145   4.570  18.178  0.00  0.00    +0.000 C 
ENDBRANCH  22  23
BRANCH  22  30
ATOM     30  C   UNL     1       2.177   4.913  18.780  0.00  0.00    +0.000 A 
ATOM     31  C   UNL     1       2.109   4.796  20.175  0.00  0.00    +0.000 A 
ATOM     32  C   UNL     1       1.479   3.700  20.769  0.00  0.00    +0.000 A 
ATOM     33  C   UNL     1       0.868   2.730  19.979  0.00  0.00    +0.000 A 
ATOM     34  C   UNL     1       0.853   2.872  18.595  0.00  0.00    +0.000 A 
ATOM     35  C   UNL     1       1.498   3.957  17.999  0.00  0.00    +0.000 A 
ENDBRANCH  22  30
ENDBRANCH   4  22
TORSDOF 5
ENDMDL
MODEL 4
REMARK VINA RESULT:      -9.2      3.139      3.694
REMARK  Name = 
REMARK  7 active torsions:
REMARK  status: ('A' for Active; 'I' for Inactive)
REMARK    1  A    between atoms: C_1  and  C_2
REMARK    2  A    between atoms: C_2  and  C_3
REMARK    3  A    between atoms: C_7  and  C_8
REMARK    4  A    between atoms: N_10  and  C_11
REMARK    5  A    between atoms: N_14  and  C_15
REMARK    6  A    between atoms: C_15  and  C_16
REMARK    7  A    between atoms: C_15  and  C_22
REMARK                            x       y       z     vdW  Elec       q    Type
REMARK                         _______ _______ _______ _____ _____    ______ ____
ROOT
ATOM      1  C   UNL     1       1.427   9.152  19.142  0.00  0.00    +0.000 A 
ATOM      2  C   UNL     1       1.542   8.436  20.354  0.00  0.00    +0.000 A 
ATOM      3  N   UNL     1       2.109   7.241  20.187  0.00  0.00    +0.000 NA
ATOM      4  N   UNL     1       2.373   7.196  18.865  0.00  0.00    +0.000 N 
ATOM      5  C   UNL     1       1.934   8.301  18.185  0.00  0.00    +0.000 A 
ENDROOT
BRANCH   1   8
ATOM      6  C   UNL     1       0.852  11.354  19.942  0.00  0.00    +0.000 C 
ATOM      7  O   UNL     1       1.135  11.123  21.118  0.00  0.00    +0.000 OA
ATOM      8  N   UNL     1       0.955  10.431  18.918  0.00  0.00    +0.000 N 
ATOM      9  H   UNL     1       0.783  10.764  17.977  0.00  0.00    +0.000 HD
BRANCH   6  16
ATOM     10  C   UNL     1       2.855  17.060  17.129  0.00  0.00    +0.000 C 
ATOM     11  C   UNL     1       2.503  16.307  18.432  0.00  0.00    +0.000 C 
ATOM     12  C   UNL     1       2.970  17.178  19.618  0.00  0.00    +0.000 C 
ATOM     13  C   UNL     1       3.354  14.990  18.422  0.00  0.00    +0.000 C 
ATOM     14  C   UNL     1       2.761  13.696  18.978  0.00  0.00    +0.000 C 
ATOM     15  C   UNL     1       1.296  13.727  19.121  0.00  0.00    +0.000 A 
ATOM     16  C   UNL     1       0.419  12.691  19.526  0.00  0.00    +0.000 A 
ATOM     17  N   UNL     1      -0.868  13.102  19.477  0.00  0.00    +0.000 NA
ATOM     18  N   UNL     1      -0.776  14.405  19.120  0.00  0.00    +0.000 N 
ATOM     19  C   UNL     1       0.507  14.816  18.899  0.00  0.00    +0.000 A 
ATOM     20  C   UNL     1       0.941  16.167  18.493  0.00  0.00    +0.000 C 
ATOM     21  H   UNL     1      -1.631  14.948  19.047  0.00  0.00    +0.000 HD
ENDBRANCH   6  16
ENDBRANCH   1   8
BRANCH   4  22
ATOM     22  C   UNL     1       2.990   5.976  18.335  0.00  0.00    +0.000 C 
BRANCH  22  23
ATOM     23  C   UNL     1       4.555   6.045  18.422  0.00  0.00    +0.000 C 
ATOM     24  C   UNL     1       5.199   6.978  17.363  0.00  0.00    +0.000 C 
ATOM     25  C   UNL     1       5.012   6.505  15.927  0.00  0.00    +0.000 C 
ATOM     26  S   UNL     1       5.879   4.934  15.634  0.00  0.00    +0.000 S 
ATOM     27  O   UNL     1       5.360   4.351  14.272  0.00  0.00    +0.000 OA
ATOM     28  C   UNL     1       5.074   3.992  16.960  0.00  0.00    +0.000 C 
ATOM     29  C   UNL     1       5.241   4.664  18.315  0.00  0.00    +0.000 C 
ENDBRANCH  22  23
BRANCH  22  30
ATOM     30  C   UNL     1       2.310   4.737  18.915  0.00  0.00    +0.000 A 
ATOM     31  C   UNL     1       2.431   4.358  20.259  0.00  0.00    +0.000 A 
ATOM     32  C   UNL     1       1.902   3.146  20.708  0.00  0.00    +0.000 A 
ATOM     33  C   UNL     1       1.204   2.318  19.833  0.00  0.00    +0.000 A 
ATOM     34  C   UNL     1       1.002   2.717  18.515  0.00  0.00    +0.000 A 
ATOM     35  C   UNL     1       1.546   3.919  18.060  0.00  0.00    +0.000 A 
ENDBRANCH  22  30
ENDBRANCH   4  22
TORSDOF 5
ENDMDL
MODEL 5
REMARK VINA RESULT:      -9.1      2.771      4.271
REMARK  Name = 
REMARK  7 active torsions:
REMARK  status: ('A' for Active; 'I' for Inactive)
REMARK    1  A    between atoms: C_1  and  C_2
REMARK    2  A    between atoms: C_2  and  C_3
REMARK    3  A    between atoms: C_7  and  C_8
REMARK    4  A    between atoms: N_10  and  C_11
REMARK    5  A    between atoms: N_14  and  C_15
REMARK    6  A    between atoms: C_15  and  C_16
REMARK    7  A    between atoms: C_15  and  C_22
REMARK                            x       y       z     vdW  Elec       q    Type
REMARK                         _______ _______ _______ _____ _____    ______ ____
ROOT
ATOM      1  C   UNL     1       1.679   8.502  18.797  0.00  0.00    +0.000 A 
ATOM      2  C   UNL     1       2.484   8.558  17.637  0.00  0.00    +0.000 A 
ATOM      3  N   UNL     1       3.336   7.535  17.559  0.00  0.00    +0.000 NA
ATOM      4  N   UNL     1       3.066   6.811  18.665  0.00  0.00    +0.000 N 
ATOM      5  C   UNL     1       2.112   7.379  19.467  0.00  0.00    +0.000 A 
ENDROOT
BRANCH   1   8
ATOM      6  C   UNL     1       0.690  10.696  18.948  0.00  0.00    +0.000 C 
ATOM      7  O   UNL     1       1.623  11.278  18.394  0.00  0.00    +0.000 OA
ATOM      8  N   UNL     1       0.654   9.336  19.195  0.00  0.00    +0.000 N 
ATOM      9  H   UNL     1      -0.208   8.958  19.572  0.00  0.00    +0.000 HD
BRANCH   6  16
ATOM     10  C   UNL     1      -5.977  10.691  18.734  0.00  0.00    +0.000 C 
ATOM     11  C   UNL     1      -4.659  11.264  18.166  0.00  0.00    +0.000 C 
ATOM     12  C   UNL     1      -5.003  12.048  16.880  0.00  0.00    +0.000 C 
ATOM     13  C   UNL     1      -3.777  10.029  17.768  0.00  0.00    +0.000 C 
ATOM     14  C   UNL     1      -2.264  10.077  17.972  0.00  0.00    +0.000 C 
ATOM     15  C   UNL     1      -1.820  11.145  18.883  0.00  0.00    +0.000 A 
ATOM     16  C   UNL     1      -0.514  11.429  19.353  0.00  0.00    +0.000 A 
ATOM     17  N   UNL     1      -0.529  12.463  20.222  0.00  0.00    +0.000 NA
ATOM     18  N   UNL     1      -1.822  12.862  20.226  0.00  0.00    +0.000 N 
ATOM     19  C   UNL     1      -2.627  12.096  19.433  0.00  0.00    +0.000 A 
ATOM     20  C   UNL     1      -4.079  12.265  19.226  0.00  0.00    +0.000 C 
ATOM     21  H   UNL     1      -2.081  13.664  20.793  0.00  0.00    +0.000 HD
ENDBRANCH   6  16
ENDBRANCH   1   8
BRANCH   4  22
ATOM     22  C   UNL     1       3.863   5.602  18.899  0.00  0.00    +0.000 C 
BRANCH  22  23
ATOM     23  C   UNL     1       3.220   4.353  18.203  0.00  0.00    +0.000 C 
ATOM     24  C   UNL     1       1.685   4.249  18.398  0.00  0.00    +0.000 C 
ATOM     25  C   UNL     1       1.260   4.022  19.844  0.00  0.00    +0.000 C 
ATOM     26  S   UNL     1       1.835   2.410  20.453  0.00  0.00    +0.000 S 
ATOM     27  O   UNL     1       1.667   2.403  22.014  0.00  0.00    +0.000 OA
ATOM     28  C   UNL     1       3.598   2.663  20.107  0.00  0.00    +0.000 C 
ATOM     29  C   UNL     1       3.845   3.010  18.646  0.00  0.00    +0.000 C 
ENDBRANCH  22  23
BRANCH  22  30
ATOM     30  C   UNL     1       5.341   5.876  18.625  0.00  0.00    +0.000 A 
ATOM     31  C   UNL     1       6.368   5.444  19.475  0.00  0.00    +0.000 A 
ATOM     32  C   UNL     1       7.690   5.835  19.252  0.00  0.00    +0.000 A 
ATOM     33  C   UNL     1       8.012   6.623  18.151  0.00  0.00    +0.000 A 
ATOM     34  C   UNL     1       7.018   6.992  17.249  0.00  0.00    +0.000 A 
ATOM     35  C   UNL     1       5.693   6.617  17.480  0.00  0.00    +0.000 A 
ENDBRANCH  22  30
ENDBRANCH   4  22
TORSDOF 5
ENDMDL
MODEL 6
REMARK VINA RESULT:      -9.1      0.657      1.065
REMARK  Name = 
REMARK  7 active torsions:
REMARK  status: ('A' for Active; 'I' for Inactive)
REMARK    1  A    between atoms: C_1  and  C_2
REMARK    2  A    between atoms: C_2  and  C_3
REMARK    3  A    between atoms: C_7  and  C_8
REMARK    4  A    between atoms: N_10  and  C_11
REMARK    5  A    between atoms: N_14  and  C_15
REMARK    6  A    between atoms: C_15  and  C_16
REMARK    7  A    between atoms: C_15  and  C_22
REMARK                            x       y       z     vdW  Elec       q    Type
REMARK                         _______ _______ _______ _____ _____    ______ ____
ROOT
ATOM      1  C   UNL     1       1.375   8.994  19.436  0.00  0.00    +0.000 A 
ATOM      2  C   UNL     1       1.748   9.344  18.120  0.00  0.00    +0.000 A 
ATOM      3  N   UNL     1       2.386   8.356  17.491  0.00  0.00    +0.000 NA
ATOM      4  N   UNL     1       2.409   7.361  18.404  0.00  0.00    +0.000 N 
ATOM      5  C   UNL     1       1.859   7.716  19.607  0.00  0.00    +0.000 A 
ENDROOT
BRANCH   1   8
ATOM      6  C   UNL     1       0.430  11.073  20.212  0.00  0.00    +0.000 C 
ATOM      7  O   UNL     1       0.856  11.747  19.274  0.00  0.00    +0.000 OA
ATOM      8  N   UNL     1       0.658   9.718  20.368  0.00  0.00    +0.000 N 
ATOM      9  H   UNL     1       0.177   9.253  21.129  0.00  0.00    +0.000 HD
BRANCH   6  16
ATOM     10  C   UNL     1      -5.771  13.110  21.584  0.00  0.00    +0.000 C 
ATOM     11  C   UNL     1      -4.331  13.507  21.188  0.00  0.00    +0.000 C 
ATOM     12  C   UNL     1      -4.354  14.989  20.753  0.00  0.00    +0.000 C 
ATOM     13  C   UNL     1      -3.961  12.633  19.939  0.00  0.00    +0.000 C 
ATOM     14  C   UNL     1      -2.538  12.104  19.774  0.00  0.00    +0.000 C 
ATOM     15  C   UNL     1      -1.739  12.150  21.010  0.00  0.00    +0.000 A 
ATOM     16  C   UNL     1      -0.424  11.677  21.239  0.00  0.00    +0.000 A 
ATOM     17  N   UNL     1      -0.064  11.857  22.529  0.00  0.00    +0.000 NA
ATOM     18  N   UNL     1      -1.121  12.508  23.070  0.00  0.00    +0.000 N 
ATOM     19  C   UNL     1      -2.145  12.703  22.189  0.00  0.00    +0.000 A 
ATOM     20  C   UNL     1      -3.432  13.371  22.467  0.00  0.00    +0.000 C 
ATOM     21  H   UNL     1      -1.071  12.787  24.045  0.00  0.00    +0.000 HD
ENDBRANCH   6  16
ENDBRANCH   1   8
BRANCH   4  22
ATOM     22  C   UNL     1       3.076   6.110  18.031  0.00  0.00    +0.000 C 
BRANCH  22  23
ATOM     23  C   UNL     1       4.630   6.218  18.211  0.00  0.00    +0.000 C 
ATOM     24  C   UNL     1       5.334   7.036  17.095  0.00  0.00    +0.000 C 
ATOM     25  C   UNL     1       5.247   6.397  15.714  0.00  0.00    +0.000 C 
ATOM     26  S   UNL     1       6.149   4.820  15.661  0.00  0.00    +0.000 S 
ATOM     27  O   UNL     1       5.728   4.075  14.345  0.00  0.00    +0.000 OA
ATOM     28  C   UNL     1       5.269   4.021  17.032  0.00  0.00    +0.000 C 
ATOM     29  C   UNL     1       5.337   4.847  18.308  0.00  0.00    +0.000 C 
ENDBRANCH  22  23
BRANCH  22  30
ATOM     30  C   UNL     1       2.376   4.917  18.679  0.00  0.00    +0.000 A 
ATOM     31  C   UNL     1       1.687   3.943  17.943  0.00  0.00    +0.000 A 
ATOM     32  C   UNL     1       0.951   2.949  18.590  0.00  0.00    +0.000 A 
ATOM     33  C   UNL     1       0.930   2.884  19.981  0.00  0.00    +0.000 A 
ATOM     34  C   UNL     1       1.676   3.791  20.727  0.00  0.00    +0.000 A 
ATOM     35  C   UNL     1       2.398   4.798  20.082  0.00  0.00    +0.000 A 
ENDBRANCH  22  30
ENDBRANCH   4  22
TORSDOF 5
ENDMDL
MODEL 7
REMARK VINA RESULT:      -9.0      3.251      4.772
REMARK  Name = 
REMARK  7 active torsions:
REMARK  status: ('A' for Active; 'I' for Inactive)
REMARK    1  A    between atoms: C_1  and  C_2
REMARK    2  A    between atoms: C_2  and  C_3
REMARK    3  A    between atoms: C_7  and  C_8
REMARK    4  A    between atoms: N_10  and  C_11
REMARK    5  A    between atoms: N_14  and  C_15
REMARK    6  A    between atoms: C_15  and  C_16
REMARK    7  A    between atoms: C_15  and  C_22
REMARK                            x       y       z     vdW  Elec       q    Type
REMARK                         _______ _______ _______ _____ _____    ______ ____
ROOT
ATOM      1  C   UNL     1       1.473   8.755  19.886  0.00  0.00    +0.000 A 
ATOM      2  C   UNL     1       1.193   7.869  20.950  0.00  0.00    +0.000 A 
ATOM      3  N   UNL     1       1.741   6.667  20.769  0.00  0.00    +0.000 NA
ATOM      4  N   UNL     1       2.387   6.787  19.590  0.00  0.00    +0.000 N 
ATOM      5  C   UNL     1       2.212   8.009  18.996  0.00  0.00    +0.000 A 
ENDROOT
BRANCH   1   8
ATOM      6  C   UNL     1       0.332  10.520  18.703  0.00  0.00    +0.000 C 
ATOM      7  O   UNL     1      -0.119   9.790  17.820  0.00  0.00    +0.000 OA
ATOM      8  N   UNL     1       1.136  10.086  19.741  0.00  0.00    +0.000 N 
ATOM      9  H   UNL     1       1.368  10.763  20.459  0.00  0.00    +0.000 HD
BRANCH   6  16
ATOM     10  C   UNL     1       2.683  16.671  17.636  0.00  0.00    +0.000 C 
ATOM     11  C   UNL     1       2.321  15.579  18.669  0.00  0.00    +0.000 C 
ATOM     12  C   UNL     1       2.903  16.010  20.032  0.00  0.00    +0.000 C 
ATOM     13  C   UNL     1       3.061  14.275  18.208  0.00  0.00    +0.000 C 
ATOM     14  C   UNL     1       2.387  12.916  18.379  0.00  0.00    +0.000 C 
ATOM     15  C   UNL     1       0.936  12.997  18.615  0.00  0.00    +0.000 A 
ATOM     16  C   UNL     1      -0.006  11.947  18.740  0.00  0.00    +0.000 A 
ATOM     17  N   UNL     1      -1.256  12.436  18.897  0.00  0.00    +0.000 NA
ATOM     18  N   UNL     1      -1.073  13.777  18.947  0.00  0.00    +0.000 N 
ATOM     19  C   UNL     1       0.230  14.151  18.783  0.00  0.00    +0.000 A 
ATOM     20  C   UNL     1       0.757  15.530  18.781  0.00  0.00    +0.000 C 
ATOM     21  H   UNL     1      -1.882  14.371  19.096  0.00  0.00    +0.000 HD
ENDBRANCH   6  16
ENDBRANCH   1   8
BRANCH   4  22
ATOM     22  C   UNL     1       3.090   5.607  19.076  0.00  0.00    +0.000 C 
BRANCH  22  23
ATOM     23  C   UNL     1       2.179   4.780  18.104  0.00  0.00    +0.000 C 
ATOM     24  C   UNL     1       1.309   3.713  18.819  0.00  0.00    +0.000 C 
ATOM     25  C   UNL     1       2.114   2.598  19.477  0.00  0.00    +0.000 C 
ATOM     26  S   UNL     1       2.998   1.606  18.236  0.00  0.00    +0.000 S 
ATOM     27  O   UNL     1       4.053   0.726  18.995  0.00  0.00    +0.000 OA
ATOM     28  C   UNL     1       3.901   2.977  17.465  0.00  0.00    +0.000 C 
ATOM     29  C   UNL     1       2.963   4.071  16.976  0.00  0.00    +0.000 C 
ENDBRANCH  22  23
BRANCH  22  30
ATOM     30  C   UNL     1       4.482   5.990  18.577  0.00  0.00    +0.000 A 
ATOM     31  C   UNL     1       4.695   6.784  17.442  0.00  0.00    +0.000 A 
ATOM     32  C   UNL     1       5.985   6.993  16.949  0.00  0.00    +0.000 A 
ATOM     33  C   UNL     1       7.084   6.451  17.609  0.00  0.00    +0.000 A 
ATOM     34  C   UNL     1       6.900   5.729  18.785  0.00  0.00    +0.000 A 
ATOM     35  C   UNL     1       5.609   5.504  19.268  0.00  0.00    +0.000 A 
ENDBRANCH  22  30
ENDBRANCH   4  22
TORSDOF 5
ENDMDL
MODEL 8
REMARK VINA RESULT:      -8.9      3.228      4.700
REMARK  Name = 
REMARK  7 active torsions:
REMARK  status: ('A' for Active; 'I' for Inactive)
REMARK    1  A    between atoms: C_1  and  C_2
REMARK    2  A    between atoms: C_2  and  C_3
REMARK    3  A    between atoms: C_7  and  C_8
REMARK    4  A    between atoms: N_10  and  C_11
REMARK    5  A    between atoms: N_14  and  C_15
REMARK    6  A    between atoms: C_15  and  C_16
REMARK    7  A    between atoms: C_15  and  C_22
REMARK                            x       y       z     vdW  Elec       q    Type
REMARK                         _______ _______ _______ _____ _____    ______ ____
ROOT
ATOM      1  C   UNL     1       1.890   8.578  18.994  0.00  0.00    +0.000 A 
ATOM      2  C   UNL     1       1.816   7.886  20.224  0.00  0.00    +0.000 A 
ATOM      3  N   UNL     1       2.488   6.734  20.201  0.00  0.00    +0.000 NA
ATOM      4  N   UNL     1       3.008   6.694  18.956  0.00  0.00    +0.000 N 
ATOM      5  C   UNL     1       2.633   7.756  18.176  0.00  0.00    +0.000 A 
ENDROOT
BRANCH   1   8
ATOM      6  C   UNL     1       0.238  10.317  19.245  0.00  0.00    +0.000 C 
ATOM      7  O   UNL     1      -0.430   9.717  20.087  0.00  0.00    +0.000 OA
ATOM      8  N   UNL     1       1.380   9.815  18.651  0.00  0.00    +0.000 N 
ATOM      9  H   UNL     1       1.898  10.439  18.042  0.00  0.00    +0.000 HD
BRANCH   6  16
ATOM     10  C   UNL     1       2.451  16.593  18.801  0.00  0.00    +0.000 C 
ATOM     11  C   UNL     1       1.587  15.572  19.575  0.00  0.00    +0.000 C 
ATOM     12  C   UNL     1       1.193  16.215  20.922  0.00  0.00    +0.000 C 
ATOM     13  C   UNL     1       2.516  14.343  19.868  0.00  0.00    +0.000 C 
ATOM     14  C   UNL     1       1.944  12.928  19.824  0.00  0.00    +0.000 C 
ATOM     15  C   UNL     1       0.649  12.831  19.130  0.00  0.00    +0.000 A 
ATOM     16  C   UNL     1      -0.121  11.679  18.837  0.00  0.00    +0.000 A 
ATOM     17  N   UNL     1      -1.228  12.004  18.134  0.00  0.00    +0.000 NA
ATOM     18  N   UNL     1      -1.179  13.356  18.064  0.00  0.00    +0.000 N 
ATOM     19  C   UNL     1      -0.067  13.888  18.651  0.00  0.00    +0.000 A 
ATOM     20  C   UNL     1       0.284  15.319  18.737  0.00  0.00    +0.000 C 
ATOM     21  H   UNL     1      -1.938  13.845  17.599  0.00  0.00    +0.000 HD
ENDBRANCH   6  16
ENDBRANCH   1   8
BRANCH   4  22
ATOM     22  C   UNL     1       3.801   5.517  18.587  0.00  0.00    +0.000 C 
BRANCH  22  23
ATOM     23  C   UNL     1       3.124   4.717  17.421  0.00  0.00    +0.000 C 
ATOM     24  C   UNL     1       1.594   4.530  17.598  0.00  0.00    +0.000 C 
ATOM     25  C   UNL     1       1.210   3.672  18.797  0.00  0.00    +0.000 C 
ATOM     26  S   UNL     1       1.785   1.960  18.591  0.00  0.00    +0.000 S 
ATOM     27  O   UNL     1       1.664   1.246  19.984  0.00  0.00    +0.000 OA
ATOM     28  C   UNL     1       3.539   2.349  18.340  0.00  0.00    +0.000 C 
ATOM     29  C   UNL     1       3.746   3.321  17.188  0.00  0.00    +0.000 C 
ENDBRANCH  22  23
BRANCH  22  30
ATOM     30  C   UNL     1       5.271   5.896  18.416  0.00  0.00    +0.000 A 
ATOM     31  C   UNL     1       6.284   5.429  19.264  0.00  0.00    +0.000 A 
ATOM     32  C   UNL     1       7.590   5.911  19.149  0.00  0.00    +0.000 A 
ATOM     33  C   UNL     1       7.913   6.831  18.155  0.00  0.00    +0.000 A 
ATOM     34  C   UNL     1       6.939   7.243  17.250  0.00  0.00    +0.000 A 
ATOM     35  C   UNL     1       5.629   6.776  17.375  0.00  0.00    +0.000 A 
ENDBRANCH  22  30
ENDBRANCH   4  22
TORSDOF 5
ENDMDL
MODEL 9
REMARK VINA RESULT:      -8.9      1.594      2.301
REMARK  Name = 
REMARK  7 active torsions:
REMARK  status: ('A' for Active; 'I' for Inactive)
REMARK    1  A    between atoms: C_1  and  C_2
REMARK    2  A    between atoms: C_2  and  C_3
REMARK    3  A    between atoms: C_7  and  C_8
REMARK    4  A    between atoms: N_10  and  C_11
REMARK    5  A    between atoms: N_14  and  C_15
REMARK    6  A    between atoms: C_15  and  C_16
REMARK    7  A    between atoms: C_15  and  C_22
REMARK                            x       y       z     vdW  Elec       q    Type
REMARK                         _______ _______ _______ _____ _____    ______ ____
ROOT
ATOM      1  C   UNL     1       1.538   9.031  19.505  0.00  0.00    +0.000 A 
ATOM      2  C   UNL     1       1.498   8.135  20.597  0.00  0.00    +0.000 A 
ATOM      3  N   UNL     1       2.026   6.947  20.300  0.00  0.00    +0.000 NA
ATOM      4  N   UNL     1       2.421   7.086  19.017  0.00  0.00    +0.000 N 
ATOM      5  C   UNL     1       2.102   8.305  18.480  0.00  0.00    +0.000 A 
ENDROOT
BRANCH   1   8
ATOM      6  C   UNL     1      -0.171  10.709  19.220  0.00  0.00    +0.000 C 
ATOM      7  O   UNL     1      -1.087   9.906  19.037  0.00  0.00    +0.000 OA
ATOM      8  N   UNL     1       1.147  10.353  19.440  0.00  0.00    +0.000 N 
ATOM      9  H   UNL     1       1.794  11.099  19.671  0.00  0.00    +0.000 HD
BRANCH   6  16
ATOM     10  C   UNL     1      -0.834  15.957  23.282  0.00  0.00    +0.000 C 
ATOM     11  C   UNL     1      -1.537  14.887  22.417  0.00  0.00    +0.000 C 
ATOM     12  C   UNL     1      -3.043  14.922  22.757  0.00  0.00    +0.000 C 
ATOM     13  C   UNL     1      -0.961  13.502  22.875  0.00  0.00    +0.000 C 
ATOM     14  C   UNL     1      -0.724  12.398  21.847  0.00  0.00    +0.000 C 
ATOM     15  C   UNL     1      -0.704  12.875  20.455  0.00  0.00    +0.000 A 
ATOM     16  C   UNL     1      -0.438  12.150  19.268  0.00  0.00    +0.000 A 
ATOM     17  N   UNL     1      -0.462  12.963  18.189  0.00  0.00    +0.000 NA
ATOM     18  N   UNL     1      -0.820  14.165  18.701  0.00  0.00    +0.000 N 
ATOM     19  C   UNL     1      -0.975  14.151  20.057  0.00  0.00    +0.000 A 
ATOM     20  C   UNL     1      -1.351  15.294  20.912  0.00  0.00    +0.000 C 
ATOM     21  H   UNL     1      -0.937  14.947  18.064  0.00  0.00    +0.000 HD
ENDBRANCH   6  16
ENDBRANCH   1   8
BRANCH   4  22
ATOM     22  C   UNL     1       3.035   5.926  18.365  0.00  0.00    +0.000 C 
BRANCH  22  23
ATOM     23  C   UNL     1       4.600   6.003  18.421  0.00  0.00    +0.000 C 
ATOM     24  C   UNL     1       5.217   6.957  17.364  0.00  0.00    +0.000 C 
ATOM     25  C   UNL     1       5.003   6.506  15.924  0.00  0.00    +0.000 C 
ATOM     26  S   UNL     1       5.872   4.946  15.588  0.00  0.00    +0.000 S 
ATOM     27  O   UNL     1       5.329   4.382  14.227  0.00  0.00    +0.000 OA
ATOM     28  C   UNL     1       5.101   3.977  16.914  0.00  0.00    +0.000 C 
ATOM     29  C   UNL     1       5.292   4.628  18.276  0.00  0.00    +0.000 C 
ENDBRANCH  22  23
BRANCH  22  30
ATOM     30  C   UNL     1       2.379   4.632  18.846  0.00  0.00    +0.000 A 
ATOM     31  C   UNL     1       1.490   3.888  18.059  0.00  0.00    +0.000 A 
ATOM     32  C   UNL     1       0.814   2.789  18.592  0.00  0.00    +0.000 A 
ATOM     33  C   UNL     1       1.051   2.389  19.905  0.00  0.00    +0.000 A 
ATOM     34  C   UNL     1       1.992   3.065  20.675  0.00  0.00    +0.000 A 
ATOM     35  C   UNL     1       2.655   4.175  20.149  0.00  0.00    +0.000 A 
ENDBRANCH  22  30
ENDBRANCH   4  22
TORSDOF 5
ENDMDL
