MODEL 1
REMARK VINA RESULT:      -7.6      0.000      0.000
REMARK  Name = 
REMARK  5 active torsions:
REMARK  status: ('A' for Active; 'I' for Inactive)
REMARK    1  A    between atoms: C_1  and  C_2
REMARK    2  A    between atoms: C_2  and  N_3
REMARK    3  A    between atoms: C_8  and  C_9
REMARK    4  A    between atoms: C_13  and  O_14
REMARK    5  A    between atoms: C_17  and  C_18
REMARK                            x       y       z     vdW  Elec       q    Type
REMARK                         _______ _______ _______ _____ _____    ______ ____
ROOT
ATOM      1  N   UNL     1       3.171   3.932  19.267  0.00  0.00    +0.000 NA
ATOM      2  C   UNL     1       4.720   4.058  19.255  0.00  0.00    +0.000 C 
ATOM      3  C   UNL     1       5.660   5.458  19.236  0.00  0.00    +0.000 C 
ATOM      4  C   UNL     1       5.904   6.205  17.781  0.00  0.00    +0.000 C 
ATOM      5  C   UNL     1       4.815   5.865  16.672  0.00  0.00    +0.000 C 
ATOM      6  C   UNL     1       3.803   5.001  17.410  0.00  0.00    +0.000 C 
ATOM      7  C   UNL     1       4.877   3.807  17.874  0.00  0.00    +0.000 C 
ATOM      8  C   UNL     1       2.721   4.074  17.833  0.00  0.00    +0.000 C 
ATOM      9  C   UNL     1       1.227   4.390  17.505  0.00  0.00    +0.000 C 
ENDROOT
BRANCH   6  10
ATOM     10  C   UNL     1       3.106   6.301  18.243  0.00  0.00    +0.000 A 
ATOM     11  C   UNL     1       2.618   6.336  19.620  0.00  0.00    +0.000 A 
ATOM     12  C   UNL     1       2.004   7.445  20.186  0.00  0.00    +0.000 A 
ATOM     13  C   UNL     1       1.770   8.566  19.436  0.00  0.00    +0.000 A 
ATOM     14  C   UNL     1       2.162   8.601  18.099  0.00  0.00    +0.000 A 
ATOM     15  C   UNL     1       2.826   7.495  17.524  0.00  0.00    +0.000 A 
BRANCH  14  16
ATOM     16  O   UNL     1       1.880   9.685  17.352  0.00  0.00    +0.000 OA
ATOM     17  H   UNL     1       1.599  10.521  17.758  0.00  0.00    +0.000 HD
ENDBRANCH  14  16
ENDBRANCH   6  10
BRANCH   1  19
ATOM     18  C   UNL     1       1.616   2.956  20.946  0.00  0.00    +0.000 C 
ATOM     19  C   UNL     1       2.624   2.681  19.840  0.00  0.00    +0.000 C 
ENDBRANCH   1  19
TORSDOF 3
ENDMDL
MODEL 2
REMARK VINA RESULT:      -7.6      1.495      3.735
REMARK  Name = 
REMARK  5 active torsions:
REMARK  status: ('A' for Active; 'I' for Inactive)
REMARK    1  A    between atoms: C_1  and  C_2
REMARK    2  A    between atoms: C_2  and  N_3
REMARK    3  A    between atoms: C_8  and  C_9
REMARK    4  A    between atoms: C_13  and  O_14
REMARK    5  A    between atoms: C_17  and  C_18
REMARK                            x       y       z     vdW  Elec       q    Type
REMARK                         _______ _______ _______ _____ _____    ______ ____
ROOT
ATOM      1  N   UNL     1       4.049   4.176  17.432  0.00  0.00    +0.000 NA
ATOM      2  C   UNL     1       2.871   3.163  17.439  0.00  0.00    +0.000 C 
ATOM      3  C   UNL     1       1.288   3.396  17.971  0.00  0.00    +0.000 C 
ATOM      4  C   UNL     1       0.991   3.267  19.592  0.00  0.00    +0.000 C 
ATOM      5  C   UNL     1       2.268   3.483  20.518  0.00  0.00    +0.000 C 
ATOM      6  C   UNL     1       3.367   3.861  19.536  0.00  0.00    +0.000 C 
ATOM      7  C   UNL     1       3.275   2.476  18.605  0.00  0.00    +0.000 C 
ATOM      8  C   UNL     1       4.638   4.154  18.822  0.00  0.00    +0.000 C 
ATOM      9  C   UNL     1       5.571   5.312  19.300  0.00  0.00    +0.000 C 
ENDROOT
BRANCH   6  10
ATOM     10  C   UNL     1       2.795   5.438  19.303  0.00  0.00    +0.000 A 
ATOM     11  C   UNL     1       2.789   6.227  18.072  0.00  0.00    +0.000 A 
ATOM     12  C   UNL     1       2.349   7.541  18.007  0.00  0.00    +0.000 A 
ATOM     13  C   UNL     1       1.945   8.194  19.140  0.00  0.00    +0.000 A 
ATOM     14  C   UNL     1       1.962   7.531  20.366  0.00  0.00    +0.000 A 
ATOM     15  C   UNL     1       2.368   6.179  20.438  0.00  0.00    +0.000 A 
BRANCH  14  16
ATOM     16  O   UNL     1       1.616   8.195  21.485  0.00  0.00    +0.000 OA
ATOM     17  H   UNL     1       1.198   7.741  22.235  0.00  0.00    +0.000 HD
ENDBRANCH  14  16
ENDBRANCH   6  10
BRANCH   1  19
ATOM     18  C   UNL     1       5.399   5.162  15.589  0.00  0.00    +0.000 C 
ATOM     19  C   UNL     1       5.116   3.930  16.436  0.00  0.00    +0.000 C 
ENDBRANCH   1  19
TORSDOF 3
ENDMDL
MODEL 3
REMARK VINA RESULT:      -7.3      2.295      4.277
REMARK  Name = 
REMARK  5 active torsions:
REMARK  status: ('A' for Active; 'I' for Inactive)
REMARK    1  A    between atoms: C_1  and  C_2
REMARK    2  A    between atoms: C_2  and  N_3
REMARK    3  A    between atoms: C_8  and  C_9
REMARK    4  A    between atoms: C_13  and  O_14
REMARK    5  A    between atoms: C_17  and  C_18
REMARK                            x       y       z     vdW  Elec       q    Type
REMARK                         _______ _______ _______ _____ _____    ______ ____
ROOT
ATOM      1  N   UNL     1       2.959   6.089  19.367  0.00  0.00    +0.000 NA
ATOM      2  C   UNL     1       2.424   4.712  19.846  0.00  0.00    +0.000 C 
ATOM      3  C   UNL     1       3.236   3.236  19.916  0.00  0.00    +0.000 C 
ATOM      4  C   UNL     1       3.352   2.351  18.524  0.00  0.00    +0.000 C 
ATOM      5  C   UNL     1       3.183   3.197  17.187  0.00  0.00    +0.000 C 
ATOM      6  C   UNL     1       3.073   4.633  17.678  0.00  0.00    +0.000 C 
ATOM      7  C   UNL     1       1.737   4.398  18.653  0.00  0.00    +0.000 C 
ATOM      8  C   UNL     1       2.846   6.090  17.862  0.00  0.00    +0.000 C 
ATOM      9  C   UNL     1       3.641   7.134  17.014  0.00  0.00    +0.000 C 
ENDROOT
BRANCH   6  10
ATOM     10  C   UNL     1       4.727   4.780  18.016  0.00  0.00    +0.000 A 
ATOM     11  C   UNL     1       5.361   5.259  19.242  0.00  0.00    +0.000 A 
ATOM     12  C   UNL     1       6.733   5.398  19.391  0.00  0.00    +0.000 A 
ATOM     13  C   UNL     1       7.574   5.140  18.342  0.00  0.00    +0.000 A 
ATOM     14  C   UNL     1       7.050   4.722  17.120  0.00  0.00    +0.000 A 
ATOM     15  C   UNL     1       5.657   4.536  16.969  0.00  0.00    +0.000 A 
BRANCH  14  16
ATOM     16  O   UNL     1       7.876   4.522  16.076  0.00  0.00    +0.000 OA
ATOM     17  H   UNL     1       8.561   3.835  16.096  0.00  0.00    +0.000 HD
ENDBRANCH  14  16
ENDBRANCH   6  10
BRANCH   1  19
ATOM     18  C   UNL     1       1.349   6.924  21.071  0.00  0.00    +0.000 C 
ATOM     19  C   UNL     1       2.276   7.282  19.918  0.00  0.00    +0.000 C 
ENDBRANCH   1  19
TORSDOF 3
ENDMDL
MODEL 4
REMARK VINA RESULT:      -6.4      2.307      3.864
REMARK  Name = 
REMARK  5 active torsions:
REMARK  status: ('A' for Active; 'I' for Inactive)
REMARK    1  A    between atoms: C_1  and  C_2
REMARK    2  A    between atoms: C_2  and  N_3
REMARK    3  A    between atoms: C_8  and  C_9
REMARK    4  A    between atoms: C_13  and  O_14
REMARK    5  A    between atoms: C_17  and  C_18
REMARK                            x       y       z     vdW  Elec       q    Type
REMARK                         _______ _______ _______ _____ _____    ______ ____
ROOT
ATOM      1  N   UNL     1       4.517   4.135  18.224  0.00  0.00    +0.000 NA
ATOM      2  C   UNL     1       4.880   3.403  16.903  0.00  0.00    +0.000 C 
ATOM      3  C   UNL     1       6.236   3.614  15.923  0.00  0.00    +0.000 C 
ATOM      4  C   UNL     1       6.227   4.872  14.852  0.00  0.00    +0.000 C 
ATOM      5  C   UNL     1       5.221   6.049  15.222  0.00  0.00    +0.000 C 
ATOM      6  C   UNL     1       4.658   5.633  16.573  0.00  0.00    +0.000 C 
ATOM      7  C   UNL     1       4.030   4.167  16.073  0.00  0.00    +0.000 C 
ATOM      8  C   UNL     1       3.879   5.444  17.824  0.00  0.00    +0.000 C 
ATOM      9  C   UNL     1       3.745   6.603  18.863  0.00  0.00    +0.000 C 
ENDROOT
BRANCH   6  10
ATOM     10  C   UNL     1       6.060   6.046  17.430  0.00  0.00    +0.000 A 
ATOM     11  C   UNL     1       6.744   5.281  18.470  0.00  0.00    +0.000 A 
ATOM     12  C   UNL     1       7.858   5.745  19.154  0.00  0.00    +0.000 A 
ATOM     13  C   UNL     1       8.344   7.003  18.917  0.00  0.00    +0.000 A 
ATOM     14  C   UNL     1       7.724   7.819  17.972  0.00  0.00    +0.000 A 
ATOM     15  C   UNL     1       6.614   7.341  17.239  0.00  0.00    +0.000 A 
BRANCH  14  16
ATOM     16  O   UNL     1       8.172   9.074  17.782  0.00  0.00    +0.000 OA
ATOM     17  H   UNL     1       9.018   9.372  18.152  0.00  0.00    +0.000 HD
ENDBRANCH  14  16
ENDBRANCH   6  10
BRANCH   1  19
ATOM     18  C   UNL     1       4.374   2.382  19.984  0.00  0.00    +0.000 C 
ATOM     19  C   UNL     1       3.619   3.406  19.149  0.00  0.00    +0.000 C 
ENDBRANCH   1  19
TORSDOF 3
ENDMDL
MODEL 5
REMARK VINA RESULT:      -6.4      1.801      3.459
REMARK  Name = 
REMARK  5 active torsions:
REMARK  status: ('A' for Active; 'I' for Inactive)
REMARK    1  A    between atoms: C_1  and  C_2
REMARK    2  A    between atoms: C_2  and  N_3
REMARK    3  A    between atoms: C_8  and  C_9
REMARK    4  A    between atoms: C_13  and  O_14
REMARK    5  A    between atoms: C_17  and  C_18
REMARK                            x       y       z     vdW  Elec       q    Type
REMARK                         _______ _______ _______ _____ _____    ______ ____
ROOT
ATOM      1  N   UNL     1       2.766   3.801  20.360  0.00  0.00    +0.000 NA
ATOM      2  C   UNL     1       2.644   2.448  19.607  0.00  0.00    +0.000 C 
ATOM      3  C   UNL     1       3.565   1.878  18.314  0.00  0.00    +0.000 C 
ATOM      4  C   UNL     1       3.168   2.397  16.795  0.00  0.00    +0.000 C 
ATOM      5  C   UNL     1       2.350   3.761  16.755  0.00  0.00    +0.000 C 
ATOM      6  C   UNL     1       2.304   4.199  18.211  0.00  0.00    +0.000 C 
ATOM      7  C   UNL     1       1.550   2.828  18.798  0.00  0.00    +0.000 C 
ATOM      8  C   UNL     1       2.018   4.818  19.532  0.00  0.00    +0.000 C 
ATOM      9  C   UNL     1       2.251   6.345  19.764  0.00  0.00    +0.000 C 
ENDROOT
BRANCH   6  10
ATOM     10  C   UNL     1       3.915   4.722  18.239  0.00  0.00    +0.000 A 
ATOM     11  C   UNL     1       4.924   4.491  19.271  0.00  0.00    +0.000 A 
ATOM     12  C   UNL     1       6.205   5.021  19.221  0.00  0.00    +0.000 A 
ATOM     13  C   UNL     1       6.569   5.859  18.201  0.00  0.00    +0.000 A 
ATOM     14  C   UNL     1       5.653   6.170  17.198  0.00  0.00    +0.000 A 
ATOM     15  C   UNL     1       4.359   5.602  17.215  0.00  0.00    +0.000 A 
BRANCH  14  16
ATOM     16  O   UNL     1       6.000   7.037  16.228  0.00  0.00    +0.000 OA
ATOM     17  H   UNL     1       5.854   7.992  16.325  0.00  0.00    +0.000 HD
ENDBRANCH  14  16
ENDBRANCH   6  10
BRANCH   1  19
ATOM     18  C   UNL     1       1.509   2.544  22.101  0.00  0.00    +0.000 C 
ATOM     19  C   UNL     1       2.259   3.821  21.751  0.00  0.00    +0.000 C 
ENDBRANCH   1  19
TORSDOF 3
ENDMDL
MODEL 6
REMARK VINA RESULT:      -6.3      1.932      3.571
REMARK  Name = 
REMARK  5 active torsions:
REMARK  status: ('A' for Active; 'I' for Inactive)
REMARK    1  A    between atoms: C_1  and  C_2
REMARK    2  A    between atoms: C_2  and  N_3
REMARK    3  A    between atoms: C_8  and  C_9
REMARK    4  A    between atoms: C_13  and  O_14
REMARK    5  A    between atoms: C_17  and  C_18
REMARK                            x       y       z     vdW  Elec       q    Type
REMARK                         _______ _______ _______ _____ _____    ______ ____
ROOT
ATOM      1  N   UNL     1       3.136   4.768  19.655  0.00  0.00    +0.000 NA
ATOM      2  C   UNL     1       3.113   3.328  19.074  0.00  0.00    +0.000 C 
ATOM      3  C   UNL     1       4.335   2.506  18.253  0.00  0.00    +0.000 C 
ATOM      4  C   UNL     1       4.524   2.814  16.639  0.00  0.00    +0.000 C 
ATOM      5  C   UNL     1       3.928   4.209  16.158  0.00  0.00    +0.000 C 
ATOM      6  C   UNL     1       3.456   4.865  17.447  0.00  0.00    +0.000 C 
ATOM      7  C   UNL     1       2.398   3.654  17.900  0.00  0.00    +0.000 C 
ATOM      8  C   UNL     1       2.826   5.697  18.506  0.00  0.00    +0.000 C 
ATOM      9  C   UNL     1       3.145   7.221  18.618  0.00  0.00    +0.000 C 
ENDROOT
BRANCH   6  10
ATOM     10  C   UNL     1       5.017   5.275  17.962  0.00  0.00    +0.000 A 
ATOM     11  C   UNL     1       5.642   5.012  19.256  0.00  0.00    +0.000 A 
ATOM     12  C   UNL     1       6.914   5.449  19.596  0.00  0.00    +0.000 A 
ATOM     13  C   UNL     1       7.637   6.220  18.726  0.00  0.00    +0.000 A 
ATOM     14  C   UNL     1       7.098   6.558  17.486  0.00  0.00    +0.000 A 
ATOM     15  C   UNL     1       5.821   6.083  17.112  0.00  0.00    +0.000 A 
BRANCH  14  16
ATOM     16  O   UNL     1       7.791   7.362  16.657  0.00  0.00    +0.000 OA
ATOM     17  H   UNL     1       8.740   7.524  16.784  0.00  0.00    +0.000 HD
ENDBRANCH  14  16
ENDBRANCH   6  10
BRANCH   1  19
ATOM     18  C   UNL     1       1.877   3.770  21.555  0.00  0.00    +0.000 C 
ATOM     19  C   UNL     1       2.205   5.034  20.775  0.00  0.00    +0.000 C 
ENDBRANCH   1  19
TORSDOF 3
ENDMDL
MODEL 7
REMARK VINA RESULT:      -6.3      2.489      4.506
REMARK  Name = 
REMARK  5 active torsions:
REMARK  status: ('A' for Active; 'I' for Inactive)
REMARK    1  A    between atoms: C_1  and  C_2
REMARK    2  A    between atoms: C_2  and  N_3
REMARK    3  A    between atoms: C_8  and  C_9
REMARK    4  A    between atoms: C_13  and  O_14
REMARK    5  A    between atoms: C_17  and  C_18
REMARK                            x       y       z     vdW  Elec       q    Type
REMARK                         _______ _______ _______ _____ _____    ______ ____
ROOT
ATOM      1  N   UNL     1       6.774   6.276  17.542  0.00  0.00    +0.000 NA
ATOM      2  C   UNL     1       6.958   6.122  16.008  0.00  0.00    +0.000 C 
ATOM      3  C   UNL     1       5.783   5.840  14.831  0.00  0.00    +0.000 C 
ATOM      4  C   UNL     1       5.273   4.284  14.606  0.00  0.00    +0.000 C 
ATOM      5  C   UNL     1       5.518   3.322  15.849  0.00  0.00    +0.000 C 
ATOM      6  C   UNL     1       6.074   4.248  16.921  0.00  0.00    +0.000 C 
ATOM      7  C   UNL     1       7.394   4.779  16.045  0.00  0.00    +0.000 C 
ATOM      8  C   UNL     1       6.713   4.876  18.106  0.00  0.00    +0.000 C 
ATOM      9  C   UNL     1       6.148   4.631  19.541  0.00  0.00    +0.000 C 
ENDROOT
BRANCH   6  10
ATOM     10  C   UNL     1       4.574   4.952  17.274  0.00  0.00    +0.000 A 
ATOM     11  C   UNL     1       4.281   6.350  17.583  0.00  0.00    +0.000 A 
ATOM     12  C   UNL     1       3.016   6.810  17.919  0.00  0.00    +0.000 A 
ATOM     13  C   UNL     1       1.969   5.937  18.037  0.00  0.00    +0.000 A 
ATOM     14  C   UNL     1       2.169   4.577  17.804  0.00  0.00    +0.000 A 
ATOM     15  C   UNL     1       3.444   4.102  17.419  0.00  0.00    +0.000 A 
BRANCH  14  16
ATOM     16  O   UNL     1       1.149   3.716  17.975  0.00  0.00    +0.000 OA
ATOM     17  H   UNL     1       0.225   4.011  17.938  0.00  0.00    +0.000 HD
ENDBRANCH  14  16
ENDBRANCH   6  10
BRANCH   1  19
ATOM     18  C   UNL     1       7.920   8.477  17.724  0.00  0.00    +0.000 C 
ATOM     19  C   UNL     1       7.817   7.053  18.250  0.00  0.00    +0.000 C 
ENDBRANCH   1  19
TORSDOF 3
ENDMDL
MODEL 8
REMARK VINA RESULT:      -6.1      1.111      1.584
REMARK  Name = 
REMARK  5 active torsions:
REMARK  status: ('A' for Active; 'I' for Inactive)
REMARK    1  A    between atoms: C_1  and  C_2
REMARK    2  A    between atoms: C_2  and  N_3
REMARK    3  A    between atoms: C_8  and  C_9
REMARK    4  A    between atoms: C_13  and  O_14
REMARK    5  A    between atoms: C_17  and  C_18
REMARK                            x       y       z     vdW  Elec       q    Type
REMARK                         _______ _______ _______ _____ _____    ______ ____
ROOT
ATOM      1  N   UNL     1       3.058   3.970  19.362  0.00  0.00    +0.000 NA
ATOM      2  C   UNL     1       4.603   4.115  19.429  0.00  0.00    +0.000 C 
ATOM      3  C   UNL     1       5.535   5.511  19.273  0.00  0.00    +0.000 C 
ATOM      4  C   UNL     1       5.867   6.052  17.746  0.00  0.00    +0.000 C 
ATOM      5  C   UNL     1       4.853   5.545  16.629  0.00  0.00    +0.000 C 
ATOM      6  C   UNL     1       3.801   4.778  17.417  0.00  0.00    +0.000 C 
ATOM      7  C   UNL     1       4.849   3.675  18.109  0.00  0.00    +0.000 C 
ATOM      8  C   UNL     1       2.699   3.904  17.897  0.00  0.00    +0.000 C 
ATOM      9  C   UNL     1       1.227   4.150  17.436  0.00  0.00    +0.000 C 
ENDROOT
BRANCH   6  10
ATOM     10  C   UNL     1       3.045   6.171  18.014  0.00  0.00    +0.000 A 
ATOM     11  C   UNL     1       2.810   7.439  17.326  0.00  0.00    +0.000 A 
ATOM     12  C   UNL     1       2.232   8.544  17.934  0.00  0.00    +0.000 A 
ATOM     13  C   UNL     1       1.901   8.511  19.261  0.00  0.00    +0.000 A 
ATOM     14  C   UNL     1       2.133   7.356  20.006  0.00  0.00    +0.000 A 
ATOM     15  C   UNL     1       2.682   6.210  19.388  0.00  0.00    +0.000 A 
BRANCH  14  16
ATOM     16  O   UNL     1       1.857   7.348  21.323  0.00  0.00    +0.000 OA
ATOM     17  H   UNL     1       2.473   7.723  21.973  0.00  0.00    +0.000 HD
ENDBRANCH  14  16
ENDBRANCH   6  10
BRANCH   1  19
ATOM     18  C   UNL     1       1.486   3.223  21.141  0.00  0.00    +0.000 C 
ATOM     19  C   UNL     1       2.481   2.803  20.069  0.00  0.00    +0.000 C 
ENDBRANCH   1  19
TORSDOF 3
ENDMDL
MODEL 9
REMARK VINA RESULT:      -6.1      9.537     11.154
REMARK  Name = 
REMARK  5 active torsions:
REMARK  status: ('A' for Active; 'I' for Inactive)
REMARK    1  A    between atoms: C_1  and  C_2
REMARK    2  A    between atoms: C_2  and  N_3
REMARK    3  A    between atoms: C_8  and  C_9
REMARK    4  A    between atoms: C_13  and  O_14
REMARK    5  A    between atoms: C_17  and  C_18
REMARK                            x       y       z     vdW  Elec       q    Type
REMARK                         _______ _______ _______ _____ _____    ______ ____
ROOT
ATOM      1  N   UNL     1       9.682  13.171  21.081  0.00  0.00    +0.000 NA
ATOM      2  C   UNL     1      10.628  11.969  20.810  0.00  0.00    +0.000 C 
ATOM      3  C   UNL     1      12.003  11.913  19.835  0.00  0.00    +0.000 C 
ATOM      4  C   UNL     1      11.789  11.703  18.209  0.00  0.00    +0.000 C 
ATOM      5  C   UNL     1      10.349  12.119  17.672  0.00  0.00    +0.000 C 
ATOM      6  C   UNL     1       9.660  12.701  18.897  0.00  0.00    +0.000 C 
ATOM      7  C   UNL     1       9.797  11.340  19.857  0.00  0.00    +0.000 C 
ATOM      8  C   UNL     1       8.718  13.225  19.920  0.00  0.00    +0.000 C 
ATOM      9  C   UNL     1       7.884  14.517  19.650  0.00  0.00    +0.000 C 
ENDROOT
BRANCH   6  10
ATOM     10  C   UNL     1      10.521  14.160  18.848  0.00  0.00    +0.000 A 
ATOM     11  C   UNL     1      11.346  14.759  19.894  0.00  0.00    +0.000 A 
ATOM     12  C   UNL     1      11.961  15.997  19.769  0.00  0.00    +0.000 A 
ATOM     13  C   UNL     1      11.766  16.758  18.648  0.00  0.00    +0.000 A 
ATOM     14  C   UNL     1      10.956  16.282  17.619  0.00  0.00    +0.000 A 
ATOM     15  C   UNL     1      10.358  15.005  17.717  0.00  0.00    +0.000 A 
BRANCH  14  16
ATOM     16  O   UNL     1      10.724  17.057  16.543  0.00  0.00    +0.000 OA
ATOM     17  H   UNL     1      11.118  17.940  16.461  0.00  0.00    +0.000 HD
ENDBRANCH  14  16
ENDBRANCH   6  10
BRANCH   1  19
ATOM     18  C   UNL     1       9.022  14.450  23.111  0.00  0.00    +0.000 C 
ATOM     19  C   UNL     1       8.928  13.133  22.354  0.00  0.00    +0.000 C 
ENDBRANCH   1  19
TORSDOF 3
ENDMDL
