MODEL 1
REMARK VINA RESULT:      -8.2      0.000      0.000
REMARK  Name = 
REMARK  6 active torsions:
REMARK  status: ('A' for Active; 'I' for Inactive)
REMARK    1  A    between atoms: C_1  and  C_2
REMARK    2  A    between atoms: C_7  and  C_8
REMARK    3  A    between atoms: C_9  and  C_10
REMARK    4  A    between atoms: C_10  and  C_12
REMARK    5  A    between atoms: C_14  and  C_15
REMARK    6  A    between atoms: C_17  and  C_18
REMARK                            x       y       z     vdW  Elec       q    Type
REMARK                         _______ _______ _______ _____ _____    ______ ____
ROOT
ATOM      1  C   UNL     1       6.169   3.793  15.203  0.00  0.00    +0.000 C 
ATOM      2  C   UNL     1       5.328   4.645  16.106  0.00  0.00    +0.000 A 
ATOM      3  C   UNL     1       5.334   6.036  15.992  0.00  0.00    +0.000 A 
ATOM      4  C   UNL     1       4.518   6.807  16.819  0.00  0.00    +0.000 A 
ATOM      5  C   UNL     1       3.715   6.194  17.793  0.00  0.00    +0.000 A 
ATOM      6  C   UNL     1       2.918   6.952  18.661  0.00  0.00    +0.000 A 
ATOM      7  C   UNL     1       2.189   6.322  19.670  0.00  0.00    +0.000 A 
ATOM      8  C   UNL     1       2.275   4.934  19.734  0.00  0.00    +0.000 A 
ATOM      9 CL   UNL     1       1.493   4.019  20.967  0.00  0.00    +0.000 Cl
ATOM     10  N   UNL     1       2.999   4.168  18.888  0.00  0.00    +0.000 NA
ATOM     11  C   UNL     1       3.715   4.791  17.938  0.00  0.00    +0.000 A 
ATOM     12  C   UNL     1       4.505   4.043  17.073  0.00  0.00    +0.000 A 
ENDROOT
BRANCH   7  13
ATOM     13  C   UNL     1       1.451   7.153  20.624  0.00  0.00    +0.000 C 
ATOM     14  C   UNL     1       1.388   8.484  20.461  0.00  0.00    +0.000 C 
BRANCH  14  15
ATOM     15  C   UNL     1       0.589   9.310  21.400  0.00  0.00    +0.000 C 
ATOM     16  O   UNL     1       0.666   9.166  22.616  0.00  0.00    +0.000 OA
BRANCH  15  17
ATOM     17  C   UNL     1      -0.323  10.251  20.739  0.00  0.00    +0.000 A 
ATOM     18  C   UNL     1      -0.641  10.285  19.336  0.00  0.00    +0.000 A 
ATOM     19  C   UNL     1      -1.512  11.298  19.001  0.00  0.00    +0.000 A 
ATOM     20  C   UNL     1      -2.049  11.654  17.658  0.00  0.00    +0.000 C 
ATOM     21  S   UNL     1      -1.958  12.213  20.369  0.00  0.00    +0.000 S 
ATOM     22  C   UNL     1      -0.981  11.273  21.412  0.00  0.00    +0.000 A 
ATOM     23  C   UNL     1      -0.944  11.604  22.871  0.00  0.00    +0.000 C 
ENDBRANCH  15  17
ENDBRANCH  14  15
ENDBRANCH   7  13
TORSDOF 3
ENDMDL
MODEL 2
REMARK VINA RESULT:      -7.9      1.491      1.897
REMARK  Name = 
REMARK  6 active torsions:
REMARK  status: ('A' for Active; 'I' for Inactive)
REMARK    1  A    between atoms: C_1  and  C_2
REMARK    2  A    between atoms: C_7  and  C_8
REMARK    3  A    between atoms: C_9  and  C_10
REMARK    4  A    between atoms: C_10  and  C_12
REMARK    5  A    between atoms: C_14  and  C_15
REMARK    6  A    between atoms: C_17  and  C_18
REMARK                            x       y       z     vdW  Elec       q    Type
REMARK                         _______ _______ _______ _____ _____    ______ ____
ROOT
ATOM      1  C   UNL     1       6.224   3.653  14.968  0.00  0.00    +0.000 C 
ATOM      2  C   UNL     1       5.433   4.608  15.812  0.00  0.00    +0.000 A 
ATOM      3  C   UNL     1       5.448   5.978  15.552  0.00  0.00    +0.000 A 
ATOM      4  C   UNL     1       4.678   6.844  16.327  0.00  0.00    +0.000 A 
ATOM      5  C   UNL     1       3.913   6.349  17.394  0.00  0.00    +0.000 A 
ATOM      6  C   UNL     1       3.165   7.206  18.211  0.00  0.00    +0.000 A 
ATOM      7  C   UNL     1       2.475   6.697  19.313  0.00  0.00    +0.000 A 
ATOM      8  C   UNL     1       2.549   5.323  19.519  0.00  0.00    +0.000 A 
ATOM      9 CL   UNL     1       1.815   4.553  20.875  0.00  0.00    +0.000 Cl
ATOM     10  N   UNL     1       3.227   4.460  18.728  0.00  0.00    +0.000 NA
ATOM     11  C   UNL     1       3.906   4.969  17.687  0.00  0.00    +0.000 A 
ATOM     12  C   UNL     1       4.648   4.123  16.872  0.00  0.00    +0.000 A 
ENDROOT
BRANCH   7  13
ATOM     13  C   UNL     1       1.789   7.635  20.205  0.00  0.00    +0.000 C 
ATOM     14  C   UNL     1       1.385   8.832  19.752  0.00  0.00    +0.000 C 
BRANCH  14  15
ATOM     15  C   UNL     1       0.639   9.751  20.649  0.00  0.00    +0.000 C 
ATOM     16  O   UNL     1       0.195   9.381  21.731  0.00  0.00    +0.000 OA
BRANCH  15  17
ATOM     17  C   UNL     1       0.442  11.095  20.094  0.00  0.00    +0.000 A 
ATOM     18  C   UNL     1       1.197  12.274  20.429  0.00  0.00    +0.000 A 
ATOM     19  C   UNL     1       0.767  13.401  19.763  0.00  0.00    +0.000 A 
ATOM     20  C   UNL     1       1.288  14.793  19.865  0.00  0.00    +0.000 C 
ATOM     21  S   UNL     1      -0.541  13.052  18.728  0.00  0.00    +0.000 S 
ATOM     22  C   UNL     1      -0.552  11.400  19.172  0.00  0.00    +0.000 A 
ATOM     23  C   UNL     1      -1.558  10.484  18.549  0.00  0.00    +0.000 C 
ENDBRANCH  15  17
ENDBRANCH  14  15
ENDBRANCH   7  13
TORSDOF 3
ENDMDL
MODEL 3
REMARK VINA RESULT:      -7.9      3.712      8.128
REMARK  Name = 
REMARK  6 active torsions:
REMARK  status: ('A' for Active; 'I' for Inactive)
REMARK    1  A    between atoms: C_1  and  C_2
REMARK    2  A    between atoms: C_7  and  C_8
REMARK    3  A    between atoms: C_9  and  C_10
REMARK    4  A    between atoms: C_10  and  C_12
REMARK    5  A    between atoms: C_14  and  C_15
REMARK    6  A    between atoms: C_17  and  C_18
REMARK                            x       y       z     vdW  Elec       q    Type
REMARK                         _______ _______ _______ _____ _____    ______ ____
ROOT
ATOM      1  C   UNL     1      -1.109  12.142  22.706  0.00  0.00    +0.000 C 
ATOM      2  C   UNL     1      -0.452  10.891  22.204  0.00  0.00    +0.000 A 
ATOM      3  C   UNL     1      -0.373   9.751  23.003  0.00  0.00    +0.000 A 
ATOM      4  C   UNL     1       0.211   8.588  22.504  0.00  0.00    +0.000 A 
ATOM      5  C   UNL     1       0.754   8.567  21.210  0.00  0.00    +0.000 A 
ATOM      6  C   UNL     1       1.382   7.423  20.703  0.00  0.00    +0.000 A 
ATOM      7  C   UNL     1       1.981   7.453  19.443  0.00  0.00    +0.000 A 
ATOM      8  C   UNL     1       1.888   8.646  18.732  0.00  0.00    +0.000 A 
ATOM      9 CL   UNL     1       2.638   8.865  17.196  0.00  0.00    +0.000 Cl
ATOM     10  N   UNL     1       1.254   9.757  19.172  0.00  0.00    +0.000 NA
ATOM     11  C   UNL     1       0.704   9.719  20.397  0.00  0.00    +0.000 A 
ATOM     12  C   UNL     1       0.078  10.851  20.903  0.00  0.00    +0.000 A 
ENDROOT
BRANCH   7  13
ATOM     13  C   UNL     1       2.718   6.272  18.988  0.00  0.00    +0.000 C 
ATOM     14  C   UNL     1       3.468   5.565  19.849  0.00  0.00    +0.000 C 
BRANCH  14  15
ATOM     15  C   UNL     1       4.164   4.337  19.391  0.00  0.00    +0.000 C 
ATOM     16  O   UNL     1       4.094   3.282  20.014  0.00  0.00    +0.000 OA
BRANCH  15  17
ATOM     17  C   UNL     1       4.973   4.526  18.181  0.00  0.00    +0.000 A 
ATOM     18  C   UNL     1       4.593   4.170  16.839  0.00  0.00    +0.000 A 
ATOM     19  C   UNL     1       5.570   4.445  15.907  0.00  0.00    +0.000 A 
ATOM     20  C   UNL     1       5.545   4.201  14.438  0.00  0.00    +0.000 C 
ATOM     21  S   UNL     1       6.947   5.137  16.635  0.00  0.00    +0.000 S 
ATOM     22  C   UNL     1       6.255   5.059  18.198  0.00  0.00    +0.000 A 
ATOM     23  C   UNL     1       7.040   5.564  19.368  0.00  0.00    +0.000 C 
ENDBRANCH  15  17
ENDBRANCH  14  15
ENDBRANCH   7  13
TORSDOF 3
ENDMDL
MODEL 4
REMARK VINA RESULT:      -7.9      3.540      8.188
REMARK  Name = 
REMARK  6 active torsions:
REMARK  status: ('A' for Active; 'I' for Inactive)
REMARK    1  A    between atoms: C_1  and  C_2
REMARK    2  A    between atoms: C_7  and  C_8
REMARK    3  A    between atoms: C_9  and  C_10
REMARK    4  A    between atoms: C_10  and  C_12
REMARK    5  A    between atoms: C_14  and  C_15
REMARK    6  A    between atoms: C_17  and  C_18
REMARK                            x       y       z     vdW  Elec       q    Type
REMARK                         _______ _______ _______ _____ _____    ______ ____
ROOT
ATOM      1  C   UNL     1      -2.018  13.541  21.273  0.00  0.00    +0.000 C 
ATOM      2  C   UNL     1      -1.270  12.244  21.371  0.00  0.00    +0.000 A 
ATOM      3  C   UNL     1      -1.193  11.549  22.578  0.00  0.00    +0.000 A 
ATOM      4  C   UNL     1      -0.522  10.329  22.638  0.00  0.00    +0.000 A 
ATOM      5  C   UNL     1       0.108   9.810  21.497  0.00  0.00    +0.000 A 
ATOM      6  C   UNL     1       0.822   8.605  21.545  0.00  0.00    +0.000 A 
ATOM      7  C   UNL     1       1.504   8.151  20.415  0.00  0.00    +0.000 A 
ATOM      8  C   UNL     1       1.404   8.930  19.266  0.00  0.00    +0.000 A 
ATOM      9 CL   UNL     1       2.246   8.542  17.814  0.00  0.00    +0.000 Cl
ATOM     10  N   UNL     1       0.690  10.075  19.172  0.00  0.00    +0.000 NA
ATOM     11  C   UNL     1       0.060  10.511  20.274  0.00  0.00    +0.000 A 
ATOM     12  C   UNL     1      -0.651  11.704  20.232  0.00  0.00    +0.000 A 
ENDROOT
BRANCH   7  13
ATOM     13  C   UNL     1       2.325   6.943  20.531  0.00  0.00    +0.000 C 
ATOM     14  C   UNL     1       1.851   5.757  20.119  0.00  0.00    +0.000 C 
BRANCH  14  15
ATOM     15  C   UNL     1       2.714   4.550  20.187  0.00  0.00    +0.000 C 
ATOM     16  O   UNL     1       2.575   3.704  21.064  0.00  0.00    +0.000 OA
BRANCH  15  17
ATOM     17  C   UNL     1       3.760   4.506  19.159  0.00  0.00    +0.000 A 
ATOM     18  C   UNL     1       5.106   4.997  19.292  0.00  0.00    +0.000 A 
ATOM     19  C   UNL     1       5.856   4.840  18.147  0.00  0.00    +0.000 A 
ATOM     20  C   UNL     1       7.271   5.240  17.904  0.00  0.00    +0.000 C 
ATOM     21  S   UNL     1       4.952   4.100  16.907  0.00  0.00    +0.000 S 
ATOM     22  C   UNL     1       3.551   3.997  17.883  0.00  0.00    +0.000 A 
ATOM     23  C   UNL     1       2.310   3.385  17.314  0.00  0.00    +0.000 C 
ENDBRANCH  15  17
ENDBRANCH  14  15
ENDBRANCH   7  13
TORSDOF 3
ENDMDL
MODEL 5
REMARK VINA RESULT:      -7.8      3.689      8.321
REMARK  Name = 
REMARK  6 active torsions:
REMARK  status: ('A' for Active; 'I' for Inactive)
REMARK    1  A    between atoms: C_1  and  C_2
REMARK    2  A    between atoms: C_7  and  C_8
REMARK    3  A    between atoms: C_9  and  C_10
REMARK    4  A    between atoms: C_10  and  C_12
REMARK    5  A    between atoms: C_14  and  C_15
REMARK    6  A    between atoms: C_17  and  C_18
REMARK                            x       y       z     vdW  Elec       q    Type
REMARK                         _______ _______ _______ _____ _____    ______ ____
ROOT
ATOM      1  C   UNL     1      -1.615  12.947  21.932  0.00  0.00    +0.000 C 
ATOM      2  C   UNL     1      -0.906  11.633  21.793  0.00  0.00    +0.000 A 
ATOM      3  C   UNL     1      -0.846  10.733  22.857  0.00  0.00    +0.000 A 
ATOM      4  C   UNL     1      -0.212   9.503  22.695  0.00  0.00    +0.000 A 
ATOM      5  C   UNL     1       0.401   9.177  21.475  0.00  0.00    +0.000 A 
ATOM      6  C   UNL     1       1.079   7.963  21.303  0.00  0.00    +0.000 A 
ATOM      7  C   UNL     1       1.746   7.697  20.106  0.00  0.00    +0.000 A 
ATOM      8  C   UNL     1       1.666   8.670  19.114  0.00  0.00    +0.000 A 
ATOM      9 CL   UNL     1       2.494   8.523  17.610  0.00  0.00    +0.000 Cl
ATOM     10  N   UNL     1       0.986   9.834  19.229  0.00  0.00    +0.000 NA
ATOM     11  C   UNL     1       0.372  10.085  20.396  0.00  0.00    +0.000 A 
ATOM     12  C   UNL     1      -0.304  11.287  20.571  0.00  0.00    +0.000 A 
ENDROOT
BRANCH   7  13
ATOM     13  C   UNL     1       2.531   6.466  20.000  0.00  0.00    +0.000 C 
ATOM     14  C   UNL     1       2.411   5.673  18.923  0.00  0.00    +0.000 C 
BRANCH  14  15
ATOM     15  C   UNL     1       3.254   4.457  18.799  0.00  0.00    +0.000 C 
ATOM     16  O   UNL     1       2.809   3.335  19.014  0.00  0.00    +0.000 OA
BRANCH  15  17
ATOM     17  C   UNL     1       4.655   4.736  18.460  0.00  0.00    +0.000 A 
ATOM     18  C   UNL     1       5.659   5.257  19.350  0.00  0.00    +0.000 A 
ATOM     19  C   UNL     1       6.882   5.438  18.742  0.00  0.00    +0.000 A 
ATOM     20  C   UNL     1       8.142   5.970  19.333  0.00  0.00    +0.000 C 
ATOM     21  S   UNL     1       6.834   4.982  17.101  0.00  0.00    +0.000 S 
ATOM     22  C   UNL     1       5.180   4.553  17.187  0.00  0.00    +0.000 A 
ATOM     23  C   UNL     1       4.497   4.031  15.962  0.00  0.00    +0.000 C 
ENDBRANCH  15  17
ENDBRANCH  14  15
ENDBRANCH   7  13
TORSDOF 3
ENDMDL
MODEL 6
REMARK VINA RESULT:      -7.8      3.718      8.160
REMARK  Name = 
REMARK  6 active torsions:
REMARK  status: ('A' for Active; 'I' for Inactive)
REMARK    1  A    between atoms: C_1  and  C_2
REMARK    2  A    between atoms: C_7  and  C_8
REMARK    3  A    between atoms: C_9  and  C_10
REMARK    4  A    between atoms: C_10  and  C_12
REMARK    5  A    between atoms: C_14  and  C_15
REMARK    6  A    between atoms: C_17  and  C_18
REMARK                            x       y       z     vdW  Elec       q    Type
REMARK                         _______ _______ _______ _____ _____    ______ ____
ROOT
ATOM      1  C   UNL     1      -5.328  12.219  17.058  0.00  0.00    +0.000 C 
ATOM      2  C   UNL     1      -4.018  11.494  17.144  0.00  0.00    +0.000 A 
ATOM      3  C   UNL     1      -3.622  10.604  16.146  0.00  0.00    +0.000 A 
ATOM      4  C   UNL     1      -2.385   9.968  16.229  0.00  0.00    +0.000 A 
ATOM      5  C   UNL     1      -1.547  10.189  17.333  0.00  0.00    +0.000 A 
ATOM      6  C   UNL     1      -0.318   9.529  17.457  0.00  0.00    +0.000 A 
ATOM      7  C   UNL     1       0.460   9.708  18.602  0.00  0.00    +0.000 A 
ATOM      8  C   UNL     1      -0.033  10.583  19.565  0.00  0.00    +0.000 A 
ATOM      9 CL   UNL     1       0.774  10.854  21.063  0.00  0.00    +0.000 Cl
ATOM     10  N   UNL     1      -1.194  11.269  19.460  0.00  0.00    +0.000 NA
ATOM     11  C   UNL     1      -1.942  11.067  18.364  0.00  0.00    +0.000 A 
ATOM     12  C   UNL     1      -3.162  11.721  18.235  0.00  0.00    +0.000 A 
ENDROOT
BRANCH   7  13
ATOM     13  C   UNL     1       1.688   8.922  18.745  0.00  0.00    +0.000 C 
ATOM     14  C   UNL     1       1.920   7.871  17.943  0.00  0.00    +0.000 C 
BRANCH  14  15
ATOM     15  C   UNL     1       3.193   7.117  18.058  0.00  0.00    +0.000 C 
ATOM     16  O   UNL     1       4.249   7.557  17.616  0.00  0.00    +0.000 OA
BRANCH  15  17
ATOM     17  C   UNL     1       3.050   5.797  18.685  0.00  0.00    +0.000 A 
ATOM     18  C   UNL     1       2.414   5.518  19.945  0.00  0.00    +0.000 A 
ATOM     19  C   UNL     1       2.453   4.185  20.289  0.00  0.00    +0.000 A 
ATOM     20  C   UNL     1       1.920   3.527  21.515  0.00  0.00    +0.000 C 
ATOM     21  S   UNL     1       3.251   3.259  19.101  0.00  0.00    +0.000 S 
ATOM     22  C   UNL     1       3.561   4.631  18.128  0.00  0.00    +0.000 A 
ATOM     23  C   UNL     1       4.291   4.457  16.834  0.00  0.00    +0.000 C 
ENDBRANCH  15  17
ENDBRANCH  14  15
ENDBRANCH   7  13
TORSDOF 3
ENDMDL
MODEL 7
REMARK VINA RESULT:      -7.8      1.111      1.354
REMARK  Name = 
REMARK  6 active torsions:
REMARK  status: ('A' for Active; 'I' for Inactive)
REMARK    1  A    between atoms: C_1  and  C_2
REMARK    2  A    between atoms: C_7  and  C_8
REMARK    3  A    between atoms: C_9  and  C_10
REMARK    4  A    between atoms: C_10  and  C_12
REMARK    5  A    between atoms: C_14  and  C_15
REMARK    6  A    between atoms: C_17  and  C_18
REMARK                            x       y       z     vdW  Elec       q    Type
REMARK                         _______ _______ _______ _____ _____    ______ ____
ROOT
ATOM      1  C   UNL     1       6.552   3.622  15.328  0.00  0.00    +0.000 C 
ATOM      2  C   UNL     1       5.687   4.645  16.002  0.00  0.00    +0.000 A 
ATOM      3  C   UNL     1       5.665   5.969  15.562  0.00  0.00    +0.000 A 
ATOM      4  C   UNL     1       4.828   6.896  16.181  0.00  0.00    +0.000 A 
ATOM      5  C   UNL     1       4.031   6.514  17.271  0.00  0.00    +0.000 A 
ATOM      6  C   UNL     1       3.213   7.438  17.933  0.00  0.00    +0.000 A 
ATOM      7  C   UNL     1       2.490   7.050  19.062  0.00  0.00    +0.000 A 
ATOM      8  C   UNL     1       2.604   5.719  19.454  0.00  0.00    +0.000 A 
ATOM      9 CL   UNL     1       1.833   5.105  20.867  0.00  0.00    +0.000 Cl
ATOM     10  N   UNL     1       3.351   4.790  18.814  0.00  0.00    +0.000 NA
ATOM     11  C   UNL     1       4.059   5.185  17.745  0.00  0.00    +0.000 A 
ATOM     12  C   UNL     1       4.871   4.272  17.083  0.00  0.00    +0.000 A 
ENDROOT
BRANCH   7  13
ATOM     13  C   UNL     1       1.729   8.067  19.791  0.00  0.00    +0.000 C 
ATOM     14  C   UNL     1       1.336   9.193  19.175  0.00  0.00    +0.000 C 
BRANCH  14  15
ATOM     15  C   UNL     1       0.515  10.191  19.906  0.00  0.00    +0.000 C 
ATOM     16  O   UNL     1       0.821  10.586  21.026  0.00  0.00    +0.000 OA
BRANCH  15  17
ATOM     17  C   UNL     1      -0.702  10.599  19.193  0.00  0.00    +0.000 A 
ATOM     18  C   UNL     1      -1.107  10.165  17.882  0.00  0.00    +0.000 A 
ATOM     19  C   UNL     1      -2.287  10.738  17.462  0.00  0.00    +0.000 A 
ATOM     20  C   UNL     1      -3.001  10.546  16.168  0.00  0.00    +0.000 C 
ATOM     21  S   UNL     1      -2.919  11.796  18.638  0.00  0.00    +0.000 S 
ATOM     22  C   UNL     1      -1.616  11.510  19.709  0.00  0.00    +0.000 A 
ATOM     23  C   UNL     1      -1.593  12.207  21.033  0.00  0.00    +0.000 C 
ENDBRANCH  15  17
ENDBRANCH  14  15
ENDBRANCH   7  13
TORSDOF 3
ENDMDL
MODEL 8
REMARK VINA RESULT:      -7.6      1.054      1.069
REMARK  Name = 
REMARK  6 active torsions:
REMARK  status: ('A' for Active; 'I' for Inactive)
REMARK    1  A    between atoms: C_1  and  C_2
REMARK    2  A    between atoms: C_7  and  C_8
REMARK    3  A    between atoms: C_9  and  C_10
REMARK    4  A    between atoms: C_10  and  C_12
REMARK    5  A    between atoms: C_14  and  C_15
REMARK    6  A    between atoms: C_17  and  C_18
REMARK                            x       y       z     vdW  Elec       q    Type
REMARK                         _______ _______ _______ _____ _____    ______ ____
ROOT
ATOM      1  C   UNL     1       6.803   4.202  15.501  0.00  0.00    +0.000 C 
ATOM      2  C   UNL     1       5.773   4.930  16.313  0.00  0.00    +0.000 A 
ATOM      3  C   UNL     1       5.392   6.232  15.989  0.00  0.00    +0.000 A 
ATOM      4  C   UNL     1       4.408   6.877  16.736  0.00  0.00    +0.000 A 
ATOM      5  C   UNL     1       3.821   6.236  17.839  0.00  0.00    +0.000 A 
ATOM      6  C   UNL     1       2.860   6.880  18.628  0.00  0.00    +0.000 A 
ATOM      7  C   UNL     1       2.350   6.249  19.764  0.00  0.00    +0.000 A 
ATOM      8  C   UNL     1       2.818   4.966  20.032  0.00  0.00    +0.000 A 
ATOM      9 CL   UNL     1       2.340   4.086  21.434  0.00  0.00    +0.000 Cl
ATOM     10  N   UNL     1       3.713   4.297  19.270  0.00  0.00    +0.000 NA
ATOM     11  C   UNL     1       4.213   4.928  18.195  0.00  0.00    +0.000 A 
ATOM     12  C   UNL     1       5.165   4.293  17.408  0.00  0.00    +0.000 A 
ENDROOT
BRANCH   7  13
ATOM     13  C   UNL     1       1.426   6.993  20.623  0.00  0.00    +0.000 C 
ATOM     14  C   UNL     1       1.372   8.333  20.565  0.00  0.00    +0.000 C 
BRANCH  14  15
ATOM     15  C   UNL     1       0.390   9.073  21.398  0.00  0.00    +0.000 C 
ATOM     16  O   UNL     1      -0.193   8.541  22.337  0.00  0.00    +0.000 OA
BRANCH  15  17
ATOM     17  C   UNL     1       0.154  10.452  20.956  0.00  0.00    +0.000 A 
ATOM     18  C   UNL     1       0.632  11.050  19.737  0.00  0.00    +0.000 A 
ATOM     19  C   UNL     1       0.270  12.372  19.603  0.00  0.00    +0.000 A 
ATOM     20  C   UNL     1       0.594  13.314  18.495  0.00  0.00    +0.000 C 
ATOM     21  S   UNL     1      -0.648  12.905  20.936  0.00  0.00    +0.000 S 
ATOM     22  C   UNL     1      -0.557  11.380  21.707  0.00  0.00    +0.000 A 
ATOM     23  C   UNL     1      -1.230  11.191  23.030  0.00  0.00    +0.000 C 
ENDBRANCH  15  17
ENDBRANCH  14  15
ENDBRANCH   7  13
TORSDOF 3
ENDMDL
MODEL 9
REMARK VINA RESULT:      -7.6      4.089      8.381
REMARK  Name = 
REMARK  6 active torsions:
REMARK  status: ('A' for Active; 'I' for Inactive)
REMARK    1  A    between atoms: C_1  and  C_2
REMARK    2  A    between atoms: C_7  and  C_8
REMARK    3  A    between atoms: C_9  and  C_10
REMARK    4  A    between atoms: C_10  and  C_12
REMARK    5  A    between atoms: C_14  and  C_15
REMARK    6  A    between atoms: C_17  and  C_18
REMARK                            x       y       z     vdW  Elec       q    Type
REMARK                         _______ _______ _______ _____ _____    ______ ____
ROOT
ATOM      1  C   UNL     1      -2.008  12.869  23.698  0.00  0.00    +0.000 C 
ATOM      2  C   UNL     1      -1.292  11.900  22.805  0.00  0.00    +0.000 A 
ATOM      3  C   UNL     1      -1.262  10.537  23.102  0.00  0.00    +0.000 A 
ATOM      4  C   UNL     1      -0.621   9.650  22.240  0.00  0.00    +0.000 A 
ATOM      5  C   UNL     1       0.030  10.124  21.090  0.00  0.00    +0.000 A 
ATOM      6  C   UNL     1       0.716   9.254  20.232  0.00  0.00    +0.000 A 
ATOM      7  C   UNL     1       1.419   9.761  19.138  0.00  0.00    +0.000 A 
ATOM      8  C   UNL     1       1.367  11.138  18.942  0.00  0.00    +0.000 A 
ATOM      9 CL   UNL     1       2.241  11.923  17.682  0.00  0.00    +0.000 Cl
ATOM     10  N   UNL     1       0.681  12.002  19.725  0.00  0.00    +0.000 NA
ATOM     11  C   UNL     1       0.031  11.501  20.788  0.00  0.00    +0.000 A 
ATOM     12  C   UNL     1      -0.653  12.359  21.641  0.00  0.00    +0.000 A 
ENDROOT
BRANCH   7  13
ATOM     13  C   UNL     1       2.210   8.836  18.323  0.00  0.00    +0.000 C 
ATOM     14  C   UNL     1       2.615   7.661  18.829  0.00  0.00    +0.000 C 
BRANCH  14  15
ATOM     15  C   UNL     1       3.367   6.706  17.976  0.00  0.00    +0.000 C 
ATOM     16  O   UNL     1       4.080   7.084  17.053  0.00  0.00    +0.000 OA
BRANCH  15  17
ATOM     17  C   UNL     1       3.126   5.296  18.306  0.00  0.00    +0.000 A 
ATOM     18  C   UNL     1       1.868   4.602  18.216  0.00  0.00    +0.000 A 
ATOM     19  C   UNL     1       1.944   3.287  18.616  0.00  0.00    +0.000 A 
ATOM     20  C   UNL     1       0.854   2.272  18.678  0.00  0.00    +0.000 C 
ATOM     21  S   UNL     1       3.525   2.873  19.100  0.00  0.00    +0.000 S 
ATOM     22  C   UNL     1       4.115   4.449  18.792  0.00  0.00    +0.000 A 
ATOM     23  C   UNL     1       5.560   4.747  19.038  0.00  0.00    +0.000 C 
ENDBRANCH  15  17
ENDBRANCH  14  15
ENDBRANCH   7  13
TORSDOF 3
ENDMDL
