MODEL 1
REMARK VINA RESULT:      -8.3      0.000      0.000
REMARK  Name = 
REMARK  7 active torsions:
REMARK  status: ('A' for Active; 'I' for Inactive)
REMARK    1  A    between atoms: C_1  and  C_2
REMARK    2  A    between atoms: C_3  and  N_4
REMARK    3  A    between atoms: N_4  and  C_5
REMARK    4  A    between atoms: C_5  and  C_6
REMARK    5  A    between atoms: C_9  and  C_10
REMARK    6  A    between atoms: N_19  and  C_20
REMARK    7  A    between atoms: N_26  and  C_27
REMARK                            x       y       z     vdW  Elec       q    Type
REMARK                         _______ _______ _______ _____ _____    ______ ____
ROOT
ATOM      1  C   UNL     1       3.534   2.302  17.857  0.00  0.00    +0.000 C 
ATOM      2  C   UNL     1       3.775   3.755  18.123  0.00  0.00    +0.000 A 
ATOM      3  C   UNL     1       4.978   4.365  18.174  0.00  0.00    +0.000 A 
ATOM      4  C   UNL     1       4.636   5.839  18.290  0.00  0.00    +0.000 A 
ATOM      5  O   UNL     1       5.460   6.737  18.390  0.00  0.00    +0.000 OA
ATOM      6  N   UNL     1       3.242   5.927  18.284  0.00  0.00    +0.000 N 
ATOM      7  N   UNL     1       2.697   4.629  18.325  0.00  0.00    +0.000 N 
ATOM      8  C   UNL     1       1.401   4.406  17.684  0.00  0.00    +0.000 C 
ENDROOT
BRANCH   6   9
ATOM      9  C   UNL     1       2.517   7.092  18.590  0.00  0.00    +0.000 A 
ATOM     10  C   UNL     1       2.073   7.293  19.903  0.00  0.00    +0.000 A 
ATOM     11  C   UNL     1       1.443   8.486  20.259  0.00  0.00    +0.000 A 
ATOM     12  C   UNL     1       1.211   9.464  19.293  0.00  0.00    +0.000 A 
ATOM     13  C   UNL     1       1.613   9.254  17.978  0.00  0.00    +0.000 A 
ATOM     14  C   UNL     1       2.270   8.074  17.626  0.00  0.00    +0.000 A 
ENDBRANCH   6   9
BRANCH   3  15
ATOM     15  N   UNL     1       6.258   3.873  18.086  0.00  0.00    +0.000 N 
ATOM     16  H   UNL     1       6.455   3.012  18.582  0.00  0.00    +0.000 HD
BRANCH  15  17
ATOM     17  C   UNL     1       7.389   4.489  17.398  0.00  0.00    +0.000 C 
BRANCH  17  18
ATOM     18  C   UNL     1       7.229   4.720  15.935  0.00  0.00    +0.000 A 
ATOM     19  N   UNL     1       7.635   5.735  15.200  0.00  0.00    +0.000 NA
ATOM     20  N   UNL     1       7.220   5.469  13.911  0.00  0.00    +0.000 NA
ATOM     21  C   UNL     1       6.588   4.311  13.950  0.00  0.00    +0.000 A 
ATOM     22  O   UNL     1       6.546   3.780  15.209  0.00  0.00    +0.000 OA
BRANCH  21  23
ATOM     23  C   UNL     1       5.964   3.548  12.879  0.00  0.00    +0.000 A 
ATOM     24  C   UNL     1       4.663   3.863  12.473  0.00  0.00    +0.000 A 
ATOM     25  C   UNL     1       4.092   3.135  11.444  0.00  0.00    +0.000 A 
ATOM     26  N   UNL     1       4.719   2.128  10.803  0.00  0.00    +0.000 NA
ATOM     27  C   UNL     1       5.972   1.833  11.210  0.00  0.00    +0.000 A 
ATOM     28  C   UNL     1       6.628   2.504  12.229  0.00  0.00    +0.000 A 
ENDBRANCH  21  23
ENDBRANCH  17  18
ENDBRANCH  15  17
ENDBRANCH   3  15
TORSDOF 5
ENDMDL
MODEL 2
REMARK VINA RESULT:      -8.0      2.829      5.542
REMARK  Name = 
REMARK  7 active torsions:
REMARK  status: ('A' for Active; 'I' for Inactive)
REMARK    1  A    between atoms: C_1  and  C_2
REMARK    2  A    between atoms: C_3  and  N_4
REMARK    3  A    between atoms: N_4  and  C_5
REMARK    4  A    between atoms: C_5  and  C_6
REMARK    5  A    between atoms: C_9  and  C_10
REMARK    6  A    between atoms: N_19  and  C_20
REMARK    7  A    between atoms: N_26  and  C_27
REMARK                            x       y       z     vdW  Elec       q    Type
REMARK                         _______ _______ _______ _____ _____    ______ ____
ROOT
ATOM      1  C   UNL     1       2.918   7.805  17.959  0.00  0.00    +0.000 C 
ATOM      2  C   UNL     1       1.992   8.342  19.004  0.00  0.00    +0.000 A 
ATOM      3  C   UNL     1       1.711   7.764  20.191  0.00  0.00    +0.000 A 
ATOM      4  C   UNL     1       0.875   8.802  20.916  0.00  0.00    +0.000 A 
ATOM      5  O   UNL     1       0.393   8.651  22.029  0.00  0.00    +0.000 OA
ATOM      6  N   UNL     1       0.768   9.898  20.057  0.00  0.00    +0.000 N 
ATOM      7  N   UNL     1       1.336   9.567  18.811  0.00  0.00    +0.000 N 
ATOM      8  C   UNL     1       1.939  10.641  18.021  0.00  0.00    +0.000 C 
ENDROOT
BRANCH   6   9
ATOM      9  C   UNL     1      -0.102  10.984  20.258  0.00  0.00    +0.000 A 
ATOM     10  C   UNL     1       0.285  12.016  21.124  0.00  0.00    +0.000 A 
ATOM     11  C   UNL     1      -0.510  13.153  21.263  0.00  0.00    +0.000 A 
ATOM     12  C   UNL     1      -1.719  13.245  20.576  0.00  0.00    +0.000 A 
ATOM     13  C   UNL     1      -2.130  12.207  19.747  0.00  0.00    +0.000 A 
ATOM     14  C   UNL     1      -1.322  11.079  19.582  0.00  0.00    +0.000 A 
ENDBRANCH   6   9
BRANCH   3  15
ATOM     15  N   UNL     1       2.091   6.560  20.735  0.00  0.00    +0.000 N 
ATOM     16  H   UNL     1       2.821   6.583  21.438  0.00  0.00    +0.000 HD
BRANCH  15  17
ATOM     17  C   UNL     1       1.596   5.236  20.368  0.00  0.00    +0.000 C 
BRANCH  17  18
ATOM     18  C   UNL     1       2.255   4.582  19.204  0.00  0.00    +0.000 A 
ATOM     19  N   UNL     1       1.782   3.667  18.382  0.00  0.00    +0.000 NA
ATOM     20  N   UNL     1       2.798   3.387  17.490  0.00  0.00    +0.000 NA
ATOM     21  C   UNL     1       3.819   4.149  17.830  0.00  0.00    +0.000 A 
ATOM     22  O   UNL     1       3.549   4.930  18.921  0.00  0.00    +0.000 OA
BRANCH  21  23
ATOM     23  C   UNL     1       5.137   4.276  17.225  0.00  0.00    +0.000 A 
ATOM     24  C   UNL     1       6.246   4.546  18.033  0.00  0.00    +0.000 A 
ATOM     25  C   UNL     1       7.492   4.650  17.440  0.00  0.00    +0.000 A 
ATOM     26  N   UNL     1       7.705   4.506  16.116  0.00  0.00    +0.000 NA
ATOM     27  C   UNL     1       6.623   4.250  15.350  0.00  0.00    +0.000 A 
ATOM     28  C   UNL     1       5.337   4.128  15.850  0.00  0.00    +0.000 A 
ENDBRANCH  21  23
ENDBRANCH  17  18
ENDBRANCH  15  17
ENDBRANCH   3  15
TORSDOF 5
ENDMDL
MODEL 3
REMARK VINA RESULT:      -8.0      0.512      1.039
REMARK  Name = 
REMARK  7 active torsions:
REMARK  status: ('A' for Active; 'I' for Inactive)
REMARK    1  A    between atoms: C_1  and  C_2
REMARK    2  A    between atoms: C_3  and  N_4
REMARK    3  A    between atoms: N_4  and  C_5
REMARK    4  A    between atoms: C_5  and  C_6
REMARK    5  A    between atoms: C_9  and  C_10
REMARK    6  A    between atoms: N_19  and  C_20
REMARK    7  A    between atoms: N_26  and  C_27
REMARK                            x       y       z     vdW  Elec       q    Type
REMARK                         _______ _______ _______ _____ _____    ______ ____
ROOT
ATOM      1  C   UNL     1       3.778   2.277  19.192  0.00  0.00    +0.000 C 
ATOM      2  C   UNL     1       3.909   3.747  18.944  0.00  0.00    +0.000 A 
ATOM      3  C   UNL     1       4.976   4.369  18.400  0.00  0.00    +0.000 A 
ATOM      4  C   UNL     1       4.510   5.801  18.215  0.00  0.00    +0.000 A 
ATOM      5  O   UNL     1       5.202   6.704  17.768  0.00  0.00    +0.000 OA
ATOM      6  N   UNL     1       3.191   5.853  18.673  0.00  0.00    +0.000 N 
ATOM      7  N   UNL     1       2.856   4.618  19.260  0.00  0.00    +0.000 N 
ATOM      8  C   UNL     1       1.460   4.183  19.201  0.00  0.00    +0.000 C 
ENDROOT
BRANCH   6   9
ATOM      9  C   UNL     1       2.467   7.041  18.877  0.00  0.00    +0.000 A 
ATOM     10  C   UNL     1       2.010   7.347  20.166  0.00  0.00    +0.000 A 
ATOM     11  C   UNL     1       1.381   8.566  20.418  0.00  0.00    +0.000 A 
ATOM     12  C   UNL     1       1.160   9.464  19.375  0.00  0.00    +0.000 A 
ATOM     13  C   UNL     1       1.573   9.148  18.085  0.00  0.00    +0.000 A 
ATOM     14  C   UNL     1       2.230   7.942  17.835  0.00  0.00    +0.000 A 
ENDBRANCH   6   9
BRANCH   3  15
ATOM     15  N   UNL     1       6.208   3.901  18.010  0.00  0.00    +0.000 N 
ATOM     16  H   UNL     1       6.411   2.926  18.198  0.00  0.00    +0.000 HD
BRANCH  15  17
ATOM     17  C   UNL     1       7.287   4.673  17.400  0.00  0.00    +0.000 C 
BRANCH  17  18
ATOM     18  C   UNL     1       7.258   4.796  15.916  0.00  0.00    +0.000 A 
ATOM     19  N   UNL     1       7.888   5.650  15.136  0.00  0.00    +0.000 NA
ATOM     20  N   UNL     1       7.506   5.348  13.844  0.00  0.00    +0.000 NA
ATOM     21  C   UNL     1       6.669   4.332  13.927  0.00  0.00    +0.000 A 
ATOM     22  O   UNL     1       6.456   3.933  15.218  0.00  0.00    +0.000 OA
BRANCH  21  23
ATOM     23  C   UNL     1       5.977   3.600  12.876  0.00  0.00    +0.000 A 
ATOM     24  C   UNL     1       6.604   2.510  12.265  0.00  0.00    +0.000 A 
ATOM     25  C   UNL     1       5.925   1.818  11.277  0.00  0.00    +0.000 A 
ATOM     26  N   UNL     1       4.681   2.136  10.862  0.00  0.00    +0.000 NA
ATOM     27  C   UNL     1       4.092   3.194  11.459  0.00  0.00    +0.000 A 
ATOM     28  C   UNL     1       4.690   3.947  12.456  0.00  0.00    +0.000 A 
ENDBRANCH  21  23
ENDBRANCH  17  18
ENDBRANCH  15  17
ENDBRANCH   3  15
TORSDOF 5
ENDMDL
MODEL 4
REMARK VINA RESULT:      -7.9      4.670      7.231
REMARK  Name = 
REMARK  7 active torsions:
REMARK  status: ('A' for Active; 'I' for Inactive)
REMARK    1  A    between atoms: C_1  and  C_2
REMARK    2  A    between atoms: C_3  and  N_4
REMARK    3  A    between atoms: N_4  and  C_5
REMARK    4  A    between atoms: C_5  and  C_6
REMARK    5  A    between atoms: C_9  and  C_10
REMARK    6  A    between atoms: N_19  and  C_20
REMARK    7  A    between atoms: N_26  and  C_27
REMARK                            x       y       z     vdW  Elec       q    Type
REMARK                         _______ _______ _______ _____ _____    ______ ____
ROOT
ATOM      1  C   UNL     1       5.951   3.670  15.387  0.00  0.00    +0.000 C 
ATOM      2  C   UNL     1       5.549   3.975  16.796  0.00  0.00    +0.000 A 
ATOM      3  C   UNL     1       6.209   4.781  17.655  0.00  0.00    +0.000 A 
ATOM      4  C   UNL     1       5.284   4.873  18.854  0.00  0.00    +0.000 A 
ATOM      5  O   UNL     1       5.533   5.498  19.875  0.00  0.00    +0.000 OA
ATOM      6  N   UNL     1       4.160   4.102  18.550  0.00  0.00    +0.000 N 
ATOM      7  N   UNL     1       4.377   3.425  17.335  0.00  0.00    +0.000 N 
ATOM      8  C   UNL     1       3.217   3.124  16.496  0.00  0.00    +0.000 C 
ENDROOT
BRANCH   6   9
ATOM      9  C   UNL     1       3.164   3.749  19.478  0.00  0.00    +0.000 A 
ATOM     10  C   UNL     1       3.411   2.703  20.377  0.00  0.00    +0.000 A 
ATOM     11  C   UNL     1       2.485   2.399  21.375  0.00  0.00    +0.000 A 
ATOM     12  C   UNL     1       1.286   3.106  21.450  0.00  0.00    +0.000 A 
ATOM     13  C   UNL     1       1.016   4.118  20.535  0.00  0.00    +0.000 A 
ATOM     14  C   UNL     1       1.954   4.445  19.553  0.00  0.00    +0.000 A 
ENDBRANCH   6   9
BRANCH   3  15
ATOM     15  N   UNL     1       7.402   5.456  17.544  0.00  0.00    +0.000 N 
ATOM     16  H   UNL     1       7.933   5.315  16.693  0.00  0.00    +0.000 HD
BRANCH  15  17
ATOM     17  C   UNL     1       8.019   6.315  18.550  0.00  0.00    +0.000 C 
BRANCH  17  18
ATOM     18  C   UNL     1       8.089   7.767  18.228  0.00  0.00    +0.000 A 
ATOM     19  N   UNL     1       7.484   8.441  17.271  0.00  0.00    +0.000 NA
ATOM     20  N   UNL     1       7.899   9.751  17.398  0.00  0.00    +0.000 NA
ATOM     21  C   UNL     1       8.730   9.786  18.422  0.00  0.00    +0.000 A 
ATOM     22  O   UNL     1       8.906   8.555  18.994  0.00  0.00    +0.000 OA
BRANCH  21  23
ATOM     23  C   UNL     1       9.447  10.907  19.010  0.00  0.00    +0.000 A 
ATOM     24  C   UNL     1       9.649  10.950  20.394  0.00  0.00    +0.000 A 
ATOM     25  C   UNL     1      10.345  12.018  20.932  0.00  0.00    +0.000 A 
ATOM     26  N   UNL     1      10.845  13.032  20.197  0.00  0.00    +0.000 NA
ATOM     27  C   UNL     1      10.636  12.979  18.864  0.00  0.00    +0.000 A 
ATOM     28  C   UNL     1       9.953  11.952  18.233  0.00  0.00    +0.000 A 
ENDBRANCH  21  23
ENDBRANCH  17  18
ENDBRANCH  15  17
ENDBRANCH   3  15
TORSDOF 5
ENDMDL
MODEL 5
REMARK VINA RESULT:      -7.8      2.884      5.668
REMARK  Name = 
REMARK  7 active torsions:
REMARK  status: ('A' for Active; 'I' for Inactive)
REMARK    1  A    between atoms: C_1  and  C_2
REMARK    2  A    between atoms: C_3  and  N_4
REMARK    3  A    between atoms: N_4  and  C_5
REMARK    4  A    between atoms: C_5  and  C_6
REMARK    5  A    between atoms: C_9  and  C_10
REMARK    6  A    between atoms: N_19  and  C_20
REMARK    7  A    between atoms: N_26  and  C_27
REMARK                            x       y       z     vdW  Elec       q    Type
REMARK                         _______ _______ _______ _____ _____    ______ ____
ROOT
ATOM      1  C   UNL     1       2.841   7.838  17.962  0.00  0.00    +0.000 C 
ATOM      2  C   UNL     1       1.955   8.410  19.024  0.00  0.00    +0.000 A 
ATOM      3  C   UNL     1       1.713   7.866  20.235  0.00  0.00    +0.000 A 
ATOM      4  C   UNL     1       0.910   8.930  20.961  0.00  0.00    +0.000 A 
ATOM      5  O   UNL     1       0.466   8.812  22.094  0.00  0.00    +0.000 OA
ATOM      6  N   UNL     1       0.779  10.003  20.076  0.00  0.00    +0.000 N 
ATOM      7  N   UNL     1       1.301   9.634  18.821  0.00  0.00    +0.000 N 
ATOM      8  C   UNL     1       1.882  10.681  17.981  0.00  0.00    +0.000 C 
ENDROOT
BRANCH   6   9
ATOM      9  C   UNL     1      -0.076  11.100  20.278  0.00  0.00    +0.000 A 
ATOM     10  C   UNL     1      -1.310  11.133  19.615  0.00  0.00    +0.000 A 
ATOM     11  C   UNL     1      -2.222  12.155  19.876  0.00  0.00    +0.000 A 
ATOM     12  C   UNL     1      -1.887  13.177  20.763  0.00  0.00    +0.000 A 
ATOM     13  C   UNL     1      -0.647  13.173  21.393  0.00  0.00    +0.000 A 
ATOM     14  C   UNL     1       0.257  12.135  21.157  0.00  0.00    +0.000 A 
ENDBRANCH   6   9
BRANCH   3  15
ATOM     15  N   UNL     1       2.105   6.675  20.799  0.00  0.00    +0.000 N 
ATOM     16  H   UNL     1       2.878   6.707  21.453  0.00  0.00    +0.000 HD
BRANCH  15  17
ATOM     17  C   UNL     1       1.563   5.349  20.513  0.00  0.00    +0.000 C 
BRANCH  17  18
ATOM     18  C   UNL     1       2.331   4.514  19.549  0.00  0.00    +0.000 A 
ATOM     19  N   UNL     1       2.063   3.308  19.090  0.00  0.00    +0.000 NA
ATOM     20  N   UNL     1       3.098   2.980  18.238  0.00  0.00    +0.000 NA
ATOM     21  C   UNL     1       3.926   4.007  18.237  0.00  0.00    +0.000 A 
ATOM     22  O   UNL     1       3.506   5.017  19.058  0.00  0.00    +0.000 OA
BRANCH  21  23
ATOM     23  C   UNL     1       5.168   4.208  17.506  0.00  0.00    +0.000 A 
ATOM     24  C   UNL     1       5.182   4.066  16.115  0.00  0.00    +0.000 A 
ATOM     25  C   UNL     1       6.370   4.275  15.436  0.00  0.00    +0.000 A 
ATOM     26  N   UNL     1       7.528   4.610  16.041  0.00  0.00    +0.000 NA
ATOM     27  C   UNL     1       7.498   4.738  17.385  0.00  0.00    +0.000 A 
ATOM     28  C   UNL     1       6.360   4.550  18.151  0.00  0.00    +0.000 A 
ENDBRANCH  21  23
ENDBRANCH  17  18
ENDBRANCH  15  17
ENDBRANCH   3  15
TORSDOF 5
ENDMDL
MODEL 6
REMARK VINA RESULT:      -7.7      1.014      1.658
REMARK  Name = 
REMARK  7 active torsions:
REMARK  status: ('A' for Active; 'I' for Inactive)
REMARK    1  A    between atoms: C_1  and  C_2
REMARK    2  A    between atoms: C_3  and  N_4
REMARK    3  A    between atoms: N_4  and  C_5
REMARK    4  A    between atoms: C_5  and  C_6
REMARK    5  A    between atoms: C_9  and  C_10
REMARK    6  A    between atoms: N_19  and  C_20
REMARK    7  A    between atoms: N_26  and  C_27
REMARK                            x       y       z     vdW  Elec       q    Type
REMARK                         _______ _______ _______ _____ _____    ______ ____
ROOT
ATOM      1  C   UNL     1       3.635   2.916  20.397  0.00  0.00    +0.000 C 
ATOM      2  C   UNL     1       3.659   4.240  19.701  0.00  0.00    +0.000 A 
ATOM      3  C   UNL     1       4.493   4.598  18.702  0.00  0.00    +0.000 A 
ATOM      4  C   UNL     1       3.971   5.952  18.256  0.00  0.00    +0.000 A 
ATOM      5  O   UNL     1       4.475   6.635  17.376  0.00  0.00    +0.000 OA
ATOM      6  N   UNL     1       2.861   6.233  19.056  0.00  0.00    +0.000 N 
ATOM      7  N   UNL     1       2.745   5.244  20.051  0.00  0.00    +0.000 N 
ATOM      8  C   UNL     1       1.407   4.920  20.549  0.00  0.00    +0.000 C 
ENDROOT
BRANCH   6   9
ATOM      9  C   UNL     1       2.218   7.483  19.113  0.00  0.00    +0.000 A 
ATOM     10  C   UNL     1       2.051   8.217  17.931  0.00  0.00    +0.000 A 
ATOM     11  C   UNL     1       1.327   9.409  17.940  0.00  0.00    +0.000 A 
ATOM     12  C   UNL     1       0.808   9.899  19.137  0.00  0.00    +0.000 A 
ATOM     13  C   UNL     1       1.006   9.196  20.321  0.00  0.00    +0.000 A 
ATOM     14  C   UNL     1       1.705   7.987  20.311  0.00  0.00    +0.000 A 
ENDBRANCH   6   9
BRANCH   3  15
ATOM     15  N   UNL     1       5.549   3.944  18.112  0.00  0.00    +0.000 N 
ATOM     16  H   UNL     1       5.478   2.937  18.029  0.00  0.00    +0.000 HD
BRANCH  15  17
ATOM     17  C   UNL     1       6.796   4.540  17.641  0.00  0.00    +0.000 C 
BRANCH  17  18
ATOM     18  C   UNL     1       6.934   4.709  16.168  0.00  0.00    +0.000 A 
ATOM     19  N   UNL     1       7.645   5.588  15.490  0.00  0.00    +0.000 NA
ATOM     20  N   UNL     1       7.412   5.327  14.155  0.00  0.00    +0.000 NA
ATOM     21  C   UNL     1       6.574   4.308  14.111  0.00  0.00    +0.000 A 
ATOM     22  O   UNL     1       6.218   3.869  15.356  0.00  0.00    +0.000 OA
BRANCH  21  23
ATOM     23  C   UNL     1       6.007   3.610  12.966  0.00  0.00    +0.000 A 
ATOM     24  C   UNL     1       6.800   2.714  12.241  0.00  0.00    +0.000 A 
ATOM     25  C   UNL     1       6.239   2.050  11.164  0.00  0.00    +0.000 A 
ATOM     26  N   UNL     1       4.962   2.217  10.765  0.00  0.00    +0.000 NA
ATOM     27  C   UNL     1       4.212   3.089  11.473  0.00  0.00    +0.000 A 
ATOM     28  C   UNL     1       4.682   3.799  12.565  0.00  0.00    +0.000 A 
ENDBRANCH  21  23
ENDBRANCH  17  18
ENDBRANCH  15  17
ENDBRANCH   3  15
TORSDOF 5
ENDMDL
MODEL 7
REMARK VINA RESULT:      -7.7      3.149      5.869
REMARK  Name = 
REMARK  7 active torsions:
REMARK  status: ('A' for Active; 'I' for Inactive)
REMARK    1  A    between atoms: C_1  and  C_2
REMARK    2  A    between atoms: C_3  and  N_4
REMARK    3  A    between atoms: N_4  and  C_5
REMARK    4  A    between atoms: C_5  and  C_6
REMARK    5  A    between atoms: C_9  and  C_10
REMARK    6  A    between atoms: N_19  and  C_20
REMARK    7  A    between atoms: N_26  and  C_27
REMARK                            x       y       z     vdW  Elec       q    Type
REMARK                         _______ _______ _______ _____ _____    ______ ____
ROOT
ATOM      1  C   UNL     1       2.043   8.337  18.021  0.00  0.00    +0.000 C 
ATOM      2  C   UNL     1       1.547   8.789  19.359  0.00  0.00    +0.000 A 
ATOM      3  C   UNL     1       1.654   8.107  20.519  0.00  0.00    +0.000 A 
ATOM      4  C   UNL     1       1.159   9.086  21.567  0.00  0.00    +0.000 A 
ATOM      5  O   UNL     1       1.071   8.839  22.761  0.00  0.00    +0.000 OA
ATOM      6  N   UNL     1       0.820  10.259  20.888  0.00  0.00    +0.000 N 
ATOM      7  N   UNL     1       0.922  10.037  19.501  0.00  0.00    +0.000 N 
ATOM      8  C   UNL     1       1.274  11.170  18.645  0.00  0.00    +0.000 C 
ENDROOT
BRANCH   6   9
ATOM      9  C   UNL     1       0.120  11.336  21.460  0.00  0.00    +0.000 A 
ATOM     10  C   UNL     1      -1.042  11.076  22.199  0.00  0.00    +0.000 A 
ATOM     11  C   UNL     1      -1.699  12.111  22.865  0.00  0.00    +0.000 A 
ATOM     12  C   UNL     1      -1.226  13.418  22.756  0.00  0.00    +0.000 A 
ATOM     13  C   UNL     1      -0.097  13.689  21.990  0.00  0.00    +0.000 A 
ATOM     14  C   UNL     1       0.580  12.651  21.347  0.00  0.00    +0.000 A 
ENDBRANCH   6   9
BRANCH   3  15
ATOM     15  N   UNL     1       2.138   6.852  20.801  0.00  0.00    +0.000 N 
ATOM     16  H   UNL     1       3.002   6.799  21.327  0.00  0.00    +0.000 HD
BRANCH  15  17
ATOM     17  C   UNL     1       1.570   5.576  20.373  0.00  0.00    +0.000 C 
BRANCH  17  18
ATOM     18  C   UNL     1       2.205   4.932  19.190  0.00  0.00    +0.000 A 
ATOM     19  N   UNL     1       1.678   4.113  18.302  0.00  0.00    +0.000 NA
ATOM     20  N   UNL     1       2.693   3.792  17.423  0.00  0.00    +0.000 NA
ATOM     21  C   UNL     1       3.767   4.437  17.836  0.00  0.00    +0.000 A 
ATOM     22  O   UNL     1       3.533   5.175  18.963  0.00  0.00    +0.000 OA
BRANCH  21  23
ATOM     23  C   UNL     1       5.109   4.477  17.274  0.00  0.00    +0.000 A 
ATOM     24  C   UNL     1       6.211   4.612  18.126  0.00  0.00    +0.000 A 
ATOM     25  C   UNL     1       7.480   4.634  17.574  0.00  0.00    +0.000 A 
ATOM     26  N   UNL     1       7.722   4.534  16.251  0.00  0.00    +0.000 NA
ATOM     27  C   UNL     1       6.648   4.408  15.443  0.00  0.00    +0.000 A 
ATOM     28  C   UNL     1       5.341   4.375  15.900  0.00  0.00    +0.000 A 
ENDBRANCH  21  23
ENDBRANCH  17  18
ENDBRANCH  15  17
ENDBRANCH   3  15
TORSDOF 5
ENDMDL
MODEL 8
REMARK VINA RESULT:      -7.5      4.071      7.059
REMARK  Name = 
REMARK  7 active torsions:
REMARK  status: ('A' for Active; 'I' for Inactive)
REMARK    1  A    between atoms: C_1  and  C_2
REMARK    2  A    between atoms: C_3  and  N_4
REMARK    3  A    between atoms: N_4  and  C_5
REMARK    4  A    between atoms: C_5  and  C_6
REMARK    5  A    between atoms: C_9  and  C_10
REMARK    6  A    between atoms: N_19  and  C_20
REMARK    7  A    between atoms: N_26  and  C_27
REMARK                            x       y       z     vdW  Elec       q    Type
REMARK                         _______ _______ _______ _____ _____    ______ ____
ROOT
ATOM      1  C   UNL     1       1.003   9.628  18.625  0.00  0.00    +0.000 C 
ATOM      2  C   UNL     1       0.599   9.907  20.039  0.00  0.00    +0.000 A 
ATOM      3  C   UNL     1       0.958   9.192  21.125  0.00  0.00    +0.000 A 
ATOM      4  C   UNL     1       0.429  10.005  22.292  0.00  0.00    +0.000 A 
ATOM      5  O   UNL     1       0.527   9.680  23.466  0.00  0.00    +0.000 OA
ATOM      6  N   UNL     1      -0.185  11.134  21.744  0.00  0.00    +0.000 N 
ATOM      7  N   UNL     1      -0.211  11.012  20.341  0.00  0.00    +0.000 N 
ATOM      8  C   UNL     1      -0.164  12.236  19.542  0.00  0.00    +0.000 C 
ENDROOT
BRANCH   6   9
ATOM      9  C   UNL     1      -0.988  12.033  22.468  0.00  0.00    +0.000 A 
ATOM     10  C   UNL     1      -0.540  13.347  22.657  0.00  0.00    +0.000 A 
ATOM     11  C   UNL     1      -1.360  14.287  23.280  0.00  0.00    +0.000 A 
ATOM     12  C   UNL     1      -2.612  13.908  23.762  0.00  0.00    +0.000 A 
ATOM     13  C   UNL     1      -3.046  12.594  23.616  0.00  0.00    +0.000 A 
ATOM     14  C   UNL     1      -2.239  11.658  22.966  0.00  0.00    +0.000 A 
ENDBRANCH   6   9
BRANCH   3  15
ATOM     15  N   UNL     1       1.682   8.030  21.257  0.00  0.00    +0.000 N 
ATOM     16  H   UNL     1       2.620   8.113  21.631  0.00  0.00    +0.000 HD
BRANCH  15  17
ATOM     17  C   UNL     1       1.266   6.688  20.863  0.00  0.00    +0.000 C 
BRANCH  17  18
ATOM     18  C   UNL     1       2.320   5.811  20.282  0.00  0.00    +0.000 A 
ATOM     19  N   UNL     1       2.584   4.544  20.530  0.00  0.00    +0.000 NA
ATOM     20  N   UNL     1       3.668   4.213  19.742  0.00  0.00    +0.000 NA
ATOM     21  C   UNL     1       3.991   5.301  19.070  0.00  0.00    +0.000 A 
ATOM     22  O   UNL     1       3.181   6.362  19.370  0.00  0.00    +0.000 OA
BRANCH  21  23
ATOM     23  C   UNL     1       5.041   5.517  18.085  0.00  0.00    +0.000 A 
ATOM     24  C   UNL     1       6.381   5.471  18.482  0.00  0.00    +0.000 A 
ATOM     25  C   UNL     1       7.365   5.665  17.529  0.00  0.00    +0.000 A 
ATOM     26  N   UNL     1       7.108   5.900  16.226  0.00  0.00    +0.000 NA
ATOM     27  C   UNL     1       5.809   5.946  15.860  0.00  0.00    +0.000 A 
ATOM     28  C   UNL     1       4.755   5.763  16.740  0.00  0.00    +0.000 A 
ENDBRANCH  21  23
ENDBRANCH  17  18
ENDBRANCH  15  17
ENDBRANCH   3  15
TORSDOF 5
ENDMDL
MODEL 9
REMARK VINA RESULT:      -7.5      3.881      9.520
REMARK  Name = 
REMARK  7 active torsions:
REMARK  status: ('A' for Active; 'I' for Inactive)
REMARK    1  A    between atoms: C_1  and  C_2
REMARK    2  A    between atoms: C_3  and  N_4
REMARK    3  A    between atoms: N_4  and  C_5
REMARK    4  A    between atoms: C_5  and  C_6
REMARK    5  A    between atoms: C_9  and  C_10
REMARK    6  A    between atoms: N_19  and  C_20
REMARK    7  A    between atoms: N_26  and  C_27
REMARK                            x       y       z     vdW  Elec       q    Type
REMARK                         _______ _______ _______ _____ _____    ______ ____
ROOT
ATOM      1  C   UNL     1       1.769   3.416  21.353  0.00  0.00    +0.000 C 
ATOM      2  C   UNL     1       2.473   4.218  20.303  0.00  0.00    +0.000 A 
ATOM      3  C   UNL     1       2.265   5.523  20.027  0.00  0.00    +0.000 A 
ATOM      4  C   UNL     1       3.351   5.862  19.023  0.00  0.00    +0.000 A 
ATOM      5  O   UNL     1       3.492   6.956  18.496  0.00  0.00    +0.000 OA
ATOM      6  N   UNL     1       4.093   4.695  18.829  0.00  0.00    +0.000 N 
ATOM      7  N   UNL     1       3.469   3.631  19.510  0.00  0.00    +0.000 N 
ATOM      8  C   UNL     1       4.313   2.549  20.018  0.00  0.00    +0.000 C 
ENDROOT
BRANCH   6   9
ATOM      9  C   UNL     1       5.054   4.522  17.817  0.00  0.00    +0.000 A 
ATOM     10  C   UNL     1       4.629   4.187  16.525  0.00  0.00    +0.000 A 
ATOM     11  C   UNL     1       5.549   4.112  15.479  0.00  0.00    +0.000 A 
ATOM     12  C   UNL     1       6.904   4.323  15.728  0.00  0.00    +0.000 A 
ATOM     13  C   UNL     1       7.338   4.615  17.016  0.00  0.00    +0.000 A 
ATOM     14  C   UNL     1       6.416   4.720  18.060  0.00  0.00    +0.000 A 
ENDBRANCH   6   9
BRANCH   3  15
ATOM     15  N   UNL     1       1.360   6.431  20.524  0.00  0.00    +0.000 N 
ATOM     16  H   UNL     1       0.378   6.232  20.374  0.00  0.00    +0.000 HD
BRANCH  15  17
ATOM     17  C   UNL     1       1.663   7.690  21.199  0.00  0.00    +0.000 C 
BRANCH  17  18
ATOM     18  C   UNL     1       0.966   8.902  20.684  0.00  0.00    +0.000 A 
ATOM     19  N   UNL     1       1.034   9.462  19.494  0.00  0.00    +0.000 NA
ATOM     20  N   UNL     1       0.211  10.569  19.540  0.00  0.00    +0.000 NA
ATOM     21  C   UNL     1      -0.301  10.607  20.755  0.00  0.00    +0.000 A 
ATOM     22  O   UNL     1       0.144   9.581  21.543  0.00  0.00    +0.000 OA
BRANCH  21  23
ATOM     23  C   UNL     1      -1.244  11.546  21.346  0.00  0.00    +0.000 A 
ATOM     24  C   UNL     1      -1.947  12.430  20.521  0.00  0.00    +0.000 A 
ATOM     25  C   UNL     1      -2.849  13.306  21.100  0.00  0.00    +0.000 A 
ATOM     26  N   UNL     1      -3.092  13.362  22.426  0.00  0.00    +0.000 NA
ATOM     27  C   UNL     1      -2.401  12.505  23.208  0.00  0.00    +0.000 A 
ATOM     28  C   UNL     1      -1.479  11.592  22.722  0.00  0.00    +0.000 A 
ENDBRANCH  21  23
ENDBRANCH  17  18
ENDBRANCH  15  17
ENDBRANCH   3  15
TORSDOF 5
ENDMDL
