MODEL 1
REMARK VINA RESULT:      -7.3      0.000      0.000
REMARK  Name = 
REMARK  7 active torsions:
REMARK  status: ('A' for Active; 'I' for Inactive)
REMARK    1  A    between atoms: C_1  and  C_2
REMARK    2  A    between atoms: C_2  and  C_4
REMARK    3  A    between atoms: C_4  and  C_15
REMARK    4  A    between atoms: N_5  and  N_6
REMARK    5  A    between atoms: N_6  and  C_7
REMARK    6  A    between atoms: C_12  and  C_13
REMARK    7  A    between atoms: C_15  and  C_16
REMARK                            x       y       z     vdW  Elec       q    Type
REMARK                         _______ _______ _______ _____ _____    ______ ____
ROOT
ATOM      1  N   UNL     1       5.123   3.738  18.202  0.00  0.00    +0.000 N 
ATOM      2  H   UNL     1       5.766   3.142  18.741  0.00  0.00    +0.000 HD
ENDROOT
BRANCH   1   3
ATOM      3  C   UNL     1       3.761   3.366  18.435  0.00  0.00    +0.000 A 
ATOM      4  C   UNL     1       2.739   3.939  17.649  0.00  0.00    +0.000 A 
ATOM      5  C   UNL     1       1.394   3.653  17.872  0.00  0.00    +0.000 A 
ATOM      6  C   UNL     1       1.031   2.815  18.917  0.00  0.00    +0.000 A 
ATOM      7  C   UNL     1       2.016   2.277  19.747  0.00  0.00    +0.000 A 
ATOM      8  C   UNL     1       3.376   2.561  19.526  0.00  0.00    +0.000 A 
BRANCH   8   9
ATOM      9  C   UNL     1       4.344   2.010  20.430  0.00  0.00    +0.000 C 
ATOM     10  N   UNL     1       5.100   1.549  21.180  0.00  0.00    +0.000 NA
ENDBRANCH   8   9
ENDBRANCH   1   3
BRANCH   1  12
ATOM     11  C   UNL     1       6.505   4.614  16.569  0.00  0.00    +0.000 C 
ATOM     12  N   UNL     1       5.444   3.935  16.899  0.00  0.00    +0.000 NA
BRANCH  11  14
ATOM     13  C   UNL     1       7.551   6.730  17.657  0.00  0.00    +0.000 C 
ATOM     14  C   UNL     1       7.490   5.236  17.534  0.00  0.00    +0.000 C 
ATOM     15  O   UNL     1       8.192   4.481  18.199  0.00  0.00    +0.000 OA
ENDBRANCH  11  14
BRANCH  11  16
ATOM     16  C   UNL     1       6.708   4.778  15.074  0.00  0.00    +0.000 C 
ATOM     17  C   UNL     1       5.665   4.199  14.158  0.00  0.00    +0.000 C 
ATOM     18  O   UNL     1       7.677   5.412  14.675  0.00  0.00    +0.000 OA
ENDBRANCH  11  16
ENDBRANCH   1  12
TORSDOF 5
ENDMDL
MODEL 2
REMARK VINA RESULT:      -7.1      1.005      2.377
REMARK  Name = 
REMARK  7 active torsions:
REMARK  status: ('A' for Active; 'I' for Inactive)
REMARK    1  A    between atoms: C_1  and  C_2
REMARK    2  A    between atoms: C_2  and  C_4
REMARK    3  A    between atoms: C_4  and  C_15
REMARK    4  A    between atoms: N_5  and  N_6
REMARK    5  A    between atoms: N_6  and  C_7
REMARK    6  A    between atoms: C_12  and  C_13
REMARK    7  A    between atoms: C_15  and  C_16
REMARK                            x       y       z     vdW  Elec       q    Type
REMARK                         _______ _______ _______ _____ _____    ______ ____
ROOT
ATOM      1  N   UNL     1       5.121   3.313  17.985  0.00  0.00    +0.000 N 
ATOM      2  H   UNL     1       5.140   3.314  16.957  0.00  0.00    +0.000 HD
ENDROOT
BRANCH   1   3
ATOM      3  C   UNL     1       3.777   3.305  18.476  0.00  0.00    +0.000 A 
ATOM      4  C   UNL     1       2.779   4.026  17.785  0.00  0.00    +0.000 A 
ATOM      5  C   UNL     1       1.468   4.096  18.250  0.00  0.00    +0.000 A 
ATOM      6  C   UNL     1       1.128   3.477  19.446  0.00  0.00    +0.000 A 
ATOM      7  C   UNL     1       2.105   2.803  20.181  0.00  0.00    +0.000 A 
ATOM      8  C   UNL     1       3.430   2.729  19.714  0.00  0.00    +0.000 A 
BRANCH   8   9
ATOM      9  C   UNL     1       4.402   2.054  20.525  0.00  0.00    +0.000 C 
ATOM     10  N   UNL     1       5.215   1.525  21.163  0.00  0.00    +0.000 NA
ENDBRANCH   8   9
ENDBRANCH   1   3
BRANCH   1  12
ATOM     11  C   UNL     1       6.711   4.989  17.898  0.00  0.00    +0.000 C 
ATOM     12  N   UNL     1       5.944   4.202  18.597  0.00  0.00    +0.000 NA
BRANCH  11  14
ATOM     13  C   UNL     1       5.651   5.649  15.618  0.00  0.00    +0.000 C 
ATOM     14  C   UNL     1       6.785   5.037  16.388  0.00  0.00    +0.000 C 
ATOM     15  O   UNL     1       7.790   4.583  15.851  0.00  0.00    +0.000 OA
ENDBRANCH  11  14
BRANCH  11  16
ATOM     16  C   UNL     1       7.599   5.900  18.726  0.00  0.00    +0.000 C 
ATOM     17  C   UNL     1       7.897   7.270  18.182  0.00  0.00    +0.000 C 
ATOM     18  O   UNL     1       7.996   5.507  19.816  0.00  0.00    +0.000 OA
ENDBRANCH  11  16
ENDBRANCH   1  12
TORSDOF 5
ENDMDL
MODEL 3
REMARK VINA RESULT:      -7.1      1.187      2.220
REMARK  Name = 
REMARK  7 active torsions:
REMARK  status: ('A' for Active; 'I' for Inactive)
REMARK    1  A    between atoms: C_1  and  C_2
REMARK    2  A    between atoms: C_2  and  C_4
REMARK    3  A    between atoms: C_4  and  C_15
REMARK    4  A    between atoms: N_5  and  N_6
REMARK    5  A    between atoms: N_6  and  C_7
REMARK    6  A    between atoms: C_12  and  C_13
REMARK    7  A    between atoms: C_15  and  C_16
REMARK                            x       y       z     vdW  Elec       q    Type
REMARK                         _______ _______ _______ _____ _____    ______ ____
ROOT
ATOM      1  N   UNL     1       5.155   3.501  18.045  0.00  0.00    +0.000 N 
ATOM      2  H   UNL     1       5.676   2.759  18.531  0.00  0.00    +0.000 HD
ENDROOT
BRANCH   1   3
ATOM      3  C   UNL     1       3.746   3.361  18.253  0.00  0.00    +0.000 A 
ATOM      4  C   UNL     1       3.187   2.072  18.394  0.00  0.00    +0.000 A 
ATOM      5  C   UNL     1       1.816   1.879  18.543  0.00  0.00    +0.000 A 
ATOM      6  C   UNL     1       0.959   2.970  18.514  0.00  0.00    +0.000 A 
ATOM      7  C   UNL     1       1.476   4.253  18.319  0.00  0.00    +0.000 A 
ATOM      8  C   UNL     1       2.860   4.454  18.170  0.00  0.00    +0.000 A 
BRANCH   8   9
ATOM      9  C   UNL     1       3.335   5.788  17.938  0.00  0.00    +0.000 C 
ATOM     10  N   UNL     1       3.747   6.853  17.731  0.00  0.00    +0.000 NA
ENDBRANCH   8   9
ENDBRANCH   1   3
BRANCH   1  12
ATOM     11  C   UNL     1       6.542   4.499  16.487  0.00  0.00    +0.000 C 
ATOM     12  N   UNL     1       5.518   3.740  16.760  0.00  0.00    +0.000 NA
BRANCH  11  14
ATOM     13  C   UNL     1       7.397   6.671  17.632  0.00  0.00    +0.000 C 
ATOM     14  C   UNL     1       7.433   5.176  17.505  0.00  0.00    +0.000 C 
ATOM     15  O   UNL     1       8.143   4.462  18.206  0.00  0.00    +0.000 OA
ENDBRANCH  11  14
BRANCH  11  16
ATOM     16  C   UNL     1       6.799   4.701  15.005  0.00  0.00    +0.000 C 
ATOM     17  C   UNL     1       5.820   4.098  14.036  0.00  0.00    +0.000 C 
ATOM     18  O   UNL     1       7.756   5.383  14.659  0.00  0.00    +0.000 OA
ENDBRANCH  11  16
ENDBRANCH   1  12
TORSDOF 5
ENDMDL
MODEL 4
REMARK VINA RESULT:      -7.0      1.112      1.120
REMARK  Name = 
REMARK  7 active torsions:
REMARK  status: ('A' for Active; 'I' for Inactive)
REMARK    1  A    between atoms: C_1  and  C_2
REMARK    2  A    between atoms: C_2  and  C_4
REMARK    3  A    between atoms: C_4  and  C_15
REMARK    4  A    between atoms: N_5  and  N_6
REMARK    5  A    between atoms: N_6  and  C_7
REMARK    6  A    between atoms: C_12  and  C_13
REMARK    7  A    between atoms: C_15  and  C_16
REMARK                            x       y       z     vdW  Elec       q    Type
REMARK                         _______ _______ _______ _____ _____    ______ ____
ROOT
ATOM      1  N   UNL     1       5.171   3.651  18.704  0.00  0.00    +0.000 N 
ATOM      2  H   UNL     1       5.765   2.839  18.919  0.00  0.00    +0.000 HD
ENDROOT
BRANCH   1   3
ATOM      3  C   UNL     1       3.890   3.532  19.331  0.00  0.00    +0.000 A 
ATOM      4  C   UNL     1       2.846   4.404  18.954  0.00  0.00    +0.000 A 
ATOM      5  C   UNL     1       1.599   4.366  19.572  0.00  0.00    +0.000 A 
ATOM      6  C   UNL     1       1.373   3.479  20.615  0.00  0.00    +0.000 A 
ATOM      7  C   UNL     1       2.403   2.642  21.049  0.00  0.00    +0.000 A 
ATOM      8  C   UNL     1       3.664   2.675  20.427  0.00  0.00    +0.000 A 
BRANCH   8   9
ATOM      9  C   UNL     1       4.698   1.819  20.935  0.00  0.00    +0.000 C 
ATOM     10  N   UNL     1       5.525   1.136  21.379  0.00  0.00    +0.000 NA
ENDBRANCH   8   9
ENDBRANCH   1   3
BRANCH   1  12
ATOM     11  C   UNL     1       6.100   4.738  16.887  0.00  0.00    +0.000 C 
ATOM     12  N   UNL     1       5.133   4.033  17.403  0.00  0.00    +0.000 NA
BRANCH  11  14
ATOM     13  C   UNL     1       7.501   6.648  17.959  0.00  0.00    +0.000 C 
ATOM     14  C   UNL     1       7.344   5.195  17.617  0.00  0.00    +0.000 C 
ATOM     15  O   UNL     1       8.174   4.344  17.919  0.00  0.00    +0.000 OA
ENDBRANCH  11  14
BRANCH  11  16
ATOM     16  C   UNL     1       5.896   5.118  15.433  0.00  0.00    +0.000 C 
ATOM     17  C   UNL     1       6.124   4.057  14.392  0.00  0.00    +0.000 C 
ATOM     18  O   UNL     1       5.509   6.250  15.167  0.00  0.00    +0.000 OA
ENDBRANCH  11  16
ENDBRANCH   1  12
TORSDOF 5
ENDMDL
MODEL 5
REMARK VINA RESULT:      -6.8      1.438      1.527
REMARK  Name = 
REMARK  7 active torsions:
REMARK  status: ('A' for Active; 'I' for Inactive)
REMARK    1  A    between atoms: C_1  and  C_2
REMARK    2  A    between atoms: C_2  and  C_4
REMARK    3  A    between atoms: C_4  and  C_15
REMARK    4  A    between atoms: N_5  and  N_6
REMARK    5  A    between atoms: N_6  and  C_7
REMARK    6  A    between atoms: C_12  and  C_13
REMARK    7  A    between atoms: C_15  and  C_16
REMARK                            x       y       z     vdW  Elec       q    Type
REMARK                         _______ _______ _______ _____ _____    ______ ____
ROOT
ATOM      1  N   UNL     1       4.822   4.903  19.472  0.00  0.00    +0.000 N 
ATOM      2  H   UNL     1       5.494   4.707  20.226  0.00  0.00    +0.000 HD
ENDROOT
BRANCH   1   3
ATOM      3  C   UNL     1       3.520   4.407  19.800  0.00  0.00    +0.000 A 
ATOM      4  C   UNL     1       2.417   5.288  19.794  0.00  0.00    +0.000 A 
ATOM      5  C   UNL     1       1.141   4.868  20.160  0.00  0.00    +0.000 A 
ATOM      6  C   UNL     1       0.939   3.562  20.582  0.00  0.00    +0.000 A 
ATOM      7  C   UNL     1       2.021   2.681  20.652  0.00  0.00    +0.000 A 
ATOM      8  C   UNL     1       3.312   3.100  20.283  0.00  0.00    +0.000 A 
BRANCH   8   9
ATOM      9  C   UNL     1       4.394   2.165  20.408  0.00  0.00    +0.000 C 
ATOM     10  N   UNL     1       5.273   1.420  20.543  0.00  0.00    +0.000 NA
ENDBRANCH   8   9
ENDBRANCH   1   3
BRANCH   1  12
ATOM     11  C   UNL     1       6.397   5.028  17.783  0.00  0.00    +0.000 C 
ATOM     12  N   UNL     1       5.239   4.615  18.213  0.00  0.00    +0.000 NA
BRANCH  11  14
ATOM     13  C   UNL     1       7.800   7.195  18.097  0.00  0.00    +0.000 C 
ATOM     14  C   UNL     1       7.398   5.833  18.583  0.00  0.00    +0.000 C 
ATOM     15  O   UNL     1       7.829   5.339  19.619  0.00  0.00    +0.000 OA
ENDBRANCH  11  14
BRANCH  11  16
ATOM     16  C   UNL     1       6.704   4.658  16.344  0.00  0.00    +0.000 C 
ATOM     17  C   UNL     1       5.548   4.549  15.387  0.00  0.00    +0.000 C 
ATOM     18  O   UNL     1       7.872   4.512  16.007  0.00  0.00    +0.000 OA
ENDBRANCH  11  16
ENDBRANCH   1  12
TORSDOF 5
ENDMDL
MODEL 6
REMARK VINA RESULT:      -6.8      1.204      2.131
REMARK  Name = 
REMARK  7 active torsions:
REMARK  status: ('A' for Active; 'I' for Inactive)
REMARK    1  A    between atoms: C_1  and  C_2
REMARK    2  A    between atoms: C_2  and  C_4
REMARK    3  A    between atoms: C_4  and  C_15
REMARK    4  A    between atoms: N_5  and  N_6
REMARK    5  A    between atoms: N_6  and  C_7
REMARK    6  A    between atoms: C_12  and  C_13
REMARK    7  A    between atoms: C_15  and  C_16
REMARK                            x       y       z     vdW  Elec       q    Type
REMARK                         _______ _______ _______ _____ _____    ______ ____
ROOT
ATOM      1  N   UNL     1       5.593   4.029  18.900  0.00  0.00    +0.000 N 
ATOM      2  H   UNL     1       6.302   3.368  18.554  0.00  0.00    +0.000 HD
ENDROOT
BRANCH   1   3
ATOM      3  C   UNL     1       4.274   3.495  18.747  0.00  0.00    +0.000 A 
ATOM      4  C   UNL     1       3.379   4.101  17.840  0.00  0.00    +0.000 A 
ATOM      5  C   UNL     1       2.068   3.655  17.694  0.00  0.00    +0.000 A 
ATOM      6  C   UNL     1       1.602   2.612  18.483  0.00  0.00    +0.000 A 
ATOM      7  C   UNL     1       2.447   2.029  19.429  0.00  0.00    +0.000 A 
ATOM      8  C   UNL     1       3.773   2.475  19.579  0.00  0.00    +0.000 A 
BRANCH   8   9
ATOM      9  C   UNL     1       4.588   1.864  20.590  0.00  0.00    +0.000 C 
ATOM     10  N   UNL     1       5.237   1.337  21.396  0.00  0.00    +0.000 NA
ENDBRANCH   8   9
ENDBRANCH   1   3
BRANCH   1  12
ATOM     11  C   UNL     1       6.458   5.617  17.459  0.00  0.00    +0.000 C 
ATOM     12  N   UNL     1       5.735   5.318  18.500  0.00  0.00    +0.000 NA
BRANCH  11  14
ATOM     13  C   UNL     1       6.659   4.320  15.215  0.00  0.00    +0.000 C 
ATOM     14  C   UNL     1       7.194   4.627  16.583  0.00  0.00    +0.000 C 
ATOM     15  O   UNL     1       8.222   4.126  17.028  0.00  0.00    +0.000 OA
ENDBRANCH  11  14
BRANCH  11  16
ATOM     16  C   UNL     1       6.549   7.102  17.161  0.00  0.00    +0.000 C 
ATOM     17  C   UNL     1       7.754   7.846  17.670  0.00  0.00    +0.000 C 
ATOM     18  O   UNL     1       5.673   7.624  16.483  0.00  0.00    +0.000 OA
ENDBRANCH  11  16
ENDBRANCH   1  12
TORSDOF 5
ENDMDL
MODEL 7
REMARK VINA RESULT:      -6.8      1.550      2.181
REMARK  Name = 
REMARK  7 active torsions:
REMARK  status: ('A' for Active; 'I' for Inactive)
REMARK    1  A    between atoms: C_1  and  C_2
REMARK    2  A    between atoms: C_2  and  C_4
REMARK    3  A    between atoms: C_4  and  C_15
REMARK    4  A    between atoms: N_5  and  N_6
REMARK    5  A    between atoms: N_6  and  C_7
REMARK    6  A    between atoms: C_12  and  C_13
REMARK    7  A    between atoms: C_15  and  C_16
REMARK                            x       y       z     vdW  Elec       q    Type
REMARK                         _______ _______ _______ _____ _____    ______ ____
ROOT
ATOM      1  N   UNL     1       4.709   4.768  18.417  0.00  0.00    +0.000 N 
ATOM      2  H   UNL     1       5.429   4.590  19.131  0.00  0.00    +0.000 HD
ENDROOT
BRANCH   1   3
ATOM      3  C   UNL     1       3.516   4.029  18.695  0.00  0.00    +0.000 A 
ATOM      4  C   UNL     1       3.423   2.679  18.294  0.00  0.00    +0.000 A 
ATOM      5  C   UNL     1       2.264   1.932  18.491  0.00  0.00    +0.000 A 
ATOM      6  C   UNL     1       1.148   2.530  19.061  0.00  0.00    +0.000 A 
ATOM      7  C   UNL     1       1.190   3.879  19.417  0.00  0.00    +0.000 A 
ATOM      8  C   UNL     1       2.358   4.637  19.222  0.00  0.00    +0.000 A 
BRANCH   8   9
ATOM      9  C   UNL     1       2.336   6.028  19.573  0.00  0.00    +0.000 C 
ATOM     10  N   UNL     1       2.313   7.161  19.822  0.00  0.00    +0.000 NA
ENDBRANCH   8   9
ENDBRANCH   1   3
BRANCH   1  12
ATOM     11  C   UNL     1       6.360   4.980  16.812  0.00  0.00    +0.000 C 
ATOM     12  N   UNL     1       5.124   4.713  17.127  0.00  0.00    +0.000 NA
BRANCH  11  14
ATOM     13  C   UNL     1       7.736   6.805  18.048  0.00  0.00    +0.000 C 
ATOM     14  C   UNL     1       7.456   5.355  17.784  0.00  0.00    +0.000 C 
ATOM     15  O   UNL     1       8.064   4.444  18.337  0.00  0.00    +0.000 OA
ENDBRANCH  11  14
BRANCH  11  16
ATOM     16  C   UNL     1       6.659   4.912  15.326  0.00  0.00    +0.000 C 
ATOM     17  C   UNL     1       5.609   4.321  14.426  0.00  0.00    +0.000 C 
ATOM     18  O   UNL     1       7.713   5.380  14.913  0.00  0.00    +0.000 OA
ENDBRANCH  11  16
ENDBRANCH   1  12
TORSDOF 5
ENDMDL
MODEL 8
REMARK VINA RESULT:      -6.8      1.547      3.274
REMARK  Name = 
REMARK  7 active torsions:
REMARK  status: ('A' for Active; 'I' for Inactive)
REMARK    1  A    between atoms: C_1  and  C_2
REMARK    2  A    between atoms: C_2  and  C_4
REMARK    3  A    between atoms: C_4  and  C_15
REMARK    4  A    between atoms: N_5  and  N_6
REMARK    5  A    between atoms: N_6  and  C_7
REMARK    6  A    between atoms: C_12  and  C_13
REMARK    7  A    between atoms: C_15  and  C_16
REMARK                            x       y       z     vdW  Elec       q    Type
REMARK                         _______ _______ _______ _____ _____    ______ ____
ROOT
ATOM      1  N   UNL     1       4.889   3.433  17.971  0.00  0.00    +0.000 N 
ATOM      2  H   UNL     1       4.855   3.617  16.959  0.00  0.00    +0.000 HD
ENDROOT
BRANCH   1   3
ATOM      3  C   UNL     1       3.572   3.285  18.512  0.00  0.00    +0.000 A 
ATOM      4  C   UNL     1       3.104   2.000  18.862  0.00  0.00    +0.000 A 
ATOM      5  C   UNL     1       1.812   1.794  19.340  0.00  0.00    +0.000 A 
ATOM      6  C   UNL     1       0.937   2.867  19.442  0.00  0.00    +0.000 A 
ATOM      7  C   UNL     1       1.352   4.141  19.051  0.00  0.00    +0.000 A 
ATOM      8  C   UNL     1       2.656   4.354  18.569  0.00  0.00    +0.000 A 
BRANCH   8   9
ATOM      9  C   UNL     1       3.020   5.677  18.148  0.00  0.00    +0.000 C 
ATOM     10  N   UNL     1       3.336   6.749  17.837  0.00  0.00    +0.000 NA
ENDBRANCH   8   9
ENDBRANCH   1   3
BRANCH   1  12
ATOM     11  C   UNL     1       6.632   4.947  18.108  0.00  0.00    +0.000 C 
ATOM     12  N   UNL     1       5.713   4.232  18.694  0.00  0.00    +0.000 NA
BRANCH  11  14
ATOM     13  C   UNL     1       5.921   5.721  15.730  0.00  0.00    +0.000 C 
ATOM     14  C   UNL     1       6.891   4.999  16.618  0.00  0.00    +0.000 C 
ATOM     15  O   UNL     1       7.908   4.457  16.197  0.00  0.00    +0.000 OA
ENDBRANCH  11  14
BRANCH  11  16
ATOM     16  C   UNL     1       7.497   5.759  19.054  0.00  0.00    +0.000 C 
ATOM     17  C   UNL     1       8.081   7.046  18.538  0.00  0.00    +0.000 C 
ATOM     18  O   UNL     1       7.644   5.366  20.204  0.00  0.00    +0.000 OA
ENDBRANCH  11  16
ENDBRANCH   1  12
TORSDOF 5
ENDMDL
MODEL 9
REMARK VINA RESULT:      -6.8      1.774      3.332
REMARK  Name = 
REMARK  7 active torsions:
REMARK  status: ('A' for Active; 'I' for Inactive)
REMARK    1  A    between atoms: C_1  and  C_2
REMARK    2  A    between atoms: C_2  and  C_4
REMARK    3  A    between atoms: C_4  and  C_15
REMARK    4  A    between atoms: N_5  and  N_6
REMARK    5  A    between atoms: N_6  and  C_7
REMARK    6  A    between atoms: C_12  and  C_13
REMARK    7  A    between atoms: C_15  and  C_16
REMARK                            x       y       z     vdW  Elec       q    Type
REMARK                         _______ _______ _______ _____ _____    ______ ____
ROOT
ATOM      1  N   UNL     1       3.896   3.986  17.432  0.00  0.00    +0.000 N 
ATOM      2  H   UNL     1       3.527   4.624  16.713  0.00  0.00    +0.000 HD
ENDROOT
BRANCH   1   3
ATOM      3  C   UNL     1       2.964   3.827  18.506  0.00  0.00    +0.000 A 
ATOM      4  C   UNL     1       2.580   2.530  18.908  0.00  0.00    +0.000 A 
ATOM      5  C   UNL     1       1.635   2.322  19.910  0.00  0.00    +0.000 A 
ATOM      6  C   UNL     1       1.017   3.410  20.512  0.00  0.00    +0.000 A 
ATOM      7  C   UNL     1       1.335   4.704  20.097  0.00  0.00    +0.000 A 
ATOM      8  C   UNL     1       2.290   4.920  19.086  0.00  0.00    +0.000 A 
BRANCH   8   9
ATOM      9  C   UNL     1       2.554   6.269  18.673  0.00  0.00    +0.000 C 
ATOM     10  N   UNL     1       2.799   7.359  18.358  0.00  0.00    +0.000 NA
ENDBRANCH   8   9
ENDBRANCH   1   3
BRANCH   1  12
ATOM     11  C   UNL     1       6.020   4.810  17.030  0.00  0.00    +0.000 C 
ATOM     12  N   UNL     1       5.178   4.203  17.819  0.00  0.00    +0.000 NA
BRANCH  11  14
ATOM     13  C   UNL     1       5.930   4.463  14.455  0.00  0.00    +0.000 C 
ATOM     14  C   UNL     1       5.706   5.343  15.650  0.00  0.00    +0.000 C 
ATOM     15  O   UNL     1       5.257   6.482  15.567  0.00  0.00    +0.000 OA
ENDBRANCH  11  14
BRANCH  11  16
ATOM     16  C   UNL     1       7.423   4.944  17.590  0.00  0.00    +0.000 C 
ATOM     17  C   UNL     1       7.668   6.016  18.617  0.00  0.00    +0.000 C 
ATOM     18  O   UNL     1       8.284   4.152  17.226  0.00  0.00    +0.000 OA
ENDBRANCH  11  16
ENDBRANCH   1  12
TORSDOF 5
ENDMDL
