MODEL 1
REMARK VINA RESULT:      -7.6      0.000      0.000
REMARK  Name = 
REMARK  7 active torsions:
REMARK  status: ('A' for Active; 'I' for Inactive)
REMARK    1  A    between atoms: C_1  and  C_2
REMARK    2  A    between atoms: C_5  and  O_6
REMARK    3  A    between atoms: O_6  and  C_7
REMARK    4  A    between atoms: C_7  and  C_8
REMARK    5  A    between atoms: C_11  and  S_12
REMARK    6  A    between atoms: N_13  and  C_14
REMARK    7  A    between atoms: C_14  and  C_15
REMARK                            x       y       z     vdW  Elec       q    Type
REMARK                         _______ _______ _______ _____ _____    ______ ____
ROOT
ATOM      1  C   UNL     1       3.006   3.377  17.772  0.00  0.00    +0.000 A 
ATOM      2  N   UNL     1       2.257   2.301  17.623  0.00  0.00    +0.000 NA
ATOM      3  N   UNL     1       1.605   2.059  18.806  0.00  0.00    +0.000 NA
ATOM      4  C   UNL     1       1.963   2.992  19.652  0.00  0.00    +0.000 A 
ATOM      5  N   UNL     1       2.834   3.859  19.054  0.00  0.00    +0.000 N 
ENDROOT
BRANCH   4   6
ATOM      6  S   UNL     1       1.402   3.120  21.277  0.00  0.00    +0.000 S 
ATOM      7  H   UNL     1       1.808   1.902  21.670  0.00  0.00    +0.000 HD
ENDBRANCH   4   6
BRANCH   1   8
ATOM      8  C   UNL     1       3.806   4.033  16.698  0.00  0.00    +0.000 C 
BRANCH   8   9
ATOM      9  O   UNL     1       5.183   3.753  16.941  0.00  0.00    +0.000 OA
BRANCH   9  14
ATOM     10  C   UNL     1       8.198   8.464  17.955  0.00  0.00    +0.000 C 
ATOM     11  C   UNL     1       7.402   7.216  17.711  0.00  0.00    +0.000 A 
ATOM     12  C   UNL     1       6.363   7.190  16.776  0.00  0.00    +0.000 A 
ATOM     13  C   UNL     1       5.639   6.014  16.558  0.00  0.00    +0.000 A 
ATOM     14  C   UNL     1       5.946   4.848  17.259  0.00  0.00    +0.000 A 
ATOM     15  C   UNL     1       6.963   4.879  18.218  0.00  0.00    +0.000 A 
ATOM     16  C   UNL     1       7.687   6.055  18.440  0.00  0.00    +0.000 A 
ENDBRANCH   9  14
ENDBRANCH   8   9
ENDBRANCH   1   8
BRANCH   5  17
ATOM     17  C   UNL     1       3.484   5.013  19.644  0.00  0.00    +0.000 C 
BRANCH  17  18
ATOM     18  C   UNL     1       2.737   6.314  19.440  0.00  0.00    +0.000 A 
ATOM     19  C   UNL     1       2.015   6.853  20.518  0.00  0.00    +0.000 A 
ATOM     20  C   UNL     1       1.405   8.106  20.420  0.00  0.00    +0.000 A 
ATOM     21  C   UNL     1       1.516   8.846  19.247  0.00  0.00    +0.000 A 
ATOM     22  C   UNL     1       2.214   8.325  18.164  0.00  0.00    +0.000 A 
ATOM     23  C   UNL     1       2.815   7.068  18.256  0.00  0.00    +0.000 A 
ENDBRANCH  17  18
ENDBRANCH   5  17
TORSDOF 6
ENDMDL
MODEL 2
REMARK VINA RESULT:      -7.4      0.396      1.095
REMARK  Name = 
REMARK  7 active torsions:
REMARK  status: ('A' for Active; 'I' for Inactive)
REMARK    1  A    between atoms: C_1  and  C_2
REMARK    2  A    between atoms: C_5  and  O_6
REMARK    3  A    between atoms: O_6  and  C_7
REMARK    4  A    between atoms: C_7  and  C_8
REMARK    5  A    between atoms: C_11  and  S_12
REMARK    6  A    between atoms: N_13  and  C_14
REMARK    7  A    between atoms: C_14  and  C_15
REMARK                            x       y       z     vdW  Elec       q    Type
REMARK                         _______ _______ _______ _____ _____    ______ ____
ROOT
ATOM      1  C   UNL     1       3.380   3.425  17.896  0.00  0.00    +0.000 A 
ATOM      2  N   UNL     1       2.718   2.285  17.825  0.00  0.00    +0.000 NA
ATOM      3  N   UNL     1       2.107   2.062  19.034  0.00  0.00    +0.000 NA
ATOM      4  C   UNL     1       2.401   3.070  19.817  0.00  0.00    +0.000 A 
ATOM      5  N   UNL     1       3.189   3.967  19.152  0.00  0.00    +0.000 N 
ENDROOT
BRANCH   4   6
ATOM      6  S   UNL     1       1.857   3.248  21.443  0.00  0.00    +0.000 S 
ATOM      7  H   UNL     1       2.833   2.519  22.007  0.00  0.00    +0.000 HD
ENDBRANCH   4   6
BRANCH   1   8
ATOM      8  C   UNL     1       4.106   4.079  16.770  0.00  0.00    +0.000 C 
BRANCH   8   9
ATOM      9  O   UNL     1       5.505   3.907  16.989  0.00  0.00    +0.000 OA
BRANCH   9  14
ATOM     10  C   UNL     1       8.475   8.548  18.381  0.00  0.00    +0.000 C 
ATOM     11  C   UNL     1       7.695   7.328  17.990  0.00  0.00    +0.000 A 
ATOM     12  C   UNL     1       7.818   6.131  18.701  0.00  0.00    +0.000 A 
ATOM     13  C   UNL     1       7.076   5.007  18.326  0.00  0.00    +0.000 A 
ATOM     14  C   UNL     1       6.195   5.064  17.246  0.00  0.00    +0.000 A 
ATOM     15  C   UNL     1       6.094   6.250  16.513  0.00  0.00    +0.000 A 
ATOM     16  C   UNL     1       6.838   7.375  16.885  0.00  0.00    +0.000 A 
ENDBRANCH   9  14
ENDBRANCH   8   9
ENDBRANCH   1   8
BRANCH   5  17
ATOM     17  C   UNL     1       3.751   5.203  19.661  0.00  0.00    +0.000 C 
BRANCH  17  18
ATOM     18  C   UNL     1       2.939   6.436  19.325  0.00  0.00    +0.000 A 
ATOM     19  C   UNL     1       2.089   6.970  20.308  0.00  0.00    +0.000 A 
ATOM     20  C   UNL     1       1.406   8.169  20.093  0.00  0.00    +0.000 A 
ATOM     21  C   UNL     1       1.570   8.861  18.896  0.00  0.00    +0.000 A 
ATOM     22  C   UNL     1       2.396   8.342  17.905  0.00  0.00    +0.000 A 
ATOM     23  C   UNL     1       3.070   7.137  18.115  0.00  0.00    +0.000 A 
ENDBRANCH  17  18
ENDBRANCH   5  17
TORSDOF 6
ENDMDL
MODEL 3
REMARK VINA RESULT:      -7.3      0.714      1.618
REMARK  Name = 
REMARK  7 active torsions:
REMARK  status: ('A' for Active; 'I' for Inactive)
REMARK    1  A    between atoms: C_1  and  C_2
REMARK    2  A    between atoms: C_5  and  O_6
REMARK    3  A    between atoms: O_6  and  C_7
REMARK    4  A    between atoms: C_7  and  C_8
REMARK    5  A    between atoms: C_11  and  S_12
REMARK    6  A    between atoms: N_13  and  C_14
REMARK    7  A    between atoms: C_14  and  C_15
REMARK                            x       y       z     vdW  Elec       q    Type
REMARK                         _______ _______ _______ _____ _____    ______ ____
ROOT
ATOM      1  C   UNL     1       3.255   3.883  17.391  0.00  0.00    +0.000 A 
ATOM      2  N   UNL     1       2.439   2.902  17.052  0.00  0.00    +0.000 NA
ATOM      3  N   UNL     1       1.533   2.721  18.067  0.00  0.00    +0.000 NA
ATOM      4  C   UNL     1       1.807   3.596  19.002  0.00  0.00    +0.000 A 
ATOM      5  N   UNL     1       2.873   4.365  18.628  0.00  0.00    +0.000 N 
ENDROOT
BRANCH   4   6
ATOM      6  S   UNL     1       0.937   3.766  20.481  0.00  0.00    +0.000 S 
ATOM      7  H   UNL     1       1.655   4.794  20.958  0.00  0.00    +0.000 HD
ENDBRANCH   4   6
BRANCH   1   8
ATOM      8  C   UNL     1       4.327   4.457  16.529  0.00  0.00    +0.000 C 
BRANCH   8   9
ATOM      9  O   UNL     1       5.578   4.233  17.176  0.00  0.00    +0.000 OA
BRANCH   9  14
ATOM     10  C   UNL     1       8.702   8.769  18.581  0.00  0.00    +0.000 C 
ATOM     11  C   UNL     1       7.880   7.578  18.187  0.00  0.00    +0.000 A 
ATOM     12  C   UNL     1       8.005   6.357  18.858  0.00  0.00    +0.000 A 
ATOM     13  C   UNL     1       7.225   5.261  18.480  0.00  0.00    +0.000 A 
ATOM     14  C   UNL     1       6.303   5.368  17.438  0.00  0.00    +0.000 A 
ATOM     15  C   UNL     1       6.199   6.577  16.744  0.00  0.00    +0.000 A 
ATOM     16  C   UNL     1       6.981   7.675  17.119  0.00  0.00    +0.000 A 
ENDBRANCH   9  14
ENDBRANCH   8   9
ENDBRANCH   1   8
BRANCH   5  17
ATOM     17  C   UNL     1       3.508   5.429  19.380  0.00  0.00    +0.000 C 
BRANCH  17  18
ATOM     18  C   UNL     1       2.843   6.780  19.221  0.00  0.00    +0.000 A 
ATOM     19  C   UNL     1       2.901   7.415  17.969  0.00  0.00    +0.000 A 
ATOM     20  C   UNL     1       2.207   8.606  17.735  0.00  0.00    +0.000 A 
ATOM     21  C   UNL     1       1.436   9.174  18.744  0.00  0.00    +0.000 A 
ATOM     22  C   UNL     1       1.377   8.568  19.994  0.00  0.00    +0.000 A 
ATOM     23  C   UNL     1       2.078   7.385  20.233  0.00  0.00    +0.000 A 
ENDBRANCH  17  18
ENDBRANCH   5  17
TORSDOF 6
ENDMDL
MODEL 4
REMARK VINA RESULT:      -7.2      2.904      5.073
REMARK  Name = 
REMARK  7 active torsions:
REMARK  status: ('A' for Active; 'I' for Inactive)
REMARK    1  A    between atoms: C_1  and  C_2
REMARK    2  A    between atoms: C_5  and  O_6
REMARK    3  A    between atoms: O_6  and  C_7
REMARK    4  A    between atoms: C_7  and  C_8
REMARK    5  A    between atoms: C_11  and  S_12
REMARK    6  A    between atoms: N_13  and  C_14
REMARK    7  A    between atoms: C_14  and  C_15
REMARK                            x       y       z     vdW  Elec       q    Type
REMARK                         _______ _______ _______ _____ _____    ______ ____
ROOT
ATOM      1  C   UNL     1       5.784   4.744  16.509  0.00  0.00    +0.000 A 
ATOM      2  N   UNL     1       6.979   4.278  16.819  0.00  0.00    +0.000 NA
ATOM      3  N   UNL     1       7.761   5.328  17.231  0.00  0.00    +0.000 NA
ATOM      4  C   UNL     1       7.029   6.413  17.171  0.00  0.00    +0.000 A 
ATOM      5  N   UNL     1       5.769   6.105  16.736  0.00  0.00    +0.000 N 
ENDROOT
BRANCH   4   6
ATOM      6  S   UNL     1       7.568   7.994  17.598  0.00  0.00    +0.000 S 
ATOM      7  H   UNL     1       8.241   8.232  16.461  0.00  0.00    +0.000 HD
ENDBRANCH   4   6
BRANCH   1   8
ATOM      8  C   UNL     1       4.609   3.919  16.104  0.00  0.00    +0.000 C 
BRANCH   8   9
ATOM      9  O   UNL     1       4.592   2.748  16.917  0.00  0.00    +0.000 OA
BRANCH   9  14
ATOM     10  C   UNL     1       1.210   2.795  21.485  0.00  0.00    +0.000 C 
ATOM     11  C   UNL     1       2.089   2.800  20.269  0.00  0.00    +0.000 A 
ATOM     12  C   UNL     1       3.477   2.675  20.378  0.00  0.00    +0.000 A 
ATOM     13  C   UNL     1       4.278   2.673  19.233  0.00  0.00    +0.000 A 
ATOM     14  C   UNL     1       3.707   2.786  17.965  0.00  0.00    +0.000 A 
ATOM     15  C   UNL     1       2.323   2.945  17.854  0.00  0.00    +0.000 A 
ATOM     16  C   UNL     1       1.520   2.950  18.999  0.00  0.00    +0.000 A 
ENDBRANCH   9  14
ENDBRANCH   8   9
ENDBRANCH   1   8
BRANCH   5  17
ATOM     17  C   UNL     1       4.662   7.014  16.511  0.00  0.00    +0.000 C 
BRANCH  17  18
ATOM     18  C   UNL     1       3.754   7.191  17.710  0.00  0.00    +0.000 A 
ATOM     19  C   UNL     1       2.871   8.283  17.730  0.00  0.00    +0.000 A 
ATOM     20  C   UNL     1       1.932   8.431  18.754  0.00  0.00    +0.000 A 
ATOM     21  C   UNL     1       1.854   7.481  19.770  0.00  0.00    +0.000 A 
ATOM     22  C   UNL     1       2.728   6.401  19.775  0.00  0.00    +0.000 A 
ATOM     23  C   UNL     1       3.674   6.259  18.758  0.00  0.00    +0.000 A 
ENDBRANCH  17  18
ENDBRANCH   5  17
TORSDOF 6
ENDMDL
MODEL 5
REMARK VINA RESULT:      -7.1      2.863      4.964
REMARK  Name = 
REMARK  7 active torsions:
REMARK  status: ('A' for Active; 'I' for Inactive)
REMARK    1  A    between atoms: C_1  and  C_2
REMARK    2  A    between atoms: C_5  and  O_6
REMARK    3  A    between atoms: O_6  and  C_7
REMARK    4  A    between atoms: C_7  and  C_8
REMARK    5  A    between atoms: C_11  and  S_12
REMARK    6  A    between atoms: N_13  and  C_14
REMARK    7  A    between atoms: C_14  and  C_15
REMARK                            x       y       z     vdW  Elec       q    Type
REMARK                         _______ _______ _______ _____ _____    ______ ____
ROOT
ATOM      1  C   UNL     1       5.670   4.679  16.574  0.00  0.00    +0.000 A 
ATOM      2  N   UNL     1       6.861   4.183  16.854  0.00  0.00    +0.000 NA
ATOM      3  N   UNL     1       7.681   5.214  17.239  0.00  0.00    +0.000 NA
ATOM      4  C   UNL     1       6.977   6.317  17.192  0.00  0.00    +0.000 A 
ATOM      5  N   UNL     1       5.699   6.042  16.793  0.00  0.00    +0.000 N 
ENDROOT
BRANCH   4   6
ATOM      6  S   UNL     1       7.571   7.885  17.594  0.00  0.00    +0.000 S 
ATOM      7  H   UNL     1       7.645   7.680  18.918  0.00  0.00    +0.000 HD
ENDBRANCH   4   6
BRANCH   1   8
ATOM      8  C   UNL     1       4.463   3.885  16.205  0.00  0.00    +0.000 C 
BRANCH   8   9
ATOM      9  O   UNL     1       4.497   2.665  16.943  0.00  0.00    +0.000 OA
BRANCH   9  14
ATOM     10  C   UNL     1       1.207   2.807  21.576  0.00  0.00    +0.000 C 
ATOM     11  C   UNL     1       2.090   2.754  20.364  0.00  0.00    +0.000 A 
ATOM     12  C   UNL     1       1.551   2.779  19.074  0.00  0.00    +0.000 A 
ATOM     13  C   UNL     1       2.391   2.736  17.957  0.00  0.00    +0.000 A 
ATOM     14  C   UNL     1       3.777   2.679  18.111  0.00  0.00    +0.000 A 
ATOM     15  C   UNL     1       4.316   2.620  19.398  0.00  0.00    +0.000 A 
ATOM     16  C   UNL     1       3.478   2.660  20.518  0.00  0.00    +0.000 A 
ENDBRANCH   9  14
ENDBRANCH   8   9
ENDBRANCH   1   8
BRANCH   5  17
ATOM     17  C   UNL     1       4.611   6.979  16.591  0.00  0.00    +0.000 C 
BRANCH  17  18
ATOM     18  C   UNL     1       3.711   7.150  17.797  0.00  0.00    +0.000 A 
ATOM     19  C   UNL     1       2.830   8.243  17.828  0.00  0.00    +0.000 A 
ATOM     20  C   UNL     1       1.897   8.385  18.860  0.00  0.00    +0.000 A 
ATOM     21  C   UNL     1       1.824   7.430  19.870  0.00  0.00    +0.000 A 
ATOM     22  C   UNL     1       2.697   6.348  19.864  0.00  0.00    +0.000 A 
ATOM     23  C   UNL     1       3.637   6.212  18.840  0.00  0.00    +0.000 A 
ENDBRANCH  17  18
ENDBRANCH   5  17
TORSDOF 6
ENDMDL
MODEL 6
REMARK VINA RESULT:      -7.1      2.886      5.043
REMARK  Name = 
REMARK  7 active torsions:
REMARK  status: ('A' for Active; 'I' for Inactive)
REMARK    1  A    between atoms: C_1  and  C_2
REMARK    2  A    between atoms: C_5  and  O_6
REMARK    3  A    between atoms: O_6  and  C_7
REMARK    4  A    between atoms: C_7  and  C_8
REMARK    5  A    between atoms: C_11  and  S_12
REMARK    6  A    between atoms: N_13  and  C_14
REMARK    7  A    between atoms: C_14  and  C_15
REMARK                            x       y       z     vdW  Elec       q    Type
REMARK                         _______ _______ _______ _____ _____    ______ ____
ROOT
ATOM      1  C   UNL     1       5.760   4.764  16.560  0.00  0.00    +0.000 A 
ATOM      2  N   UNL     1       6.936   4.279  16.911  0.00  0.00    +0.000 NA
ATOM      3  N   UNL     1       7.728   5.319  17.327  0.00  0.00    +0.000 NA
ATOM      4  C   UNL     1       7.022   6.418  17.229  0.00  0.00    +0.000 A 
ATOM      5  N   UNL     1       5.768   6.130  16.764  0.00  0.00    +0.000 N 
ENDROOT
BRANCH   4   6
ATOM      6  S   UNL     1       7.583   7.994  17.645  0.00  0.00    +0.000 S 
ATOM      7  H   UNL     1       7.215   8.589  16.499  0.00  0.00    +0.000 HD
ENDBRANCH   4   6
BRANCH   1   8
ATOM      8  C   UNL     1       4.579   3.958  16.135  0.00  0.00    +0.000 C 
BRANCH   8   9
ATOM      9  O   UNL     1       4.552   2.769  16.922  0.00  0.00    +0.000 OA
BRANCH   9  14
ATOM     10  C   UNL     1       1.208   2.773  21.517  0.00  0.00    +0.000 C 
ATOM     11  C   UNL     1       2.076   2.789  20.295  0.00  0.00    +0.000 A 
ATOM     12  C   UNL     1       3.467   2.678  20.392  0.00  0.00    +0.000 A 
ATOM     13  C   UNL     1       4.258   2.687  19.240  0.00  0.00    +0.000 A 
ATOM     14  C   UNL     1       3.676   2.796  17.977  0.00  0.00    +0.000 A 
ATOM     15  C   UNL     1       2.289   2.941  17.878  0.00  0.00    +0.000 A 
ATOM     16  C   UNL     1       1.495   2.934  19.030  0.00  0.00    +0.000 A 
ENDBRANCH   9  14
ENDBRANCH   8   9
ENDBRANCH   1   8
BRANCH   5  17
ATOM     17  C   UNL     1       4.688   7.057  16.492  0.00  0.00    +0.000 C 
BRANCH  17  18
ATOM     18  C   UNL     1       3.678   7.175  17.614  0.00  0.00    +0.000 A 
ATOM     19  C   UNL     1       3.718   6.235  18.657  0.00  0.00    +0.000 A 
ATOM     20  C   UNL     1       2.887   6.364  19.773  0.00  0.00    +0.000 A 
ATOM     21  C   UNL     1       2.011   7.442  19.869  0.00  0.00    +0.000 A 
ATOM     22  C   UNL     1       1.947   8.375  18.841  0.00  0.00    +0.000 A 
ATOM     23  C   UNL     1       2.768   8.241  17.720  0.00  0.00    +0.000 A 
ENDBRANCH  17  18
ENDBRANCH   5  17
TORSDOF 6
ENDMDL
MODEL 7
REMARK VINA RESULT:      -7.1      2.904      4.949
REMARK  Name = 
REMARK  7 active torsions:
REMARK  status: ('A' for Active; 'I' for Inactive)
REMARK    1  A    between atoms: C_1  and  C_2
REMARK    2  A    between atoms: C_5  and  O_6
REMARK    3  A    between atoms: O_6  and  C_7
REMARK    4  A    between atoms: C_7  and  C_8
REMARK    5  A    between atoms: C_11  and  S_12
REMARK    6  A    between atoms: N_13  and  C_14
REMARK    7  A    between atoms: C_14  and  C_15
REMARK                            x       y       z     vdW  Elec       q    Type
REMARK                         _______ _______ _______ _____ _____    ______ ____
ROOT
ATOM      1  C   UNL     1       5.835   4.785  16.544  0.00  0.00    +0.000 A 
ATOM      2  N   UNL     1       7.013   4.318  16.914  0.00  0.00    +0.000 NA
ATOM      3  N   UNL     1       7.782   5.369  17.344  0.00  0.00    +0.000 NA
ATOM      4  C   UNL     1       7.060   6.457  17.236  0.00  0.00    +0.000 A 
ATOM      5  N   UNL     1       5.820   6.151  16.750  0.00  0.00    +0.000 N 
ENDROOT
BRANCH   4   6
ATOM      6  S   UNL     1       7.591   8.041  17.663  0.00  0.00    +0.000 S 
ATOM      7  H   UNL     1       6.870   8.140  18.790  0.00  0.00    +0.000 HD
ENDBRANCH   4   6
BRANCH   1   8
ATOM      8  C   UNL     1       4.675   3.962  16.099  0.00  0.00    +0.000 C 
BRANCH   8   9
ATOM      9  O   UNL     1       4.680   2.751  16.851  0.00  0.00    +0.000 OA
BRANCH   9  14
ATOM     10  C   UNL     1       1.044   2.877  21.218  0.00  0.00    +0.000 C 
ATOM     11  C   UNL     1       2.017   2.826  20.077  0.00  0.00    +0.000 A 
ATOM     12  C   UNL     1       1.582   2.903  18.750  0.00  0.00    +0.000 A 
ATOM     13  C   UNL     1       2.505   2.863  17.701  0.00  0.00    +0.000 A 
ATOM     14  C   UNL     1       3.872   2.756  17.959  0.00  0.00    +0.000 A 
ATOM     15  C   UNL     1       4.307   2.646  19.283  0.00  0.00    +0.000 A 
ATOM     16  C   UNL     1       3.385   2.684  20.335  0.00  0.00    +0.000 A 
ENDBRANCH   9  14
ENDBRANCH   8   9
ENDBRANCH   1   8
BRANCH   5  17
ATOM     17  C   UNL     1       4.730   7.062  16.462  0.00  0.00    +0.000 C 
BRANCH  17  18
ATOM     18  C   UNL     1       3.713   7.181  17.577  0.00  0.00    +0.000 A 
ATOM     19  C   UNL     1       3.720   6.219  18.601  0.00  0.00    +0.000 A 
ATOM     20  C   UNL     1       2.883   6.345  19.712  0.00  0.00    +0.000 A 
ATOM     21  C   UNL     1       2.032   7.441  19.823  0.00  0.00    +0.000 A 
ATOM     22  C   UNL     1       2.000   8.397  18.815  0.00  0.00    +0.000 A 
ATOM     23  C   UNL     1       2.828   8.266  17.698  0.00  0.00    +0.000 A 
ENDBRANCH  17  18
ENDBRANCH   5  17
TORSDOF 6
ENDMDL
MODEL 8
REMARK VINA RESULT:      -7.0      1.227      2.047
REMARK  Name = 
REMARK  7 active torsions:
REMARK  status: ('A' for Active; 'I' for Inactive)
REMARK    1  A    between atoms: C_1  and  C_2
REMARK    2  A    between atoms: C_5  and  O_6
REMARK    3  A    between atoms: O_6  and  C_7
REMARK    4  A    between atoms: C_7  and  C_8
REMARK    5  A    between atoms: C_11  and  S_12
REMARK    6  A    between atoms: N_13  and  C_14
REMARK    7  A    between atoms: C_14  and  C_15
REMARK                            x       y       z     vdW  Elec       q    Type
REMARK                         _______ _______ _______ _____ _____    ______ ____
ROOT
ATOM      1  C   UNL     1       4.469   3.505  18.735  0.00  0.00    +0.000 A 
ATOM      2  N   UNL     1       5.197   2.773  19.559  0.00  0.00    +0.000 NA
ATOM      3  N   UNL     1       4.414   2.412  20.626  0.00  0.00    +0.000 NA
ATOM      4  C   UNL     1       3.224   2.922  20.433  0.00  0.00    +0.000 A 
ATOM      5  N   UNL     1       3.193   3.611  19.252  0.00  0.00    +0.000 N 
ENDROOT
BRANCH   4   6
ATOM      6  S   UNL     1       1.885   2.737  21.504  0.00  0.00    +0.000 S 
ATOM      7  H   UNL     1       1.612   1.463  21.180  0.00  0.00    +0.000 HD
ENDBRANCH   4   6
BRANCH   1   8
ATOM      8  C   UNL     1       4.914   4.023  17.410  0.00  0.00    +0.000 C 
BRANCH   8   9
ATOM      9  O   UNL     1       6.336   4.119  17.430  0.00  0.00    +0.000 OA
BRANCH   9  14
ATOM     10  C   UNL     1       8.507   9.290  18.356  0.00  0.00    +0.000 C 
ATOM     11  C   UNL     1       7.936   7.929  18.088  0.00  0.00    +0.000 A 
ATOM     12  C   UNL     1       8.271   6.832  18.888  0.00  0.00    +0.000 A 
ATOM     13  C   UNL     1       7.722   5.573  18.627  0.00  0.00    +0.000 A 
ATOM     14  C   UNL     1       6.826   5.392  17.572  0.00  0.00    +0.000 A 
ATOM     15  C   UNL     1       6.516   6.479  16.750  0.00  0.00    +0.000 A 
ATOM     16  C   UNL     1       7.065   7.739  17.008  0.00  0.00    +0.000 A 
ENDBRANCH   9  14
ENDBRANCH   8   9
ENDBRANCH   1   8
BRANCH   5  17
ATOM     17  C   UNL     1       2.080   4.341  18.679  0.00  0.00    +0.000 C 
BRANCH  17  18
ATOM     18  C   UNL     1       2.099   5.826  18.970  0.00  0.00    +0.000 A 
ATOM     19  C   UNL     1       2.314   6.718  17.906  0.00  0.00    +0.000 A 
ATOM     20  C   UNL     1       2.226   8.099  18.097  0.00  0.00    +0.000 A 
ATOM     21  C   UNL     1       1.912   8.611  19.353  0.00  0.00    +0.000 A 
ATOM     22  C   UNL     1       1.709   7.746  20.422  0.00  0.00    +0.000 A 
ATOM     23  C   UNL     1       1.808   6.366  20.235  0.00  0.00    +0.000 A 
ENDBRANCH  17  18
ENDBRANCH   5  17
TORSDOF 6
ENDMDL
MODEL 9
REMARK VINA RESULT:      -6.9      1.247      1.846
REMARK  Name = 
REMARK  7 active torsions:
REMARK  status: ('A' for Active; 'I' for Inactive)
REMARK    1  A    between atoms: C_1  and  C_2
REMARK    2  A    between atoms: C_5  and  O_6
REMARK    3  A    between atoms: O_6  and  C_7
REMARK    4  A    between atoms: C_7  and  C_8
REMARK    5  A    between atoms: C_11  and  S_12
REMARK    6  A    between atoms: N_13  and  C_14
REMARK    7  A    between atoms: C_14  and  C_15
REMARK                            x       y       z     vdW  Elec       q    Type
REMARK                         _______ _______ _______ _____ _____    ______ ____
ROOT
ATOM      1  C   UNL     1       4.512   3.492  18.929  0.00  0.00    +0.000 A 
ATOM      2  N   UNL     1       5.015   2.719  19.873  0.00  0.00    +0.000 NA
ATOM      3  N   UNL     1       4.008   2.382  20.742  0.00  0.00    +0.000 NA
ATOM      4  C   UNL     1       2.909   2.949  20.311  0.00  0.00    +0.000 A 
ATOM      5  N   UNL     1       3.161   3.651  19.165  0.00  0.00    +0.000 N 
ENDROOT
BRANCH   4   6
ATOM      6  S   UNL     1       1.365   2.814  21.068  0.00  0.00    +0.000 S 
ATOM      7  H   UNL     1       1.110   1.561  20.661  0.00  0.00    +0.000 HD
ENDBRANCH   4   6
BRANCH   1   8
ATOM      8  C   UNL     1       5.251   4.003  17.740  0.00  0.00    +0.000 C 
BRANCH   8   9
ATOM      9  O   UNL     1       6.624   4.139  18.099  0.00  0.00    +0.000 OA
BRANCH   9  14
ATOM     10  C   UNL     1       8.350   9.552  17.944  0.00  0.00    +0.000 C 
ATOM     11  C   UNL     1       7.895   8.124  18.009  0.00  0.00    +0.000 A 
ATOM     12  C   UNL     1       6.917   7.635  17.139  0.00  0.00    +0.000 A 
ATOM     13  C   UNL     1       6.512   6.299  17.210  0.00  0.00    +0.000 A 
ATOM     14  C   UNL     1       7.084   5.431  18.141  0.00  0.00    +0.000 A 
ATOM     15  C   UNL     1       8.038   5.925  19.034  0.00  0.00    +0.000 A 
ATOM     16  C   UNL     1       8.443   7.263  18.967  0.00  0.00    +0.000 A 
ENDBRANCH   9  14
ENDBRANCH   8   9
ENDBRANCH   1   8
BRANCH   5  17
ATOM     17  C   UNL     1       2.227   4.438  18.383  0.00  0.00    +0.000 C 
BRANCH  17  18
ATOM     18  C   UNL     1       2.197   5.906  18.751  0.00  0.00    +0.000 A 
ATOM     19  C   UNL     1       2.291   6.859  17.723  0.00  0.00    +0.000 A 
ATOM     20  C   UNL     1       2.153   8.223  17.993  0.00  0.00    +0.000 A 
ATOM     21  C   UNL     1       1.907   8.656  19.293  0.00  0.00    +0.000 A 
ATOM     22  C   UNL     1       1.824   7.729  20.326  0.00  0.00    +0.000 A 
ATOM     23  C   UNL     1       1.974   6.367  20.060  0.00  0.00    +0.000 A 
ENDBRANCH  17  18
ENDBRANCH   5  17
TORSDOF 6
ENDMDL
