MODEL 1
REMARK VINA RESULT:      -8.1      0.000      0.000
REMARK  Name = 
REMARK  1 active torsions:
REMARK  status: ('A' for Active; 'I' for Inactive)
REMARK    1  A    between atoms: C_6  and  C_7
REMARK                            x       y       z     vdW  Elec       q    Type
REMARK                         _______ _______ _______ _____ _____    ______ ____
ROOT
ATOM      1  N   UNL     1       2.169   2.561  19.267  0.00  0.00    +0.000 NA
ATOM      2  C   UNL     1       2.667   3.754  19.288  0.00  0.00    +0.000 C 
ATOM      3  S   UNL     1       2.353   4.657  20.746  0.00  0.00    +0.000 S 
ATOM      4  C   UNL     1       2.201   6.286  20.068  0.00  0.00    +0.000 A 
ATOM      5  C   UNL     1       1.467   7.219  20.823  0.00  0.00    +0.000 A 
ATOM      6  C   UNL     1       1.242   8.532  20.376  0.00  0.00    +0.000 A 
ATOM      7  C   UNL     1       1.786   8.882  19.131  0.00  0.00    +0.000 A 
ATOM      8  C   UNL     1       2.532   7.966  18.377  0.00  0.00    +0.000 A 
ATOM      9  C   UNL     1       2.746   6.657  18.838  0.00  0.00    +0.000 A 
ATOM     10  C   UNL     1       3.537   5.684  18.004  0.00  0.00    +0.000 C 
ATOM     11  N   UNL     1       4.231   6.209  17.060  0.00  0.00    +0.000 NA
ATOM     12  C   UNL     1       4.982   5.403  16.115  0.00  0.00    +0.000 C 
ATOM     13  C   UNL     1       5.074   3.931  16.435  0.00  0.00    +0.000 C 
ATOM     14  C   UNL     1       4.006   3.372  17.349  0.00  0.00    +0.000 C 
ATOM     15  N   UNL     1       3.425   4.330  18.289  0.00  0.00    +0.000 N 
ATOM     16  H   UNL     1       1.649   2.444  20.145  0.00  0.00    +0.000 HD
ENDROOT
BRANCH   6  17
ATOM     17  C   UNL     1       0.458   9.490  21.185  0.00  0.00    +0.000 A 
ATOM     18  C   UNL     1      -0.283  10.532  20.609  0.00  0.00    +0.000 A 
ATOM     19  C   UNL     1      -1.016  11.412  21.408  0.00  0.00    +0.000 A 
ATOM     20  C   UNL     1      -0.997  11.228  22.778  0.00  0.00    +0.000 A 
ATOM     21  N   UNL     1      -0.308  10.244  23.386  0.00  0.00    +0.000 NA
ATOM     22  C   UNL     1       0.399   9.412  22.581  0.00  0.00    +0.000 A 
ENDBRANCH   6  17
TORSDOF 1
ENDMDL
MODEL 2
REMARK VINA RESULT:      -8.0      0.723      1.096
REMARK  Name = 
REMARK  1 active torsions:
REMARK  status: ('A' for Active; 'I' for Inactive)
REMARK    1  A    between atoms: C_6  and  C_7
REMARK                            x       y       z     vdW  Elec       q    Type
REMARK                         _______ _______ _______ _____ _____    ______ ____
ROOT
ATOM      1  N   UNL     1       2.529   2.678  18.889  0.00  0.00    +0.000 NA
ATOM      2  C   UNL     1       2.961   3.895  18.949  0.00  0.00    +0.000 C 
ATOM      3  S   UNL     1       2.599   4.732  20.436  0.00  0.00    +0.000 S 
ATOM      4  C   UNL     1       2.358   6.372  19.811  0.00  0.00    +0.000 A 
ATOM      5  C   UNL     1       1.575   7.238  20.596  0.00  0.00    +0.000 A 
ATOM      6  C   UNL     1       1.278   8.551  20.192  0.00  0.00    +0.000 A 
ATOM      7  C   UNL     1       1.800   8.970  18.959  0.00  0.00    +0.000 A 
ATOM      8  C   UNL     1       2.595   8.122  18.176  0.00  0.00    +0.000 A 
ATOM      9  C   UNL     1       2.880   6.811  18.594  0.00  0.00    +0.000 A 
ATOM     10  C   UNL     1       3.722   5.911  17.730  0.00  0.00    +0.000 C 
ATOM     11  N   UNL     1       4.385   6.503  16.803  0.00  0.00    +0.000 NA
ATOM     12  C   UNL     1       5.178   5.771  15.832  0.00  0.00    +0.000 C 
ATOM     13  C   UNL     1       5.350   4.297  16.105  0.00  0.00    +0.000 C 
ATOM     14  C   UNL     1       4.315   3.651  17.000  0.00  0.00    +0.000 C 
ATOM     15  N   UNL     1       3.684   4.545  17.970  0.00  0.00    +0.000 N 
ATOM     16  H   UNL     1       2.016   2.505  19.763  0.00  0.00    +0.000 HD
ENDROOT
BRANCH   6  17
ATOM     17  C   UNL     1       0.444   9.438  21.031  0.00  0.00    +0.000 A 
ATOM     18  C   UNL     1       0.163   9.156  22.376  0.00  0.00    +0.000 A 
ATOM     19  C   UNL     1      -0.623  10.023  23.137  0.00  0.00    +0.000 A 
ATOM     20  C   UNL     1      -1.112  11.169  22.535  0.00  0.00    +0.000 A 
ATOM     21  N   UNL     1      -0.872  11.492  21.250  0.00  0.00    +0.000 NA
ATOM     22  C   UNL     1      -0.112  10.624  20.538  0.00  0.00    +0.000 A 
ENDBRANCH   6  17
TORSDOF 1
ENDMDL
MODEL 3
REMARK VINA RESULT:      -7.7      2.420      7.613
REMARK  Name = 
REMARK  1 active torsions:
REMARK  status: ('A' for Active; 'I' for Inactive)
REMARK    1  A    between atoms: C_6  and  C_7
REMARK                            x       y       z     vdW  Elec       q    Type
REMARK                         _______ _______ _______ _____ _____    ______ ____
ROOT
ATOM      1  N   UNL     1      -0.673  11.404  18.292  0.00  0.00    +0.000 NA
ATOM      2  C   UNL     1       0.252  10.740  18.905  0.00  0.00    +0.000 C 
ATOM      3  S   UNL     1       1.691  10.444  17.965  0.00  0.00    +0.000 S 
ATOM      4  C   UNL     1       2.138   8.847  18.586  0.00  0.00    +0.000 A 
ATOM      5  C   UNL     1       2.940   8.046  17.752  0.00  0.00    +0.000 A 
ATOM      6  C   UNL     1       3.329   6.745  18.113  0.00  0.00    +0.000 A 
ATOM      7  C   UNL     1       2.881   6.269  19.354  0.00  0.00    +0.000 A 
ATOM      8  C   UNL     1       2.095   7.063  20.200  0.00  0.00    +0.000 A 
ATOM      9  C   UNL     1       1.712   8.361  19.823  0.00  0.00    +0.000 A 
ATOM     10  C   UNL     1       0.853   9.190  20.740  0.00  0.00    +0.000 C 
ATOM     11  N   UNL     1       0.778   8.770  21.951  0.00  0.00    +0.000 NA
ATOM     12  C   UNL     1      -0.074   9.407  22.937  0.00  0.00    +0.000 C 
ATOM     13  C   UNL     1      -0.699  10.715  22.518  0.00  0.00    +0.000 C 
ATOM     14  C   UNL     1      -0.811  10.962  21.030  0.00  0.00    +0.000 C 
ATOM     15  N   UNL     1       0.195  10.290  20.208  0.00  0.00    +0.000 N 
ATOM     16  H   UNL     1      -0.332  11.570  17.337  0.00  0.00    +0.000 HD
ENDROOT
BRANCH   6  17
ATOM     17  C   UNL     1       4.165   5.921  17.214  0.00  0.00    +0.000 A 
ATOM     18  C   UNL     1       4.197   4.521  17.288  0.00  0.00    +0.000 A 
ATOM     19  C   UNL     1       4.995   3.779  16.417  0.00  0.00    +0.000 A 
ATOM     20  C   UNL     1       5.748   4.456  15.474  0.00  0.00    +0.000 A 
ATOM     21  N   UNL     1       5.754   5.798  15.354  0.00  0.00    +0.000 NA
ATOM     22  C   UNL     1       4.974   6.488  16.222  0.00  0.00    +0.000 A 
ENDBRANCH   6  17
TORSDOF 1
ENDMDL
MODEL 4
REMARK VINA RESULT:      -7.7      2.129      7.567
REMARK  Name = 
REMARK  1 active torsions:
REMARK  status: ('A' for Active; 'I' for Inactive)
REMARK    1  A    between atoms: C_6  and  C_7
REMARK                            x       y       z     vdW  Elec       q    Type
REMARK                         _______ _______ _______ _____ _____    ______ ____
ROOT
ATOM      1  N   UNL     1      -0.820  11.524  18.413  0.00  0.00    +0.000 NA
ATOM      2  C   UNL     1       0.098  10.859  19.035  0.00  0.00    +0.000 C 
ATOM      3  S   UNL     1       1.513  10.493  18.085  0.00  0.00    +0.000 S 
ATOM      4  C   UNL     1       1.931   8.909  18.759  0.00  0.00    +0.000 A 
ATOM      5  C   UNL     1       2.700   8.058  17.943  0.00  0.00    +0.000 A 
ATOM      6  C   UNL     1       3.062   6.762  18.347  0.00  0.00    +0.000 A 
ATOM      7  C   UNL     1       2.623   6.343  19.612  0.00  0.00    +0.000 A 
ATOM      8  C   UNL     1       1.870   7.187  20.439  0.00  0.00    +0.000 A 
ATOM      9  C   UNL     1       1.514   8.480  20.020  0.00  0.00    +0.000 A 
ATOM     10  C   UNL     1       0.691   9.364  20.918  0.00  0.00    +0.000 C 
ATOM     11  N   UNL     1       0.625   8.991  22.145  0.00  0.00    +0.000 NA
ATOM     12  C   UNL     1      -0.195   9.686  23.120  0.00  0.00    +0.000 C 
ATOM     13  C   UNL     1      -0.794  10.992  22.662  0.00  0.00    +0.000 C 
ATOM     14  C   UNL     1      -0.924  11.187  21.167  0.00  0.00    +0.000 C 
ATOM     15  N   UNL     1       0.051  10.460  20.356  0.00  0.00    +0.000 N 
ATOM     16  H   UNL     1      -0.491  11.646  17.447  0.00  0.00    +0.000 HD
ENDROOT
BRANCH   6  17
ATOM     17  C   UNL     1       3.863   5.884  17.466  0.00  0.00    +0.000 A 
ATOM     18  C   UNL     1       4.814   6.387  16.566  0.00  0.00    +0.000 A 
ATOM     19  C   UNL     1       5.554   5.524  15.756  0.00  0.00    +0.000 A 
ATOM     20  C   UNL     1       5.333   4.163  15.868  0.00  0.00    +0.000 A 
ATOM     21  N   UNL     1       4.437   3.624  16.717  0.00  0.00    +0.000 NA
ATOM     22  C   UNL     1       3.729   4.491  17.482  0.00  0.00    +0.000 A 
ENDBRANCH   6  17
TORSDOF 1
ENDMDL
MODEL 5
REMARK VINA RESULT:      -7.6      1.303      1.674
REMARK  Name = 
REMARK  1 active torsions:
REMARK  status: ('A' for Active; 'I' for Inactive)
REMARK    1  A    between atoms: C_6  and  C_7
REMARK                            x       y       z     vdW  Elec       q    Type
REMARK                         _______ _______ _______ _____ _____    ______ ____
ROOT
ATOM      1  N   UNL     1       3.835   2.246  17.912  0.00  0.00    +0.000 NA
ATOM      2  C   UNL     1       4.162   3.495  17.988  0.00  0.00    +0.000 C 
ATOM      3  S   UNL     1       3.750   4.273  19.492  0.00  0.00    +0.000 S 
ATOM      4  C   UNL     1       3.360   5.896  18.899  0.00  0.00    +0.000 A 
ATOM      5  C   UNL     1       2.515   6.679  19.709  0.00  0.00    +0.000 A 
ATOM      6  C   UNL     1       2.101   7.967  19.330  0.00  0.00    +0.000 A 
ATOM      7  C   UNL     1       2.568   8.450  18.099  0.00  0.00    +0.000 A 
ATOM      8  C   UNL     1       3.422   7.686  17.292  0.00  0.00    +0.000 A 
ATOM      9  C   UNL     1       3.825   6.398  17.684  0.00  0.00    +0.000 A 
ATOM     10  C   UNL     1       4.730   5.588  16.794  0.00  0.00    +0.000 C 
ATOM     11  N   UNL     1       5.327   6.250  15.869  0.00  0.00    +0.000 NA
ATOM     12  C   UNL     1       6.166   5.605  14.877  0.00  0.00    +0.000 C 
ATOM     13  C   UNL     1       6.468   4.147  15.121  0.00  0.00    +0.000 C 
ATOM     14  C   UNL     1       5.506   3.400  16.018  0.00  0.00    +0.000 C 
ATOM     15  N   UNL     1       4.813   4.220  17.011  0.00  0.00    +0.000 N 
ATOM     16  H   UNL     1       3.352   2.015  18.789  0.00  0.00    +0.000 HD
ENDROOT
BRANCH   6  17
ATOM     17  C   UNL     1       1.205   8.765  20.195  0.00  0.00    +0.000 A 
ATOM     18  C   UNL     1       0.388   9.789  19.692  0.00  0.00    +0.000 A 
ATOM     19  C   UNL     1      -0.448  10.515  20.541  0.00  0.00    +0.000 A 
ATOM     20  C   UNL     1      -0.457  10.197  21.887  0.00  0.00    +0.000 A 
ATOM     21  N   UNL     1       0.301   9.223  22.425  0.00  0.00    +0.000 NA
ATOM     22  C   UNL     1       1.109   8.543  21.573  0.00  0.00    +0.000 A 
ENDBRANCH   6  17
TORSDOF 1
ENDMDL
MODEL 6
REMARK VINA RESULT:      -7.5      2.053      7.279
REMARK  Name = 
REMARK  1 active torsions:
REMARK  status: ('A' for Active; 'I' for Inactive)
REMARK    1  A    between atoms: C_6  and  C_7
REMARK                            x       y       z     vdW  Elec       q    Type
REMARK                         _______ _______ _______ _____ _____    ______ ____
ROOT
ATOM      1  N   UNL     1      -0.129  10.684  23.113  0.00  0.00    +0.000 NA
ATOM      2  C   UNL     1      -0.188  10.200  21.916  0.00  0.00    +0.000 C 
ATOM      3  S   UNL     1       0.289   8.529  21.773  0.00  0.00    +0.000 S 
ATOM      4  C   UNL     1       1.047   8.565  20.173  0.00  0.00    +0.000 A 
ATOM      5  C   UNL     1       1.988   7.555  19.897  0.00  0.00    +0.000 A 
ATOM      6  C   UNL     1       2.687   7.497  18.679  0.00  0.00    +0.000 A 
ATOM      7  C   UNL     1       2.406   8.497  17.736  0.00  0.00    +0.000 A 
ATOM      8  C   UNL     1       1.459   9.498  17.993  0.00  0.00    +0.000 A 
ATOM      9  C   UNL     1       0.771   9.543  19.217  0.00  0.00    +0.000 A 
ATOM     10  C   UNL     1      -0.229  10.637  19.479  0.00  0.00    +0.000 C 
ATOM     11  N   UNL     1      -0.617  11.287  18.441  0.00  0.00    +0.000 NA
ATOM     12  C   UNL     1      -1.513  12.424  18.533  0.00  0.00    +0.000 C 
ATOM     13  C   UNL     1      -2.131  12.665  19.888  0.00  0.00    +0.000 C 
ATOM     14  C   UNL     1      -1.403  12.075  21.076  0.00  0.00    +0.000 C 
ATOM     15  N   UNL     1      -0.613  10.878  20.791  0.00  0.00    +0.000 N 
ATOM     16  H   UNL     1       0.242   9.938  23.714  0.00  0.00    +0.000 HD
ENDROOT
BRANCH   6  17
ATOM     17  C   UNL     1       3.678   6.431  18.418  0.00  0.00    +0.000 A 
ATOM     18  C   UNL     1       4.378   6.334  17.207  0.00  0.00    +0.000 A 
ATOM     19  C   UNL     1       5.311   5.316  17.002  0.00  0.00    +0.000 A 
ATOM     20  C   UNL     1       5.532   4.410  18.024  0.00  0.00    +0.000 A 
ATOM     21  N   UNL     1       4.893   4.456  19.208  0.00  0.00    +0.000 NA
ATOM     22  C   UNL     1       3.987   5.453  19.370  0.00  0.00    +0.000 A 
ENDBRANCH   6  17
TORSDOF 1
ENDMDL
MODEL 7
REMARK VINA RESULT:      -7.4      2.175      7.561
REMARK  Name = 
REMARK  1 active torsions:
REMARK  status: ('A' for Active; 'I' for Inactive)
REMARK    1  A    between atoms: C_6  and  C_7
REMARK                            x       y       z     vdW  Elec       q    Type
REMARK                         _______ _______ _______ _____ _____    ______ ____
ROOT
ATOM      1  N   UNL     1      -0.716  11.763  18.077  0.00  0.00    +0.000 NA
ATOM      2  C   UNL     1       0.015  11.123  18.930  0.00  0.00    +0.000 C 
ATOM      3  S   UNL     1       1.469  10.421  18.273  0.00  0.00    +0.000 S 
ATOM      4  C   UNL     1       1.571   8.953  19.259  0.00  0.00    +0.000 A 
ATOM      5  C   UNL     1       2.305   7.880  18.720  0.00  0.00    +0.000 A 
ATOM      6  C   UNL     1       2.426   6.648  19.386  0.00  0.00    +0.000 A 
ATOM      7  C   UNL     1       1.781   6.529  20.625  0.00  0.00    +0.000 A 
ATOM      8  C   UNL     1       1.060   7.596  21.179  0.00  0.00    +0.000 A 
ATOM      9  C   UNL     1       0.946   8.820  20.499  0.00  0.00    +0.000 A 
ATOM     10  C   UNL     1       0.154   9.947  21.104  0.00  0.00    +0.000 C 
ATOM     11  N   UNL     1      -0.114   9.821  22.354  0.00  0.00    +0.000 NA
ATOM     12  C   UNL     1      -0.940  10.778  23.067  0.00  0.00    +0.000 C 
ATOM     13  C   UNL     1      -1.286  12.037  22.312  0.00  0.00    +0.000 C 
ATOM     14  C   UNL     1      -1.204  11.962  20.803  0.00  0.00    +0.000 C 
ATOM     15  N   UNL     1      -0.249  10.987  20.278  0.00  0.00    +0.000 N 
ATOM     16  H   UNL     1      -0.257  11.662  17.163  0.00  0.00    +0.000 HD
ENDROOT
BRANCH   6  17
ATOM     17  C   UNL     1       3.196   5.533  18.793  0.00  0.00    +0.000 A 
ATOM     18  C   UNL     1       2.693   4.743  17.749  0.00  0.00    +0.000 A 
ATOM     19  C   UNL     1       3.454   3.703  17.212  0.00  0.00    +0.000 A 
ATOM     20  C   UNL     1       4.716   3.476  17.730  0.00  0.00    +0.000 A 
ATOM     21  N   UNL     1       5.252   4.204  18.728  0.00  0.00    +0.000 NA
ATOM     22  C   UNL     1       4.482   5.200  19.232  0.00  0.00    +0.000 A 
ENDBRANCH   6  17
TORSDOF 1
ENDMDL
MODEL 8
REMARK VINA RESULT:      -7.4      2.077      7.348
REMARK  Name = 
REMARK  1 active torsions:
REMARK  status: ('A' for Active; 'I' for Inactive)
REMARK    1  A    between atoms: C_6  and  C_7
REMARK                            x       y       z     vdW  Elec       q    Type
REMARK                         _______ _______ _______ _____ _____    ______ ____
ROOT
ATOM      1  N   UNL     1      -0.154  10.673  23.112  0.00  0.00    +0.000 NA
ATOM      2  C   UNL     1      -0.210  10.185  21.916  0.00  0.00    +0.000 C 
ATOM      3  S   UNL     1       0.268   8.514  21.779  0.00  0.00    +0.000 S 
ATOM      4  C   UNL     1       1.030   8.546  20.180  0.00  0.00    +0.000 A 
ATOM      5  C   UNL     1       1.973   7.536  19.910  0.00  0.00    +0.000 A 
ATOM      6  C   UNL     1       2.675   7.476  18.694  0.00  0.00    +0.000 A 
ATOM      7  C   UNL     1       2.395   8.472  17.748  0.00  0.00    +0.000 A 
ATOM      8  C   UNL     1       1.447   9.473  18.000  0.00  0.00    +0.000 A 
ATOM      9  C   UNL     1       0.756   9.521  19.222  0.00  0.00    +0.000 A 
ATOM     10  C   UNL     1      -0.246  10.615  19.478  0.00  0.00    +0.000 C 
ATOM     11  N   UNL     1      -0.632  11.261  18.437  0.00  0.00    +0.000 NA
ATOM     12  C   UNL     1      -1.529  12.399  18.524  0.00  0.00    +0.000 C 
ATOM     13  C   UNL     1      -2.150  12.643  19.877  0.00  0.00    +0.000 C 
ATOM     14  C   UNL     1      -1.424  12.057  21.068  0.00  0.00    +0.000 C 
ATOM     15  N   UNL     1      -0.633  10.859  20.788  0.00  0.00    +0.000 N 
ATOM     16  H   UNL     1       0.216   9.928  23.716  0.00  0.00    +0.000 HD
ENDROOT
BRANCH   6  17
ATOM     17  C   UNL     1       3.668   6.409  18.438  0.00  0.00    +0.000 A 
ATOM     18  C   UNL     1       4.034   5.472  19.415  0.00  0.00    +0.000 A 
ATOM     19  C   UNL     1       4.970   4.476  19.132  0.00  0.00    +0.000 A 
ATOM     20  C   UNL     1       5.522   4.433  17.864  0.00  0.00    +0.000 A 
ATOM     21  N   UNL     1       5.206   5.303  16.886  0.00  0.00    +0.000 NA
ATOM     22  C   UNL     1       4.299   6.262  17.198  0.00  0.00    +0.000 A 
ENDBRANCH   6  17
TORSDOF 1
ENDMDL
MODEL 9
REMARK VINA RESULT:      -7.4      2.754      7.886
REMARK  Name = 
REMARK  1 active torsions:
REMARK  status: ('A' for Active; 'I' for Inactive)
REMARK    1  A    between atoms: C_6  and  C_7
REMARK                            x       y       z     vdW  Elec       q    Type
REMARK                         _______ _______ _______ _____ _____    ______ ____
ROOT
ATOM      1  N   UNL     1       3.228   2.673  20.686  0.00  0.00    +0.000 NA
ATOM      2  C   UNL     1       3.032   3.500  19.711  0.00  0.00    +0.000 C 
ATOM      3  S   UNL     1       3.253   2.824  18.118  0.00  0.00    +0.000 S 
ATOM      4  C   UNL     1       3.917   4.235  17.279  0.00  0.00    +0.000 A 
ATOM      5  C   UNL     1       4.685   3.981  16.127  0.00  0.00    +0.000 A 
ATOM      6  C   UNL     1       5.299   5.012  15.396  0.00  0.00    +0.000 A 
ATOM      7  C   UNL     1       5.114   6.322  15.863  0.00  0.00    +0.000 A 
ATOM      8  C   UNL     1       4.338   6.588  17.000  0.00  0.00    +0.000 A 
ATOM      9  C   UNL     1       3.733   5.545  17.721  0.00  0.00    +0.000 A 
ATOM     10  C   UNL     1       2.918   5.853  18.949  0.00  0.00    +0.000 C 
ATOM     11  N   UNL     1       2.571   7.082  19.084  0.00  0.00    +0.000 NA
ATOM     12  C   UNL     1       1.856   7.557  20.254  0.00  0.00    +0.000 C 
ATOM     13  C   UNL     1       1.357   6.491  21.197  0.00  0.00    +0.000 C 
ATOM     14  C   UNL     1       2.057   5.151  21.131  0.00  0.00    +0.000 C 
ATOM     15  N   UNL     1       2.648   4.819  19.835  0.00  0.00    +0.000 N 
ATOM     16  H   UNL     1       3.520   1.783  20.263  0.00  0.00    +0.000 HD
ENDROOT
BRANCH   6  17
ATOM     17  C   UNL     1       6.109   4.718  14.193  0.00  0.00    +0.000 A 
ATOM     18  C   UNL     1       5.749   3.727  13.267  0.00  0.00    +0.000 A 
ATOM     19  C   UNL     1       6.537   3.484  12.141  0.00  0.00    +0.000 A 
ATOM     20  C   UNL     1       7.676   4.247  11.958  0.00  0.00    +0.000 A 
ATOM     21  N   UNL     1       8.068   5.213  12.810  0.00  0.00    +0.000 NA
ATOM     22  C   UNL     1       7.285   5.417  13.898  0.00  0.00    +0.000 A 
ENDBRANCH   6  17
TORSDOF 1
ENDMDL
