MODEL 1
REMARK VINA RESULT:      -8.3      0.000      0.000
REMARK  Name = 
REMARK  3 active torsions:
REMARK  status: ('A' for Active; 'I' for Inactive)
REMARK    1  A    between atoms: C_1  and  C_2
REMARK    2  A    between atoms: C_4  and  O_5
REMARK    3  A    between atoms: O_5  and  C_6
REMARK                            x       y       z     vdW  Elec       q    Type
REMARK                         _______ _______ _______ _____ _____    ______ ____
ROOT
ATOM      1  C   UNL     1       7.610   7.884  17.704  0.00  0.00    +0.000 C 
ATOM      2  C   UNL     1       7.042   6.671  17.790  0.00  0.00    +0.000 C 
ATOM      3  C   UNL     1       7.594   5.628  18.690  0.00  0.00    +0.000 C 
ATOM      4  O   UNL     1       8.543   5.743  19.459  0.00  0.00    +0.000 OA
ATOM      5  O   UNL     1       6.942   4.477  18.469  0.00  0.00    +0.000 OA
ATOM      6  C   UNL     1       5.860   4.683  17.586  0.00  0.00    +0.000 C 
ATOM      7  C   UNL     1       4.548   4.693  18.296  0.00  0.00    +0.000 A 
ATOM      8  C   UNL     1       4.173   4.141  19.503  0.00  0.00    +0.000 A 
ATOM      9  C   UNL     1       2.849   4.297  19.915  0.00  0.00    +0.000 A 
ATOM     10  C   UNL     1       1.904   4.889  19.062  0.00  0.00    +0.000 A 
ATOM     11  C   UNL     1       2.319   5.532  17.898  0.00  0.00    +0.000 A 
ATOM     12  C   UNL     1       3.677   5.546  17.635  0.00  0.00    +0.000 A 
ATOM     13  C   UNL     1       4.495   6.662  17.037  0.00  0.00    +0.000 C 
ATOM     14  C   UNL     1       5.938   6.081  16.965  0.00  0.00    +0.000 C 
ENDROOT
BRANCH   1  15
ATOM     15  O   UNL     1       8.592   8.317  18.558  0.00  0.00    +0.000 OA
BRANCH  15  19
ATOM     16  C   UNL     1      11.036  12.263  17.632  0.00  0.00    +0.000 C 
ATOM     17  C   UNL     1       9.791  11.700  18.294  0.00  0.00    +0.000 C 
ATOM     18  C   UNL     1       9.290  10.425  17.653  0.00  0.00    +0.000 C 
ATOM     19  C   UNL     1       8.606   9.723  18.811  0.00  0.00    +0.000 C 
ATOM     20  O   UNL     1       9.377  10.080  19.959  0.00  0.00    +0.000 OA
ATOM     21  C   UNL     1      10.051  11.236  19.701  0.00  0.00    +0.000 C 
ATOM     22  O   UNL     1      10.735  11.815  20.526  0.00  0.00    +0.000 OA
ENDBRANCH  15  19
ENDBRANCH   1  15
TORSDOF 2
ENDMDL
MODEL 2
REMARK VINA RESULT:      -8.0      6.418      8.806
REMARK  Name = 
REMARK  3 active torsions:
REMARK  status: ('A' for Active; 'I' for Inactive)
REMARK    1  A    between atoms: C_1  and  C_2
REMARK    2  A    between atoms: C_4  and  O_5
REMARK    3  A    between atoms: O_5  and  C_6
REMARK                            x       y       z     vdW  Elec       q    Type
REMARK                         _______ _______ _______ _____ _____    ______ ____
ROOT
ATOM      1  C   UNL     1       0.359  10.060  18.552  0.00  0.00    +0.000 C 
ATOM      2  C   UNL     1       0.975   9.111  19.273  0.00  0.00    +0.000 C 
ATOM      3  C   UNL     1       0.598   8.855  20.686  0.00  0.00    +0.000 C 
ATOM      4  O   UNL     1      -0.297   9.402  21.321  0.00  0.00    +0.000 OA
ATOM      5  O   UNL     1       1.464   7.976  21.212  0.00  0.00    +0.000 OA
ATOM      6  C   UNL     1       2.329   7.476  20.215  0.00  0.00    +0.000 C 
ATOM      7  C   UNL     1       1.967   6.089  19.799  0.00  0.00    +0.000 A 
ATOM      8  C   UNL     1       1.268   5.104  20.465  0.00  0.00    +0.000 A 
ATOM      9  C   UNL     1       1.094   3.875  19.826  0.00  0.00    +0.000 A 
ATOM     10  C   UNL     1       1.722   3.617  18.596  0.00  0.00    +0.000 A 
ATOM     11  C   UNL     1       2.331   4.653  17.893  0.00  0.00    +0.000 A 
ATOM     12  C   UNL     1       2.290   5.913  18.462  0.00  0.00    +0.000 A 
ATOM     13  C   UNL     1       2.111   7.239  17.769  0.00  0.00    +0.000 C 
ATOM     14  C   UNL     1       2.175   8.284  18.922  0.00  0.00    +0.000 C 
ENDROOT
BRANCH   1  15
ATOM     15  O   UNL     1      -0.768  10.716  18.978  0.00  0.00    +0.000 OA
BRANCH  15  19
ATOM     16  C   UNL     1      -2.989  10.260  14.823  0.00  0.00    +0.000 C 
ATOM     17  C   UNL     1      -3.074   9.982  16.313  0.00  0.00    +0.000 C 
ATOM     18  C   UNL     1      -1.724   9.810  16.973  0.00  0.00    +0.000 C 
ATOM     19  C   UNL     1      -1.993  10.268  18.395  0.00  0.00    +0.000 C 
ATOM     20  O   UNL     1      -2.966  11.305  18.265  0.00  0.00    +0.000 OA
ATOM     21  C   UNL     1      -3.628  11.149  17.084  0.00  0.00    +0.000 C 
ATOM     22  O   UNL     1      -4.563  11.850  16.738  0.00  0.00    +0.000 OA
ENDBRANCH  15  19
ENDBRANCH   1  15
TORSDOF 2
ENDMDL
MODEL 3
REMARK VINA RESULT:      -7.9      4.283      6.129
REMARK  Name = 
REMARK  3 active torsions:
REMARK  status: ('A' for Active; 'I' for Inactive)
REMARK    1  A    between atoms: C_1  and  C_2
REMARK    2  A    between atoms: C_4  and  O_5
REMARK    3  A    between atoms: O_5  and  C_6
REMARK                            x       y       z     vdW  Elec       q    Type
REMARK                         _______ _______ _______ _____ _____    ______ ____
ROOT
ATOM      1  C   UNL     1       6.959   5.398  16.878  0.00  0.00    +0.000 C 
ATOM      2  C   UNL     1       5.761   5.653  17.426  0.00  0.00    +0.000 C 
ATOM      3  C   UNL     1       4.765   6.506  16.731  0.00  0.00    +0.000 C 
ATOM      4  O   UNL     1       4.875   7.013  15.620  0.00  0.00    +0.000 OA
ATOM      5  O   UNL     1       3.731   6.724  17.557  0.00  0.00    +0.000 OA
ATOM      6  C   UNL     1       3.862   5.949  18.729  0.00  0.00    +0.000 C 
ATOM      7  C   UNL     1       2.948   4.769  18.729  0.00  0.00    +0.000 A 
ATOM      8  C   UNL     1       1.768   4.545  18.051  0.00  0.00    +0.000 A 
ATOM      9  C   UNL     1       1.107   3.333  18.263  0.00  0.00    +0.000 A 
ATOM     10  C   UNL     1       1.572   2.430  19.232  0.00  0.00    +0.000 A 
ATOM     11  C   UNL     1       2.817   2.623  19.827  0.00  0.00    +0.000 A 
ATOM     12  C   UNL     1       3.544   3.728  19.425  0.00  0.00    +0.000 A 
ATOM     13  C   UNL     1       5.034   3.835  19.221  0.00  0.00    +0.000 C 
ATOM     14  C   UNL     1       5.256   5.317  18.797  0.00  0.00    +0.000 C 
ENDROOT
BRANCH   1  15
ATOM     15  O   UNL     1       7.279   5.726  15.585  0.00  0.00    +0.000 OA
BRANCH  15  19
ATOM     16  C   UNL     1       7.089   4.739  10.960  0.00  0.00    +0.000 C 
ATOM     17  C   UNL     1       7.250   4.150  12.349  0.00  0.00    +0.000 C 
ATOM     18  C   UNL     1       7.867   5.107  13.344  0.00  0.00    +0.000 C 
ATOM     19  C   UNL     1       7.280   4.636  14.661  0.00  0.00    +0.000 C 
ATOM     20  O   UNL     1       5.968   4.178  14.331  0.00  0.00    +0.000 OA
ATOM     21  C   UNL     1       5.928   3.860  13.006  0.00  0.00    +0.000 C 
ATOM     22  O   UNL     1       4.954   3.375  12.459  0.00  0.00    +0.000 OA
ENDBRANCH  15  19
ENDBRANCH   1  15
TORSDOF 2
ENDMDL
MODEL 4
REMARK VINA RESULT:      -7.9      1.198      1.475
REMARK  Name = 
REMARK  3 active torsions:
REMARK  status: ('A' for Active; 'I' for Inactive)
REMARK    1  A    between atoms: C_1  and  C_2
REMARK    2  A    between atoms: C_4  and  O_5
REMARK    3  A    between atoms: O_5  and  C_6
REMARK                            x       y       z     vdW  Elec       q    Type
REMARK                         _______ _______ _______ _____ _____    ______ ____
ROOT
ATOM      1  C   UNL     1       7.443   7.925  17.709  0.00  0.00    +0.000 C 
ATOM      2  C   UNL     1       6.955   6.676  17.773  0.00  0.00    +0.000 C 
ATOM      3  C   UNL     1       7.562   5.660  18.667  0.00  0.00    +0.000 C 
ATOM      4  O   UNL     1       8.491   5.826  19.450  0.00  0.00    +0.000 OA
ATOM      5  O   UNL     1       6.989   4.472  18.423  0.00  0.00    +0.000 OA
ATOM      6  C   UNL     1       5.908   4.619  17.527  0.00  0.00    +0.000 C 
ATOM      7  C   UNL     1       4.588   4.534  18.219  0.00  0.00    +0.000 A 
ATOM      8  C   UNL     1       4.235   3.943  19.414  0.00  0.00    +0.000 A 
ATOM      9  C   UNL     1       2.898   4.007  19.810  0.00  0.00    +0.000 A 
ATOM     10  C   UNL     1       1.927   4.548  18.951  0.00  0.00    +0.000 A 
ATOM     11  C   UNL     1       2.315   5.232  17.801  0.00  0.00    +0.000 A 
ATOM     12  C   UNL     1       3.672   5.338  17.557  0.00  0.00    +0.000 A 
ATOM     13  C   UNL     1       4.423   6.512  16.984  0.00  0.00    +0.000 C 
ATOM     14  C   UNL     1       5.902   6.028  16.925  0.00  0.00    +0.000 C 
ENDROOT
BRANCH   1  15
ATOM     15  O   UNL     1       8.384   8.409  18.582  0.00  0.00    +0.000 OA
BRANCH  15  19
ATOM     16  C   UNL     1       9.166  12.864  19.979  0.00  0.00    +0.000 C 
ATOM     17  C   UNL     1       9.465  11.827  18.911  0.00  0.00    +0.000 C 
ATOM     18  C   UNL     1       9.418  10.404  19.422  0.00  0.00    +0.000 C 
ATOM     19  C   UNL     1       9.022   9.624  18.182  0.00  0.00    +0.000 C 
ATOM     20  O   UNL     1       8.156  10.502  17.461  0.00  0.00    +0.000 OA
ATOM     21  C   UNL     1       8.410  11.787  17.840  0.00  0.00    +0.000 C 
ATOM     22  O   UNL     1       7.870  12.756  17.337  0.00  0.00    +0.000 OA
ENDBRANCH  15  19
ENDBRANCH   1  15
TORSDOF 2
ENDMDL
MODEL 5
REMARK VINA RESULT:      -7.7      5.059      6.720
REMARK  Name = 
REMARK  3 active torsions:
REMARK  status: ('A' for Active; 'I' for Inactive)
REMARK    1  A    between atoms: C_1  and  C_2
REMARK    2  A    between atoms: C_4  and  O_5
REMARK    3  A    between atoms: O_5  and  C_6
REMARK                            x       y       z     vdW  Elec       q    Type
REMARK                         _______ _______ _______ _____ _____    ______ ____
ROOT
ATOM      1  C   UNL     1       2.975   5.335  20.189  0.00  0.00    +0.000 C 
ATOM      2  C   UNL     1       3.298   4.618  19.101  0.00  0.00    +0.000 C 
ATOM      3  C   UNL     1       2.326   4.417  17.998  0.00  0.00    +0.000 C 
ATOM      4  O   UNL     1       1.196   4.887  17.916  0.00  0.00    +0.000 OA
ATOM      5  O   UNL     1       2.842   3.545  17.120  0.00  0.00    +0.000 OA
ATOM      6  C   UNL     1       4.181   3.243  17.451  0.00  0.00    +0.000 C 
ATOM      7  C   UNL     1       5.153   3.934  16.555  0.00  0.00    +0.000 A 
ATOM      8  C   UNL     1       5.002   4.430  15.277  0.00  0.00    +0.000 A 
ATOM      9  C   UNL     1       6.110   5.022  14.666  0.00  0.00    +0.000 A 
ATOM     10  C   UNL     1       7.366   4.994  15.293  0.00  0.00    +0.000 A 
ATOM     11  C   UNL     1       7.476   4.587  16.620  0.00  0.00    +0.000 A 
ATOM     12  C   UNL     1       6.311   4.213  17.264  0.00  0.00    +0.000 A 
ATOM     13  C   UNL     1       5.920   4.471  18.697  0.00  0.00    +0.000 C 
ATOM     14  C   UNL     1       4.524   3.796  18.839  0.00  0.00    +0.000 C 
ENDROOT
BRANCH   1  15
ATOM     15  O   UNL     1       1.830   6.085  20.282  0.00  0.00    +0.000 OA
BRANCH  15  19
ATOM     16  C   UNL     1      -0.530  10.187  20.345  0.00  0.00    +0.000 C 
ATOM     17  C   UNL     1       0.846   9.546  20.363  0.00  0.00    +0.000 C 
ATOM     18  C   UNL     1       0.861   8.165  20.979  0.00  0.00    +0.000 C 
ATOM     19  C   UNL     1       2.024   7.500  20.267  0.00  0.00    +0.000 C 
ATOM     20  O   UNL     1       2.009   8.055  18.951  0.00  0.00    +0.000 OA
ATOM     21  C   UNL     1       1.360   9.253  18.980  0.00  0.00    +0.000 C 
ATOM     22  O   UNL     1       1.255   9.986  18.013  0.00  0.00    +0.000 OA
ENDBRANCH  15  19
ENDBRANCH   1  15
TORSDOF 2
ENDMDL
MODEL 6
REMARK VINA RESULT:      -7.6      5.938      8.228
REMARK  Name = 
REMARK  3 active torsions:
REMARK  status: ('A' for Active; 'I' for Inactive)
REMARK    1  A    between atoms: C_1  and  C_2
REMARK    2  A    between atoms: C_4  and  O_5
REMARK    3  A    between atoms: O_5  and  C_6
REMARK                            x       y       z     vdW  Elec       q    Type
REMARK                         _______ _______ _______ _____ _____    ______ ____
ROOT
ATOM      1  C   UNL     1       1.249   9.299  18.755  0.00  0.00    +0.000 C 
ATOM      2  C   UNL     1       1.655   8.204  19.418  0.00  0.00    +0.000 C 
ATOM      3  C   UNL     1       1.239   7.960  20.822  0.00  0.00    +0.000 C 
ATOM      4  O   UNL     1       0.483   8.648  21.498  0.00  0.00    +0.000 OA
ATOM      5  O   UNL     1       1.903   6.892  21.289  0.00  0.00    +0.000 OA
ATOM      6  C   UNL     1       2.638   6.274  20.254  0.00  0.00    +0.000 C 
ATOM      7  C   UNL     1       1.990   5.018  19.775  0.00  0.00    +0.000 A 
ATOM      8  C   UNL     1       1.103   4.168  20.401  0.00  0.00    +0.000 A 
ATOM      9  C   UNL     1       0.670   3.039  19.704  0.00  0.00    +0.000 A 
ATOM     10  C   UNL     1       1.223   2.720  18.453  0.00  0.00    +0.000 A 
ATOM     11  C   UNL     1       2.034   3.641  17.793  0.00  0.00    +0.000 A 
ATOM     12  C   UNL     1       2.262   4.849  18.426  0.00  0.00    +0.000 A 
ATOM     13  C   UNL     1       2.363   6.218  17.803  0.00  0.00    +0.000 C 
ATOM     14  C   UNL     1       2.652   7.164  19.006  0.00  0.00    +0.000 C 
ENDROOT
BRANCH   1  15
ATOM     15  O   UNL     1       0.287  10.153  19.232  0.00  0.00    +0.000 OA
BRANCH  15  19
ATOM     16  C   UNL     1      -4.172  11.452  18.323  0.00  0.00    +0.000 C 
ATOM     17  C   UNL     1      -2.743  11.477  17.812  0.00  0.00    +0.000 C 
ATOM     18  C   UNL     1      -1.707  11.446  18.913  0.00  0.00    +0.000 C 
ATOM     19  C   UNL     1      -0.529  10.772  18.236  0.00  0.00    +0.000 C 
ATOM     20  O   UNL     1      -1.116   9.838  17.330  0.00  0.00    +0.000 OA
ATOM     21  C   UNL     1      -2.387  10.235  17.042  0.00  0.00    +0.000 C 
ATOM     22  O   UNL     1      -3.105   9.666  16.239  0.00  0.00    +0.000 OA
ENDBRANCH  15  19
ENDBRANCH   1  15
TORSDOF 2
ENDMDL
MODEL 7
REMARK VINA RESULT:      -7.4      2.632      4.319
REMARK  Name = 
REMARK  3 active torsions:
REMARK  status: ('A' for Active; 'I' for Inactive)
REMARK    1  A    between atoms: C_1  and  C_2
REMARK    2  A    between atoms: C_4  and  O_5
REMARK    3  A    between atoms: O_5  and  C_6
REMARK                            x       y       z     vdW  Elec       q    Type
REMARK                         _______ _______ _______ _____ _____    ______ ____
ROOT
ATOM      1  C   UNL     1       4.849   6.379  16.638  0.00  0.00    +0.000 C 
ATOM      2  C   UNL     1       3.905   5.496  17.000  0.00  0.00    +0.000 C 
ATOM      3  C   UNL     1       3.875   4.127  16.427  0.00  0.00    +0.000 C 
ATOM      4  O   UNL     1       4.681   3.637  15.642  0.00  0.00    +0.000 OA
ATOM      5  O   UNL     1       2.755   3.512  16.833  0.00  0.00    +0.000 OA
ATOM      6  C   UNL     1       2.073   4.303  17.783  0.00  0.00    +0.000 C 
ATOM      7  C   UNL     1       2.246   3.788  19.173  0.00  0.00    +0.000 A 
ATOM      8  C   UNL     1       2.559   2.526  19.632  0.00  0.00    +0.000 A 
ATOM      9  C   UNL     1       2.638   2.329  21.012  0.00  0.00    +0.000 A 
ATOM     10  C   UNL     1       2.285   3.359  21.899  0.00  0.00    +0.000 A 
ATOM     11  C   UNL     1       2.076   4.651  21.422  0.00  0.00    +0.000 A 
ATOM     12  C   UNL     1       2.224   4.853  20.061  0.00  0.00    +0.000 A 
ATOM     13  C   UNL     1       2.819   6.047  19.360  0.00  0.00    +0.000 C 
ATOM     14  C   UNL     1       2.686   5.706  17.847  0.00  0.00    +0.000 C 
ENDROOT
BRANCH   1  15
ATOM     15  O   UNL     1       5.947   6.041  15.888  0.00  0.00    +0.000 OA
BRANCH  15  19
ATOM     16  C   UNL     1       7.866   5.737  20.204  0.00  0.00    +0.000 C 
ATOM     17  C   UNL     1       8.160   5.884  18.722  0.00  0.00    +0.000 C 
ATOM     18  C   UNL     1       7.110   5.256  17.833  0.00  0.00    +0.000 C 
ATOM     19  C   UNL     1       7.198   6.100  16.575  0.00  0.00    +0.000 C 
ATOM     20  O   UNL     1       7.523   7.411  17.039  0.00  0.00    +0.000 OA
ATOM     21  C   UNL     1       8.108   7.317  18.267  0.00  0.00    +0.000 C 
ATOM     22  O   UNL     1       8.554   8.273  18.875  0.00  0.00    +0.000 OA
ENDBRANCH  15  19
ENDBRANCH   1  15
TORSDOF 2
ENDMDL
MODEL 8
REMARK VINA RESULT:      -7.3      4.673      6.700
REMARK  Name = 
REMARK  3 active torsions:
REMARK  status: ('A' for Active; 'I' for Inactive)
REMARK    1  A    between atoms: C_1  and  C_2
REMARK    2  A    between atoms: C_4  and  O_5
REMARK    3  A    between atoms: O_5  and  C_6
REMARK                            x       y       z     vdW  Elec       q    Type
REMARK                         _______ _______ _______ _____ _____    ______ ____
ROOT
ATOM      1  C   UNL     1       5.434   3.733  15.815  0.00  0.00    +0.000 C 
ATOM      2  C   UNL     1       5.183   3.621  17.129  0.00  0.00    +0.000 C 
ATOM      3  C   UNL     1       5.897   4.463  18.121  0.00  0.00    +0.000 C 
ATOM      4  O   UNL     1       6.715   5.346  17.888  0.00  0.00    +0.000 OA
ATOM      5  O   UNL     1       5.577   4.043  19.354  0.00  0.00    +0.000 OA
ATOM      6  C   UNL     1       4.560   3.066  19.296  0.00  0.00    +0.000 C 
ATOM      7  C   UNL     1       3.229   3.612  19.693  0.00  0.00    +0.000 A 
ATOM      8  C   UNL     1       2.900   4.700  20.474  0.00  0.00    +0.000 A 
ATOM      9  C   UNL     1       1.547   4.967  20.694  0.00  0.00    +0.000 A 
ATOM     10  C   UNL     1       0.563   4.077  20.234  0.00  0.00    +0.000 A 
ATOM     11  C   UNL     1       0.905   3.047  19.362  0.00  0.00    +0.000 A 
ATOM     12  C   UNL     1       2.234   2.949  18.991  0.00  0.00    +0.000 A 
ATOM     13  C   UNL     1       2.796   2.575  17.643  0.00  0.00    +0.000 C 
ATOM     14  C   UNL     1       4.339   2.613  17.849  0.00  0.00    +0.000 C 
ENDROOT
BRANCH   1  15
ATOM     15  O   UNL     1       6.197   4.739  15.279  0.00  0.00    +0.000 OA
BRANCH  15  19
ATOM     16  C   UNL     1       4.263   2.807  11.415  0.00  0.00    +0.000 C 
ATOM     17  C   UNL     1       5.239   3.852  11.925  0.00  0.00    +0.000 C 
ATOM     18  C   UNL     1       4.893   4.383  13.298  0.00  0.00    +0.000 C 
ATOM     19  C   UNL     1       6.251   4.772  13.852  0.00  0.00    +0.000 C 
ATOM     20  O   UNL     1       7.155   3.813  13.302  0.00  0.00    +0.000 OA
ATOM     21  C   UNL     1       6.610   3.285  12.170  0.00  0.00    +0.000 C 
ATOM     22  O   UNL     1       7.190   2.491  11.450  0.00  0.00    +0.000 OA
ENDBRANCH  15  19
ENDBRANCH   1  15
TORSDOF 2
ENDMDL
MODEL 9
REMARK VINA RESULT:      -7.3      5.452      8.811
REMARK  Name = 
REMARK  3 active torsions:
REMARK  status: ('A' for Active; 'I' for Inactive)
REMARK    1  A    between atoms: C_1  and  C_2
REMARK    2  A    between atoms: C_4  and  O_5
REMARK    3  A    between atoms: O_5  and  C_6
REMARK                            x       y       z     vdW  Elec       q    Type
REMARK                         _______ _______ _______ _____ _____    ______ ____
ROOT
ATOM      1  C   UNL     1       2.259   7.751  18.965  0.00  0.00    +0.000 C 
ATOM      2  C   UNL     1       1.579   8.863  19.287  0.00  0.00    +0.000 C 
ATOM      3  C   UNL     1       0.962   9.023  20.628  0.00  0.00    +0.000 C 
ATOM      4  O   UNL     1       1.029   8.240  21.569  0.00  0.00    +0.000 OA
ATOM      5  O   UNL     1       0.219  10.139  20.632  0.00  0.00    +0.000 OA
ATOM      6  C   UNL     1       0.403  10.860  19.431  0.00  0.00    +0.000 C 
ATOM      7  C   UNL     1       1.277  12.055  19.619  0.00  0.00    +0.000 A 
ATOM      8  C   UNL     1       1.565  12.790  20.751  0.00  0.00    +0.000 A 
ATOM      9  C   UNL     1       2.417  13.888  20.622  0.00  0.00    +0.000 A 
ATOM     10  C   UNL     1       2.863  14.298  19.355  0.00  0.00    +0.000 A 
ATOM     11  C   UNL     1       2.650  13.486  18.244  0.00  0.00    +0.000 A 
ATOM     12  C   UNL     1       1.987  12.290  18.452  0.00  0.00    +0.000 A 
ATOM     13  C   UNL     1       2.249  10.958  17.798  0.00  0.00    +0.000 C 
ATOM     14  C   UNL     1       1.176  10.013  18.415  0.00  0.00    +0.000 C 
ENDROOT
BRANCH   1  15
ATOM     15  O   UNL     1       2.603   6.789  19.879  0.00  0.00    +0.000 OA
BRANCH  15  19
ATOM     16  C   UNL     1       1.497   2.544  21.657  0.00  0.00    +0.000 C 
ATOM     17  C   UNL     1       1.688   3.344  20.382  0.00  0.00    +0.000 C 
ATOM     18  C   UNL     1       1.406   4.821  20.546  0.00  0.00    +0.000 C 
ATOM     19  C   UNL     1       2.303   5.446  19.495  0.00  0.00    +0.000 C 
ATOM     20  O   UNL     1       3.455   4.603  19.452  0.00  0.00    +0.000 OA
ATOM     21  C   UNL     1       3.123   3.371  19.932  0.00  0.00    +0.000 C 
ATOM     22  O   UNL     1       3.891   2.425  19.948  0.00  0.00    +0.000 OA
ENDBRANCH  15  19
ENDBRANCH   1  15
TORSDOF 2
ENDMDL
