MODEL 1
REMARK VINA RESULT:      -8.0      0.000      0.000
REMARK  Name = 
REMARK  4 active torsions:
REMARK  status: ('A' for Active; 'I' for Inactive)
REMARK    1  A    between atoms: C_1  and  C_2
REMARK    2  A    between atoms: N_6  and  C_7
REMARK    3  A    between atoms: C_10  and  C_11
REMARK    4  A    between atoms: C_16  and  C_17
REMARK                            x       y       z     vdW  Elec       q    Type
REMARK                         _______ _______ _______ _____ _____    ______ ____
ROOT
ATOM      1  C   UNL     1       1.088   9.947  19.371  0.00  0.00    +0.000 A 
ATOM      2  C   UNL     1       0.965   9.391  20.660  0.00  0.00    +0.000 A 
ATOM      3  C   UNL     1       1.375   8.040  20.956  0.00  0.00    +0.000 A 
ATOM      4  C   UNL     1       1.958   7.225  19.972  0.00  0.00    +0.000 A 
ATOM      5  C   UNL     1       2.088   7.828  18.700  0.00  0.00    +0.000 A 
ATOM      6  C   UNL     1       1.644   9.130  18.391  0.00  0.00    +0.000 A 
ENDROOT
BRANCH   4   7
ATOM      7  C   UNL     1       2.288   5.740  20.059  0.00  0.00    +0.000 A 
ATOM      8  C   UNL     1       1.249   5.050  20.618  0.00  0.00    +0.000 A 
ATOM      9  C   UNL     1       1.169   3.594  20.681  0.00  0.00    +0.000 A 
ATOM     10  C   UNL     1       2.357   2.986  20.786  0.00  0.00    +0.000 A 
ATOM     11  N   UNL     1       3.421   3.564  20.078  0.00  0.00    +0.000 N 
ATOM     12  C   UNL     1       4.519   2.893  19.591  0.00  0.00    +0.000 A 
ATOM     13  C   UNL     1       4.690   1.411  19.711  0.00  0.00    +0.000 C 
ATOM     14  N   UNL     1       5.253   3.731  18.871  0.00  0.00    +0.000 NA
ATOM     15  C   UNL     1       4.584   4.945  18.884  0.00  0.00    +0.000 A 
ATOM     16 BR   UNL     1       5.229   6.391  17.869  0.00  0.00    +0.000 Br
ATOM     17  C   UNL     1       3.421   4.903  19.640  0.00  0.00    +0.000 A 
ENDBRANCH   4   7
BRANCH   1  23
ATOM     18  C   UNL     1      -1.817  11.292  18.849  0.00  0.00    +0.000 C 
ATOM     19  C   UNL     1      -0.470  11.893  18.672  0.00  0.00    +0.000 A 
ATOM     20  N   UNL     1      -0.306  13.129  18.245  0.00  0.00    +0.000 NA
ATOM     21  C   UNL     1       1.013  13.426  18.413  0.00  0.00    +0.000 A 
ATOM     22  C   UNL     1       1.673  12.350  18.976  0.00  0.00    +0.000 A 
ATOM     23  N   UNL     1       0.758  11.313  19.060  0.00  0.00    +0.000 N 
ENDBRANCH   1  23
TORSDOF 2
ENDMDL
MODEL 2
REMARK VINA RESULT:      -7.9      2.772      7.731
REMARK  Name = 
REMARK  4 active torsions:
REMARK  status: ('A' for Active; 'I' for Inactive)
REMARK    1  A    between atoms: C_1  and  C_2
REMARK    2  A    between atoms: N_6  and  C_7
REMARK    3  A    between atoms: C_10  and  C_11
REMARK    4  A    between atoms: C_16  and  C_17
REMARK                            x       y       z     vdW  Elec       q    Type
REMARK                         _______ _______ _______ _____ _____    ______ ____
ROOT
ATOM      1  C   UNL     1       2.600   6.693  18.478  0.00  0.00    +0.000 A 
ATOM      2  C   UNL     1       2.209   7.927  17.921  0.00  0.00    +0.000 A 
ATOM      3  C   UNL     1       1.599   8.967  18.712  0.00  0.00    +0.000 A 
ATOM      4  C   UNL     1       1.403   8.810  20.094  0.00  0.00    +0.000 A 
ATOM      5  C   UNL     1       1.833   7.570  20.619  0.00  0.00    +0.000 A 
ATOM      6  C   UNL     1       2.384   6.529  19.843  0.00  0.00    +0.000 A 
ENDROOT
BRANCH   4   7
ATOM      7  C   UNL     1       0.631   9.719  21.042  0.00  0.00    +0.000 A 
ATOM      8  C   UNL     1       0.207   9.021  22.137  0.00  0.00    +0.000 A 
ATOM      9  C   UNL     1      -0.404   9.631  23.315  0.00  0.00    +0.000 A 
ATOM     10  C   UNL     1      -1.115  10.733  23.052  0.00  0.00    +0.000 A 
ATOM     11  N   UNL     1      -0.615  11.577  22.050  0.00  0.00    +0.000 N 
ATOM     12  C   UNL     1      -0.814  12.936  21.971  0.00  0.00    +0.000 A 
ATOM     13  C   UNL     1      -1.563  13.712  23.009  0.00  0.00    +0.000 C 
ATOM     14  N   UNL     1      -0.095  13.422  20.969  0.00  0.00    +0.000 NA
ATOM     15  C   UNL     1       0.591  12.347  20.425  0.00  0.00    +0.000 A 
ATOM     16 BR   UNL     1       1.836  12.621  19.042  0.00  0.00    +0.000 Br
ATOM     17  C   UNL     1       0.295  11.150  21.063  0.00  0.00    +0.000 A 
ENDBRANCH   4   7
BRANCH   1  23
ATOM     18  C   UNL     1       1.647   3.661  17.828  0.00  0.00    +0.000 C 
ATOM     19  C   UNL     1       2.965   4.296  17.570  0.00  0.00    +0.000 A 
ATOM     20  N   UNL     1       3.961   3.637  17.013  0.00  0.00    +0.000 NA
ATOM     21  C   UNL     1       4.921   4.559  16.721  0.00  0.00    +0.000 A 
ATOM     22  C   UNL     1       4.495   5.821  17.092  0.00  0.00    +0.000 A 
ATOM     23  N   UNL     1       3.277   5.664  17.734  0.00  0.00    +0.000 N 
ENDBRANCH   1  23
TORSDOF 2
ENDMDL
MODEL 3
REMARK VINA RESULT:      -7.8      0.605      1.328
REMARK  Name = 
REMARK  4 active torsions:
REMARK  status: ('A' for Active; 'I' for Inactive)
REMARK    1  A    between atoms: C_1  and  C_2
REMARK    2  A    between atoms: N_6  and  C_7
REMARK    3  A    between atoms: C_10  and  C_11
REMARK    4  A    between atoms: C_16  and  C_17
REMARK                            x       y       z     vdW  Elec       q    Type
REMARK                         _______ _______ _______ _____ _____    ______ ____
ROOT
ATOM      1  C   UNL     1       0.966  10.183  19.142  0.00  0.00    +0.000 A 
ATOM      2  C   UNL     1       0.932   9.685  20.460  0.00  0.00    +0.000 A 
ATOM      3  C   UNL     1       1.383   8.356  20.790  0.00  0.00    +0.000 A 
ATOM      4  C   UNL     1       1.921   7.506  19.809  0.00  0.00    +0.000 A 
ATOM      5  C   UNL     1       1.963   8.052  18.506  0.00  0.00    +0.000 A 
ATOM      6  C   UNL     1       1.476   9.332  18.167  0.00  0.00    +0.000 A 
ENDROOT
BRANCH   4   7
ATOM      7  C   UNL     1       2.284   6.032  19.942  0.00  0.00    +0.000 A 
ATOM      8  C   UNL     1       1.318   5.362  20.639  0.00  0.00    +0.000 A 
ATOM      9  C   UNL     1       1.271   3.910  20.789  0.00  0.00    +0.000 A 
ATOM     10  C   UNL     1       2.473   3.324  20.805  0.00  0.00    +0.000 A 
ATOM     11  N   UNL     1       3.450   3.874  19.964  0.00  0.00    +0.000 N 
ATOM     12  C   UNL     1       4.506   3.191  19.405  0.00  0.00    +0.000 A 
ATOM     13  C   UNL     1       4.714   1.720  19.586  0.00  0.00    +0.000 C 
ATOM     14  N   UNL     1       5.149   3.995  18.570  0.00  0.00    +0.000 NA
ATOM     15  C   UNL     1       4.464   5.201  18.586  0.00  0.00    +0.000 A 
ATOM     16 BR   UNL     1       4.979   6.596  17.434  0.00  0.00    +0.000 Br
ATOM     17  C   UNL     1       3.384   5.187  19.457  0.00  0.00    +0.000 A 
ENDBRANCH   4   7
BRANCH   1  23
ATOM     18  C   UNL     1       2.846  12.678  18.268  0.00  0.00    +0.000 C 
ATOM     19  C   UNL     1       1.391  12.671  18.563  0.00  0.00    +0.000 A 
ATOM     20  N   UNL     1       0.659  13.766  18.502  0.00  0.00    +0.000 NA
ATOM     21  C   UNL     1      -0.640  13.371  18.605  0.00  0.00    +0.000 A 
ATOM     22  C   UNL     1      -0.710  11.994  18.715  0.00  0.00    +0.000 A 
ATOM     23  N   UNL     1       0.592  11.528  18.791  0.00  0.00    +0.000 N 
ENDBRANCH   1  23
TORSDOF 2
ENDMDL
MODEL 4
REMARK VINA RESULT:      -7.7      2.809      8.115
REMARK  Name = 
REMARK  4 active torsions:
REMARK  status: ('A' for Active; 'I' for Inactive)
REMARK    1  A    between atoms: C_1  and  C_2
REMARK    2  A    between atoms: N_6  and  C_7
REMARK    3  A    between atoms: C_10  and  C_11
REMARK    4  A    between atoms: C_16  and  C_17
REMARK                            x       y       z     vdW  Elec       q    Type
REMARK                         _______ _______ _______ _____ _____    ______ ____
ROOT
ATOM      1  C   UNL     1       2.668   7.227  18.532  0.00  0.00    +0.000 A 
ATOM      2  C   UNL     1       2.181   7.318  19.851  0.00  0.00    +0.000 A 
ATOM      3  C   UNL     1       1.400   8.442  20.305  0.00  0.00    +0.000 A 
ATOM      4  C   UNL     1       1.052   9.486  19.433  0.00  0.00    +0.000 A 
ATOM      5  C   UNL     1       1.537   9.345  18.112  0.00  0.00    +0.000 A 
ATOM      6  C   UNL     1       2.344   8.275  17.675  0.00  0.00    +0.000 A 
ENDROOT
BRANCH   4   7
ATOM      7  C   UNL     1       0.389  10.814  19.777  0.00  0.00    +0.000 A 
ATOM      8  C   UNL     1       0.156  11.541  18.643  0.00  0.00    +0.000 A 
ATOM      9  C   UNL     1      -0.624  12.775  18.604  0.00  0.00    +0.000 A 
ATOM     10  C   UNL     1      -0.547  13.504  19.723  0.00  0.00    +0.000 A 
ATOM     11  N   UNL     1      -0.486  12.794  20.931  0.00  0.00    +0.000 N 
ATOM     12  C   UNL     1      -0.934  13.245  22.151  0.00  0.00    +0.000 A 
ATOM     13  C   UNL     1      -1.614  14.566  22.334  0.00  0.00    +0.000 C 
ATOM     14  N   UNL     1      -0.830  12.266  23.039  0.00  0.00    +0.000 NA
ATOM     15  C   UNL     1      -0.333  11.169  22.353  0.00  0.00    +0.000 A 
ATOM     16 BR   UNL     1      -0.149   9.512  23.224  0.00  0.00    +0.000 Br
ATOM     17  C   UNL     1      -0.087  11.446  21.016  0.00  0.00    +0.000 A 
ENDBRANCH   4   7
BRANCH   1  23
ATOM     18  C   UNL     1       1.553   4.294  17.709  0.00  0.00    +0.000 C 
ATOM     19  C   UNL     1       2.960   4.757  17.812  0.00  0.00    +0.000 A 
ATOM     20  N   UNL     1       3.980   3.958  17.566  0.00  0.00    +0.000 NA
ATOM     21  C   UNL     1       5.091   4.746  17.531  0.00  0.00    +0.000 A 
ATOM     22  C   UNL     1       4.742   6.067  17.742  0.00  0.00    +0.000 A 
ATOM     23  N   UNL     1       3.386   6.088  18.026  0.00  0.00    +0.000 N 
ENDBRANCH   1  23
TORSDOF 2
ENDMDL
MODEL 5
REMARK VINA RESULT:      -7.7      0.375      1.059
REMARK  Name = 
REMARK  4 active torsions:
REMARK  status: ('A' for Active; 'I' for Inactive)
REMARK    1  A    between atoms: C_1  and  C_2
REMARK    2  A    between atoms: N_6  and  C_7
REMARK    3  A    between atoms: C_10  and  C_11
REMARK    4  A    between atoms: C_16  and  C_17
REMARK                            x       y       z     vdW  Elec       q    Type
REMARK                         _______ _______ _______ _____ _____    ______ ____
ROOT
ATOM      1  C   UNL     1       1.331  10.121  19.107  0.00  0.00    +0.000 A 
ATOM      2  C   UNL     1       1.856   9.360  18.044  0.00  0.00    +0.000 A 
ATOM      3  C   UNL     1       2.144   7.953  18.177  0.00  0.00    +0.000 A 
ATOM      4  C   UNL     1       1.872   7.264  19.370  0.00  0.00    +0.000 A 
ATOM      5  C   UNL     1       1.321   8.057  20.403  0.00  0.00    +0.000 A 
ATOM      6  C   UNL     1       1.085   9.443  20.297  0.00  0.00    +0.000 A 
ENDROOT
BRANCH   4   7
ATOM      7  C   UNL     1       2.264   5.839  19.741  0.00  0.00    +0.000 A 
ATOM      8  C   UNL     1       1.244   5.220  20.408  0.00  0.00    +0.000 A 
ATOM      9  C   UNL     1       1.226   3.800  20.746  0.00  0.00    +0.000 A 
ATOM     10  C   UNL     1       2.436   3.279  20.979  0.00  0.00    +0.000 A 
ATOM     11  N   UNL     1       3.489   3.761  20.187  0.00  0.00    +0.000 N 
ATOM     12  C   UNL     1       4.625   3.062  19.850  0.00  0.00    +0.000 A 
ATOM     13  C   UNL     1       4.857   1.639  20.250  0.00  0.00    +0.000 C 
ATOM     14  N   UNL     1       5.337   3.781  18.993  0.00  0.00    +0.000 NA
ATOM     15  C   UNL     1       4.616   4.944  18.768  0.00  0.00    +0.000 A 
ATOM     16 BR   UNL     1       5.219   6.200  17.504  0.00  0.00    +0.000 Br
ATOM     17  C   UNL     1       3.441   4.991  19.503  0.00  0.00    +0.000 A 
ENDBRANCH   4   7
BRANCH   1  23
ATOM     18  C   UNL     1      -1.607  11.445  18.737  0.00  0.00    +0.000 C 
ATOM     19  C   UNL     1      -0.277  12.102  18.666  0.00  0.00    +0.000 A 
ATOM     20  N   UNL     1      -0.146  13.390  18.419  0.00  0.00    +0.000 NA
ATOM     21  C   UNL     1       1.162  13.697  18.646  0.00  0.00    +0.000 A 
ATOM     22  C   UNL     1       1.848  12.571  19.062  0.00  0.00    +0.000 A 
ATOM     23  N   UNL     1       0.964  11.507  18.986  0.00  0.00    +0.000 N 
ENDBRANCH   1  23
TORSDOF 2
ENDMDL
MODEL 6
REMARK VINA RESULT:      -7.7      2.635      8.162
REMARK  Name = 
REMARK  4 active torsions:
REMARK  status: ('A' for Active; 'I' for Inactive)
REMARK    1  A    between atoms: C_1  and  C_2
REMARK    2  A    between atoms: N_6  and  C_7
REMARK    3  A    between atoms: C_10  and  C_11
REMARK    4  A    between atoms: C_16  and  C_17
REMARK                            x       y       z     vdW  Elec       q    Type
REMARK                         _______ _______ _______ _____ _____    ______ ____
ROOT
ATOM      1  C   UNL     1       2.534   7.100  18.618  0.00  0.00    +0.000 A 
ATOM      2  C   UNL     1       2.269   8.133  17.696  0.00  0.00    +0.000 A 
ATOM      3  C   UNL     1       1.545   9.324  18.065  0.00  0.00    +0.000 A 
ATOM      4  C   UNL     1       1.104   9.528  19.383  0.00  0.00    +0.000 A 
ATOM      5  C   UNL     1       1.412   8.482  20.282  0.00  0.00    +0.000 A 
ATOM      6  C   UNL     1       2.074   7.292  19.917  0.00  0.00    +0.000 A 
ENDROOT
BRANCH   4   7
ATOM      7  C   UNL     1       0.190  10.629  19.906  0.00  0.00    +0.000 A 
ATOM      8  C   UNL     1       0.815  11.342  20.891  0.00  0.00    +0.000 A 
ATOM      9  C   UNL     1       0.287  12.571  21.477  0.00  0.00    +0.000 A 
ATOM     10  C   UNL     1      -1.049  12.628  21.514  0.00  0.00    +0.000 A 
ATOM     11  N   UNL     1      -1.731  12.063  20.427  0.00  0.00    +0.000 N 
ATOM     12  C   UNL     1      -2.971  12.447  19.969  0.00  0.00    +0.000 A 
ATOM     13  C   UNL     1      -3.741  13.587  20.558  0.00  0.00    +0.000 C 
ATOM     14  N   UNL     1      -3.246  11.782  18.855  0.00  0.00    +0.000 NA
ATOM     15  C   UNL     1      -2.142  10.985  18.595  0.00  0.00    +0.000 A 
ATOM     16 BR   UNL     1      -2.065   9.960  17.019  0.00  0.00    +0.000 Br
ATOM     17  C   UNL     1      -1.154  11.114  19.561  0.00  0.00    +0.000 A 
ENDBRANCH   4   7
BRANCH   1  23
ATOM     18  C   UNL     1       1.543   4.124  17.788  0.00  0.00    +0.000 C 
ATOM     19  C   UNL     1       2.918   4.593  18.095  0.00  0.00    +0.000 A 
ATOM     20  N   UNL     1       3.957   3.782  18.066  0.00  0.00    +0.000 NA
ATOM     21  C   UNL     1       5.066   4.566  18.171  0.00  0.00    +0.000 A 
ATOM     22  C   UNL     1       4.699   5.897  18.248  0.00  0.00    +0.000 A 
ATOM     23  N   UNL     1       3.315   5.933  18.302  0.00  0.00    +0.000 N 
ENDBRANCH   1  23
TORSDOF 2
ENDMDL
MODEL 7
REMARK VINA RESULT:      -7.6      1.777      2.575
REMARK  Name = 
REMARK  4 active torsions:
REMARK  status: ('A' for Active; 'I' for Inactive)
REMARK    1  A    between atoms: C_1  and  C_2
REMARK    2  A    between atoms: N_6  and  C_7
REMARK    3  A    between atoms: C_10  and  C_11
REMARK    4  A    between atoms: C_16  and  C_17
REMARK                            x       y       z     vdW  Elec       q    Type
REMARK                         _______ _______ _______ _____ _____    ______ ____
ROOT
ATOM      1  C   UNL     1       1.108   9.765  19.045  0.00  0.00    +0.000 A 
ATOM      2  C   UNL     1       1.277   8.840  20.095  0.00  0.00    +0.000 A 
ATOM      3  C   UNL     1       2.002   7.606  19.920  0.00  0.00    +0.000 A 
ATOM      4  C   UNL     1       2.614   7.288  18.696  0.00  0.00    +0.000 A 
ATOM      5  C   UNL     1       2.444   8.254  17.677  0.00  0.00    +0.000 A 
ATOM      6  C   UNL     1       1.693   9.438  17.826  0.00  0.00    +0.000 A 
ENDROOT
BRANCH   4   7
ATOM      7  C   UNL     1       3.264   5.973  18.286  0.00  0.00    +0.000 A 
ATOM      8  C   UNL     1       4.385   6.205  17.539  0.00  0.00    +0.000 A 
ATOM      9  C   UNL     1       5.336   5.171  17.141  0.00  0.00    +0.000 A 
ATOM     10  C   UNL     1       4.784   3.967  16.951  0.00  0.00    +0.000 A 
ATOM     11  N   UNL     1       3.740   3.612  17.817  0.00  0.00    +0.000 N 
ATOM     12  C   UNL     1       3.402   2.330  18.185  0.00  0.00    +0.000 A 
ATOM     13  C   UNL     1       4.167   1.124  17.737  0.00  0.00    +0.000 C 
ATOM     14  N   UNL     1       2.452   2.381  19.109  0.00  0.00    +0.000 NA
ATOM     15  C   UNL     1       2.211   3.725  19.345  0.00  0.00    +0.000 A 
ATOM     16 BR   UNL     1       1.005   4.247  20.692  0.00  0.00    +0.000 Br
ATOM     17  C   UNL     1       2.990   4.553  18.550  0.00  0.00    +0.000 A 
ENDBRANCH   4   7
BRANCH   1  23
ATOM     18  C   UNL     1      -1.887  10.661  18.177  0.00  0.00    +0.000 C 
ATOM     19  C   UNL     1      -0.781  11.503  18.699  0.00  0.00    +0.000 A 
ATOM     20  N   UNL     1      -0.912  12.804  18.868  0.00  0.00    +0.000 NA
ATOM     21  C   UNL     1       0.187  13.218  19.558  0.00  0.00    +0.000 A 
ATOM     22  C   UNL     1       1.007  12.139  19.836  0.00  0.00    +0.000 A 
ATOM     23  N   UNL     1       0.454  11.037  19.205  0.00  0.00    +0.000 N 
ENDBRANCH   1  23
TORSDOF 2
ENDMDL
MODEL 8
REMARK VINA RESULT:      -7.5      2.754      7.828
REMARK  Name = 
REMARK  4 active torsions:
REMARK  status: ('A' for Active; 'I' for Inactive)
REMARK    1  A    between atoms: C_1  and  C_2
REMARK    2  A    between atoms: N_6  and  C_7
REMARK    3  A    between atoms: C_10  and  C_11
REMARK    4  A    between atoms: C_16  and  C_17
REMARK                            x       y       z     vdW  Elec       q    Type
REMARK                         _______ _______ _______ _____ _____    ______ ____
ROOT
ATOM      1  C   UNL     1       2.572   6.706  18.625  0.00  0.00    +0.000 A 
ATOM      2  C   UNL     1       2.221   7.926  18.012  0.00  0.00    +0.000 A 
ATOM      3  C   UNL     1       1.608   9.005  18.747  0.00  0.00    +0.000 A 
ATOM      4  C   UNL     1       1.371   8.903  20.127  0.00  0.00    +0.000 A 
ATOM      5  C   UNL     1       1.762   7.675  20.709  0.00  0.00    +0.000 A 
ATOM      6  C   UNL     1       2.315   6.597  19.988  0.00  0.00    +0.000 A 
ENDROOT
BRANCH   4   7
ATOM      7  C   UNL     1       0.590   9.861  21.018  0.00  0.00    +0.000 A 
ATOM      8  C   UNL     1       0.102   9.205  22.114  0.00  0.00    +0.000 A 
ATOM      9  C   UNL     1      -0.536   9.866  23.250  0.00  0.00    +0.000 A 
ATOM     10  C   UNL     1      -1.202  10.980  22.929  0.00  0.00    +0.000 A 
ATOM     11  N   UNL     1      -0.639  11.781  21.925  0.00  0.00    +0.000 N 
ATOM     12  C   UNL     1      -0.793  13.143  21.802  0.00  0.00    +0.000 A 
ATOM     13  C   UNL     1      -1.559  13.969  22.788  0.00  0.00    +0.000 C 
ATOM     14  N   UNL     1      -0.021  13.579  20.817  0.00  0.00    +0.000 NA
ATOM     15  C   UNL     1       0.653  12.469  20.330  0.00  0.00    +0.000 A 
ATOM     16 BR   UNL     1       1.959  12.668  18.991  0.00  0.00    +0.000 Br
ATOM     17  C   UNL     1       0.297  11.301  20.987  0.00  0.00    +0.000 A 
ENDBRANCH   4   7
BRANCH   1  23
ATOM     18  C   UNL     1       5.458   6.721  17.142  0.00  0.00    +0.000 C 
ATOM     19  C   UNL     1       4.424   5.655  17.151  0.00  0.00    +0.000 A 
ATOM     20  N   UNL     1       4.584   4.519  16.501  0.00  0.00    +0.000 NA
ATOM     21  C   UNL     1       3.573   3.698  16.899  0.00  0.00    +0.000 A 
ATOM     22  C   UNL     1       2.781   4.339  17.834  0.00  0.00    +0.000 A 
ATOM     23  N   UNL     1       3.251   5.638  17.939  0.00  0.00    +0.000 N 
ENDBRANCH   1  23
TORSDOF 2
ENDMDL
MODEL 9
REMARK VINA RESULT:      -7.4      2.858      8.176
REMARK  Name = 
REMARK  4 active torsions:
REMARK  status: ('A' for Active; 'I' for Inactive)
REMARK    1  A    between atoms: C_1  and  C_2
REMARK    2  A    between atoms: N_6  and  C_7
REMARK    3  A    between atoms: C_10  and  C_11
REMARK    4  A    between atoms: C_16  and  C_17
REMARK                            x       y       z     vdW  Elec       q    Type
REMARK                         _______ _______ _______ _____ _____    ______ ____
ROOT
ATOM      1  C   UNL     1       2.552   7.087  18.516  0.00  0.00    +0.000 A 
ATOM      2  C   UNL     1       2.185   7.240  19.868  0.00  0.00    +0.000 A 
ATOM      3  C   UNL     1       1.493   8.411  20.347  0.00  0.00    +0.000 A 
ATOM      4  C   UNL     1       1.114   9.441  19.471  0.00  0.00    +0.000 A 
ATOM      5  C   UNL     1       1.476   9.238  18.120  0.00  0.00    +0.000 A 
ATOM      6  C   UNL     1       2.198   8.120  17.653  0.00  0.00    +0.000 A 
ENDROOT
BRANCH   4   7
ATOM      7  C   UNL     1       0.537  10.807  19.823  0.00  0.00    +0.000 A 
ATOM      8  C   UNL     1       0.437  11.587  18.705  0.00  0.00    +0.000 A 
ATOM      9  C   UNL     1      -0.238  12.882  18.665  0.00  0.00    +0.000 A 
ATOM     10  C   UNL     1      -0.177  13.566  19.813  0.00  0.00    +0.000 A 
ATOM     11  N   UNL     1      -0.251  12.814  20.995  0.00  0.00    +0.000 N 
ATOM     12  C   UNL     1      -0.739  13.260  22.201  0.00  0.00    +0.000 A 
ATOM     13  C   UNL     1      -1.322  14.625  22.391  0.00  0.00    +0.000 C 
ATOM     14  N   UNL     1      -0.772  12.247  23.056  0.00  0.00    +0.000 NA
ATOM     15  C   UNL     1      -0.320  11.136  22.361  0.00  0.00    +0.000 A 
ATOM     16 BR   UNL     1      -0.325   9.442  23.179  0.00  0.00    +0.000 Br
ATOM     17  C   UNL     1       0.033  11.435  21.053  0.00  0.00    +0.000 A 
ENDBRANCH   4   7
BRANCH   1  23
ATOM     18  C   UNL     1       5.490   6.728  17.187  0.00  0.00    +0.000 C 
ATOM     19  C   UNL     1       4.380   5.744  17.267  0.00  0.00    +0.000 A 
ATOM     20  N   UNL     1       4.483   4.532  16.760  0.00  0.00    +0.000 NA
ATOM     21  C   UNL     1       3.398   3.834  17.199  0.00  0.00    +0.000 A 
ATOM     22  C   UNL     1       2.618   4.635  18.014  0.00  0.00    +0.000 A 
ATOM     23  N   UNL     1       3.177   5.902  17.992  0.00  0.00    +0.000 N 
ENDBRANCH   1  23
TORSDOF 2
ENDMDL
