MODEL 1
REMARK VINA RESULT:      -5.6      0.000      0.000
REMARK  Name = 
REMARK  10 active torsions:
REMARK  status: ('A' for Active; 'I' for Inactive)
REMARK    1  A    between atoms: C_2  and  O_3
REMARK    2  A    between atoms: C_2  and  C_4
REMARK    3  A    between atoms: C_4  and  C_5
REMARK    4  A    between atoms: C_5  and  C_6
REMARK    5  A    between atoms: N_8  and  CA_9
REMARK    6  A    between atoms: CA_9  and  CB_10
REMARK    7  A    between atoms: CA_9  and  C_14
REMARK    8  A    between atoms: CB_10  and  CG_11
REMARK    9  A    between atoms: CG_11  and  OD2_13
REMARK   10  A    between atoms: C_14  and  OXT_16
REMARK                            x       y       z     vdW  Elec       q    Type
REMARK                         _______ _______ _______ _____ _____    ______ ____
ROOT
ATOM      1  C   UNK A   0       6.641   4.780  18.755  0.00  0.00    +0.000 C 
ATOM      2  O   UNK A   0       6.832   5.370  19.813  0.00  0.00    +0.000 OA
ATOM      3  N   ASP A   1       5.588   3.934  18.541  0.00  0.00    +0.000 N 
ATOM      4  H   ASP A   1       5.656   3.268  17.759  0.00  0.00    +0.000 HD
ENDROOT
BRANCH   1   5
ATOM      5  C   UNK A   0       7.589   4.910  17.580  0.00  0.00    +0.000 C 
BRANCH   5   6
ATOM      6  C   UNK A   0       6.979   4.282  16.335  0.00  0.00    +0.000 C 
BRANCH   6   8
ATOM      7  O   UNK A   0       7.652   5.440  14.325  0.00  0.00    +0.000 OA
ATOM      8  C   UNK A   0       6.840   5.293  15.225  0.00  0.00    +0.000 C 
BRANCH   8   9
ATOM      9  O   UNK A   0       5.710   6.025  15.311  0.00  0.00    +0.000 OA
ATOM     10  H   UNK A   0       5.037   5.662  15.918  0.00  0.00    +0.000 HD
ENDBRANCH   8   9
ENDBRANCH   6   8
ENDBRANCH   5   6
ENDBRANCH   1   5
BRANCH   3  11
ATOM     11  CA  ASP A   1       4.581   3.634  19.563  0.00  0.00    +0.000 C 
BRANCH  11  12
ATOM     12  C   ASP A   1       4.384   2.109  19.592  0.00  0.00    +0.000 C 
ATOM     13  O   ASP A   1       3.479   1.537  18.996  0.00  0.00    +0.000 OA
BRANCH  12  14
ATOM     14  OXT ASP A   1       5.262   1.440  20.372  0.00  0.00    +0.000 OA
ATOM     15  HXT ASP A   1       5.199   1.642  21.337  0.00  0.00    +0.000 HD
ENDBRANCH  12  14
ENDBRANCH  11  12
BRANCH  11  16
ATOM     16  CB  ASP A   1       3.251   4.315  19.236  0.00  0.00    +0.000 C 
BRANCH  16  17
ATOM     17  CG  ASP A   1       3.225   4.713  17.791  0.00  0.00    +0.000 C 
ATOM     18  OD1 ASP A   1       3.543   5.829  17.395  0.00  0.00    +0.000 OA
BRANCH  17  19
ATOM     19  OD2 ASP A   1       2.797   3.738  16.967  0.00  0.00    +0.000 OA
ATOM     20  HD2 ASP A   1       3.509   3.248  16.509  0.00  0.00    +0.000 HD
ENDBRANCH  17  19
ENDBRANCH  16  17
ENDBRANCH  11  16
ENDBRANCH   3  11
TORSDOF 10
ENDMDL
MODEL 2
REMARK VINA RESULT:      -5.5      1.857      5.503
REMARK  Name = 
REMARK  10 active torsions:
REMARK  status: ('A' for Active; 'I' for Inactive)
REMARK    1  A    between atoms: C_2  and  O_3
REMARK    2  A    between atoms: C_2  and  C_4
REMARK    3  A    between atoms: C_4  and  C_5
REMARK    4  A    between atoms: C_5  and  C_6
REMARK    5  A    between atoms: N_8  and  CA_9
REMARK    6  A    between atoms: CA_9  and  CB_10
REMARK    7  A    between atoms: CA_9  and  C_14
REMARK    8  A    between atoms: CB_10  and  CG_11
REMARK    9  A    between atoms: CG_11  and  OD2_13
REMARK   10  A    between atoms: C_14  and  OXT_16
REMARK                            x       y       z     vdW  Elec       q    Type
REMARK                         _______ _______ _______ _____ _____    ______ ____
ROOT
ATOM      1  C   UNK A   0       4.169   3.985  17.572  0.00  0.00    +0.000 C 
ATOM      2  O   UNK A   0       3.335   4.867  17.401  0.00  0.00    +0.000 OA
ATOM      3  N   ASP A   1       5.462   4.071  17.133  0.00  0.00    +0.000 N 
ATOM      4  H   ASP A   1       6.002   3.199  17.053  0.00  0.00    +0.000 HD
ENDROOT
BRANCH   1   5
ATOM      5  C   UNK A   0       3.829   2.682  18.267  0.00  0.00    +0.000 C 
BRANCH   5   6
ATOM      6  C   UNK A   0       2.513   2.128  17.742  0.00  0.00    +0.000 C 
BRANCH   6   8
ATOM      7  O   UNK A   0       0.234   2.350  18.513  0.00  0.00    +0.000 OA
ATOM      8  C   UNK A   0       1.421   2.239  18.776  0.00  0.00    +0.000 C 
BRANCH   8   9
ATOM      9  O   UNK A   0       1.883   2.191  20.043  0.00  0.00    +0.000 OA
ATOM     10  H   UNK A   0       2.688   1.652  20.160  0.00  0.00    +0.000 HD
ENDBRANCH   8   9
ENDBRANCH   6   8
ENDBRANCH   5   6
ENDBRANCH   1   5
BRANCH   3  11
ATOM     11  CA  ASP A   1       5.982   5.228  16.399  0.00  0.00    +0.000 C 
BRANCH  11  12
ATOM     12  C   ASP A   1       6.623   4.707  15.101  0.00  0.00    +0.000 C 
ATOM     13  O   ASP A   1       6.156   3.785  14.443  0.00  0.00    +0.000 OA
BRANCH  12  14
ATOM     14  OXT ASP A   1       7.781   5.315  14.759  0.00  0.00    +0.000 OA
ATOM     15  HXT ASP A   1       8.480   4.710  14.412  0.00  0.00    +0.000 HD
ENDBRANCH  12  14
ENDBRANCH  11  12
BRANCH  11  16
ATOM     16  CB  ASP A   1       7.033   5.971  17.224  0.00  0.00    +0.000 C 
BRANCH  16  17
ATOM     17  CG  ASP A   1       7.626   5.047  18.246  0.00  0.00    +0.000 C 
ATOM     18  OD1 ASP A   1       7.477   5.195  19.453  0.00  0.00    +0.000 OA
BRANCH  17  19
ATOM     19  OD2 ASP A   1       8.356   4.049  17.714  0.00  0.00    +0.000 OA
ATOM     20  HD2 ASP A   1       8.208   3.897  16.759  0.00  0.00    +0.000 HD
ENDBRANCH  17  19
ENDBRANCH  16  17
ENDBRANCH  11  16
ENDBRANCH   3  11
TORSDOF 10
ENDMDL
MODEL 3
REMARK VINA RESULT:      -5.5      1.649      5.047
REMARK  Name = 
REMARK  10 active torsions:
REMARK  status: ('A' for Active; 'I' for Inactive)
REMARK    1  A    between atoms: C_2  and  O_3
REMARK    2  A    between atoms: C_2  and  C_4
REMARK    3  A    between atoms: C_4  and  C_5
REMARK    4  A    between atoms: C_5  and  C_6
REMARK    5  A    between atoms: N_8  and  CA_9
REMARK    6  A    between atoms: CA_9  and  CB_10
REMARK    7  A    between atoms: CA_9  and  C_14
REMARK    8  A    between atoms: CB_10  and  CG_11
REMARK    9  A    between atoms: CG_11  and  OD2_13
REMARK   10  A    between atoms: C_14  and  OXT_16
REMARK                            x       y       z     vdW  Elec       q    Type
REMARK                         _______ _______ _______ _____ _____    ______ ____
ROOT
ATOM      1  C   UNK A   0       3.892   3.183  17.401  0.00  0.00    +0.000 C 
ATOM      2  O   UNK A   0       3.024   3.773  16.767  0.00  0.00    +0.000 OA
ATOM      3  N   ASP A   1       5.185   3.619  17.498  0.00  0.00    +0.000 N 
ATOM      4  H   ASP A   1       5.901   2.940  17.788  0.00  0.00    +0.000 HD
ENDROOT
BRANCH   1   5
ATOM      5  C   UNK A   0       3.615   1.878  18.120  0.00  0.00    +0.000 C 
BRANCH   5   6
ATOM      6  C   UNK A   0       2.833   2.134  19.400  0.00  0.00    +0.000 C 
BRANCH   6   8
ATOM      7  O   UNK A   0       4.971   2.180  20.524  0.00  0.00    +0.000 OA
ATOM      8  C   UNK A   0       3.753   2.247  20.589  0.00  0.00    +0.000 C 
BRANCH   8   9
ATOM      9  O   UNK A   0       3.098   2.445  21.751  0.00  0.00    +0.000 OA
ATOM     10  H   UNK A   0       3.353   1.834  22.469  0.00  0.00    +0.000 HD
ENDBRANCH   8   9
ENDBRANCH   6   8
ENDBRANCH   5   6
ENDBRANCH   1   5
BRANCH   3  11
ATOM     11  CA  ASP A   1       5.671   4.835  16.840  0.00  0.00    +0.000 C 
BRANCH  11  12
ATOM     12  C   ASP A   1       7.109   4.567  16.364  0.00  0.00    +0.000 C 
ATOM     13  O   ASP A   1       7.474   4.723  15.206  0.00  0.00    +0.000 OA
BRANCH  12  14
ATOM     14  OXT ASP A   1       7.941   4.093  17.318  0.00  0.00    +0.000 OA
ATOM     15  HXT ASP A   1       8.894   4.315  17.186  0.00  0.00    +0.000 HD
ENDBRANCH  12  14
ENDBRANCH  11  12
BRANCH  11  16
ATOM     16  CB  ASP A   1       5.667   6.019  17.808  0.00  0.00    +0.000 C 
BRANCH  16  17
ATOM     17  CG  ASP A   1       5.607   5.521  19.221  0.00  0.00    +0.000 C 
ATOM     18  OD1 ASP A   1       6.577   5.067  19.816  0.00  0.00    +0.000 OA
BRANCH  17  19
ATOM     19  OD2 ASP A   1       4.381   5.600  19.772  0.00  0.00    +0.000 OA
ATOM     20  HD2 ASP A   1       4.227   6.396  20.318  0.00  0.00    +0.000 HD
ENDBRANCH  17  19
ENDBRANCH  16  17
ENDBRANCH  11  16
ENDBRANCH   3  11
TORSDOF 10
ENDMDL
MODEL 4
REMARK VINA RESULT:      -5.5      1.832      5.152
REMARK  Name = 
REMARK  10 active torsions:
REMARK  status: ('A' for Active; 'I' for Inactive)
REMARK    1  A    between atoms: C_2  and  O_3
REMARK    2  A    between atoms: C_2  and  C_4
REMARK    3  A    between atoms: C_4  and  C_5
REMARK    4  A    between atoms: C_5  and  C_6
REMARK    5  A    between atoms: N_8  and  CA_9
REMARK    6  A    between atoms: CA_9  and  CB_10
REMARK    7  A    between atoms: CA_9  and  C_14
REMARK    8  A    between atoms: CB_10  and  CG_11
REMARK    9  A    between atoms: CG_11  and  OD2_13
REMARK   10  A    between atoms: C_14  and  OXT_16
REMARK                            x       y       z     vdW  Elec       q    Type
REMARK                         _______ _______ _______ _____ _____    ______ ____
ROOT
ATOM      1  C   UNK A   0       3.306   2.984  17.395  0.00  0.00    +0.000 C 
ATOM      2  O   UNK A   0       2.417   3.518  16.741  0.00  0.00    +0.000 OA
ATOM      3  N   ASP A   1       4.604   3.416  17.399  0.00  0.00    +0.000 N 
ATOM      4  H   ASP A   1       5.328   2.761  17.725  0.00  0.00    +0.000 HD
ENDROOT
BRANCH   1   5
ATOM      5  C   UNK A   0       3.052   1.757  18.247  0.00  0.00    +0.000 C 
BRANCH   5   6
ATOM      6  C   UNK A   0       2.445   2.156  19.584  0.00  0.00    +0.000 C 
BRANCH   6   8
ATOM      7  O   UNK A   0       4.709   2.292  20.417  0.00  0.00    +0.000 OA
ATOM      8  C   UNK A   0       3.509   2.313  20.641  0.00  0.00    +0.000 C 
BRANCH   8   9
ATOM      9  O   UNK A   0       3.005   2.493  21.879  0.00  0.00    +0.000 OA
ATOM     10  H   UNK A   0       2.276   1.886  22.113  0.00  0.00    +0.000 HD
ENDBRANCH   8   9
ENDBRANCH   6   8
ENDBRANCH   5   6
ENDBRANCH   1   5
BRANCH   3  11
ATOM     11  CA  ASP A   1       5.070   4.558  16.608  0.00  0.00    +0.000 C 
BRANCH  11  12
ATOM     12  C   ASP A   1       6.406   4.163  15.957  0.00  0.00    +0.000 C 
ATOM     13  O   ASP A   1       7.497   4.491  16.409  0.00  0.00    +0.000 OA
BRANCH  12  14
ATOM     14  OXT ASP A   1       6.290   3.459  14.809  0.00  0.00    +0.000 OA
ATOM     15  HXT ASP A   1       7.005   3.623  14.147  0.00  0.00    +0.000 HD
ENDBRANCH  12  14
ENDBRANCH  11  12
BRANCH  11  16
ATOM     16  CB  ASP A   1       5.278   5.787  17.494  0.00  0.00    +0.000 C 
BRANCH  16  17
ATOM     17  CG  ASP A   1       5.214   5.391  18.939  0.00  0.00    +0.000 C 
ATOM     18  OD1 ASP A   1       4.244   5.610  19.654  0.00  0.00    +0.000 OA
BRANCH  17  19
ATOM     19  OD2 ASP A   1       6.333   4.788  19.385  0.00  0.00    +0.000 OA
ATOM     20  HD2 ASP A   1       7.128   5.357  19.397  0.00  0.00    +0.000 HD
ENDBRANCH  17  19
ENDBRANCH  16  17
ENDBRANCH  11  16
ENDBRANCH   3  11
TORSDOF 10
ENDMDL
MODEL 5
REMARK VINA RESULT:      -5.5      1.679      2.386
REMARK  Name = 
REMARK  10 active torsions:
REMARK  status: ('A' for Active; 'I' for Inactive)
REMARK    1  A    between atoms: C_2  and  O_3
REMARK    2  A    between atoms: C_2  and  C_4
REMARK    3  A    between atoms: C_4  and  C_5
REMARK    4  A    between atoms: C_5  and  C_6
REMARK    5  A    between atoms: N_8  and  CA_9
REMARK    6  A    between atoms: CA_9  and  CB_10
REMARK    7  A    between atoms: CA_9  and  C_14
REMARK    8  A    between atoms: CB_10  and  CG_11
REMARK    9  A    between atoms: CG_11  and  OD2_13
REMARK   10  A    between atoms: C_14  and  OXT_16
REMARK                            x       y       z     vdW  Elec       q    Type
REMARK                         _______ _______ _______ _____ _____    ______ ____
ROOT
ATOM      1  C   UNK A   0       4.094   5.338  18.615  0.00  0.00    +0.000 C 
ATOM      2  O   UNK A   0       3.729   6.081  19.519  0.00  0.00    +0.000 OA
ATOM      3  N   ASP A   1       4.018   3.973  18.680  0.00  0.00    +0.000 N 
ATOM      4  H   ASP A   1       4.599   3.427  18.029  0.00  0.00    +0.000 HD
ENDROOT
BRANCH   1   5
ATOM      5  C   UNK A   0       4.702   5.870  17.333  0.00  0.00    +0.000 C 
BRANCH   5   6
ATOM      6  C   UNK A   0       6.176   6.189  17.539  0.00  0.00    +0.000 C 
BRANCH   6   8
ATOM      7  O   UNK A   0       7.576   4.848  16.098  0.00  0.00    +0.000 OA
ATOM      8  C   UNK A   0       7.044   5.008  17.185  0.00  0.00    +0.000 C 
BRANCH   8   9
ATOM      9  O   UNK A   0       7.194   4.135  18.203  0.00  0.00    +0.000 OA
ATOM     10  H   UNK A   0       6.656   4.337  18.992  0.00  0.00    +0.000 HD
ENDBRANCH   8   9
ENDBRANCH   6   8
ENDBRANCH   5   6
ENDBRANCH   1   5
BRANCH   3  11
ATOM     11  CA  ASP A   1       3.503   3.256  19.850  0.00  0.00    +0.000 C 
BRANCH  11  12
ATOM     12  C   ASP A   1       4.410   2.037  20.088  0.00  0.00    +0.000 C 
ATOM     13  O   ASP A   1       5.013   1.842  21.136  0.00  0.00    +0.000 OA
BRANCH  12  14
ATOM     14  OXT ASP A   1       4.536   1.209  19.026  0.00  0.00    +0.000 OA
ATOM     15  HXT ASP A   1       5.437   0.826  18.902  0.00  0.00    +0.000 HD
ENDBRANCH  12  14
ENDBRANCH  11  12
BRANCH  11  16
ATOM     16  CB  ASP A   1       2.067   2.785  19.613  0.00  0.00    +0.000 C 
BRANCH  16  17
ATOM     17  CG  ASP A   1       1.736   2.874  18.153  0.00  0.00    +0.000 C 
ATOM     18  OD1 ASP A   1       1.138   3.821  17.656  0.00  0.00    +0.000 OA
BRANCH  17  19
ATOM     19  OD2 ASP A   1       2.140   1.806  17.440  0.00  0.00    +0.000 OA
ATOM     20  HD2 ASP A   1       2.575   1.104  17.963  0.00  0.00    +0.000 HD
ENDBRANCH  17  19
ENDBRANCH  16  17
ENDBRANCH  11  16
ENDBRANCH   3  11
TORSDOF 10
ENDMDL
MODEL 6
REMARK VINA RESULT:      -5.5      2.217      2.933
REMARK  Name = 
REMARK  10 active torsions:
REMARK  status: ('A' for Active; 'I' for Inactive)
REMARK    1  A    between atoms: C_2  and  O_3
REMARK    2  A    between atoms: C_2  and  C_4
REMARK    3  A    between atoms: C_4  and  C_5
REMARK    4  A    between atoms: C_5  and  C_6
REMARK    5  A    between atoms: N_8  and  CA_9
REMARK    6  A    between atoms: CA_9  and  CB_10
REMARK    7  A    between atoms: CA_9  and  C_14
REMARK    8  A    between atoms: CB_10  and  CG_11
REMARK    9  A    between atoms: CG_11  and  OD2_13
REMARK   10  A    between atoms: C_14  and  OXT_16
REMARK                            x       y       z     vdW  Elec       q    Type
REMARK                         _______ _______ _______ _____ _____    ______ ____
ROOT
ATOM      1  C   UNK A   0       4.161   5.286  19.269  0.00  0.00    +0.000 C 
ATOM      2  O   UNK A   0       3.685   6.412  19.172  0.00  0.00    +0.000 OA
ATOM      3  N   ASP A   1       3.437   4.189  19.650  0.00  0.00    +0.000 N 
ATOM      4  H   ASP A   1       3.953   3.365  19.985  0.00  0.00    +0.000 HD
ENDROOT
BRANCH   1   5
ATOM      5  C   UNK A   0       5.626   5.007  19.000  0.00  0.00    +0.000 C 
BRANCH   5   6
ATOM      6  C   UNK A   0       5.824   4.550  17.562  0.00  0.00    +0.000 C 
BRANCH   6   8
ATOM      7  O   UNK A   0       7.394   5.967  16.396  0.00  0.00    +0.000 OA
ATOM      8  C   UNK A   0       7.180   4.954  17.043  0.00  0.00    +0.000 C 
BRANCH   8   9
ATOM      9  O   UNK A   0       8.157   4.085  17.374  0.00  0.00    +0.000 OA
ATOM     10  H   UNK A   0       8.251   3.928  18.333  0.00  0.00    +0.000 HD
ENDBRANCH   8   9
ENDBRANCH   6   8
ENDBRANCH   5   6
ENDBRANCH   1   5
BRANCH   3  11
ATOM     11  CA  ASP A   1       2.014   4.251  19.998  0.00  0.00    +0.000 C 
BRANCH  11  12
ATOM     12  C   ASP A   1       1.806   3.405  21.266  0.00  0.00    +0.000 C 
ATOM     13  O   ASP A   1       2.583   3.411  22.213  0.00  0.00    +0.000 OA
BRANCH  12  14
ATOM     14  OXT ASP A   1       0.716   2.607  21.241  0.00  0.00    +0.000 OA
ATOM     15  HXT ASP A   1       0.905   1.650  21.089  0.00  0.00    +0.000 HD
ENDBRANCH  12  14
ENDBRANCH  11  12
BRANCH  11  16
ATOM     16  CB  ASP A   1       1.151   3.694  18.866  0.00  0.00    +0.000 C 
BRANCH  16  17
ATOM     17  CG  ASP A   1       1.966   2.773  18.009  0.00  0.00    +0.000 C 
ATOM     18  OD1 ASP A   1       2.431   3.100  16.923  0.00  0.00    +0.000 OA
BRANCH  17  19
ATOM     19  OD2 ASP A   1       2.124   1.543  18.533  0.00  0.00    +0.000 OA
ATOM     20  HD2 ASP A   1       1.491   0.874  18.205  0.00  0.00    +0.000 HD
ENDBRANCH  17  19
ENDBRANCH  16  17
ENDBRANCH  11  16
ENDBRANCH   3  11
TORSDOF 10
ENDMDL
MODEL 7
REMARK VINA RESULT:      -5.5      2.145      5.323
REMARK  Name = 
REMARK  10 active torsions:
REMARK  status: ('A' for Active; 'I' for Inactive)
REMARK    1  A    between atoms: C_2  and  O_3
REMARK    2  A    between atoms: C_2  and  C_4
REMARK    3  A    between atoms: C_4  and  C_5
REMARK    4  A    between atoms: C_5  and  C_6
REMARK    5  A    between atoms: N_8  and  CA_9
REMARK    6  A    between atoms: CA_9  and  CB_10
REMARK    7  A    between atoms: CA_9  and  C_14
REMARK    8  A    between atoms: CB_10  and  CG_11
REMARK    9  A    between atoms: CG_11  and  OD2_13
REMARK   10  A    between atoms: C_14  and  OXT_16
REMARK                            x       y       z     vdW  Elec       q    Type
REMARK                         _______ _______ _______ _____ _____    ______ ____
ROOT
ATOM      1  C   UNK A   0       3.717   2.473  19.256  0.00  0.00    +0.000 C 
ATOM      2  O   UNK A   0       4.528   1.858  19.941  0.00  0.00    +0.000 OA
ATOM      3  N   ASP A   1       4.057   3.510  18.431  0.00  0.00    +0.000 N 
ATOM      4  H   ASP A   1       3.309   4.148  18.127  0.00  0.00    +0.000 HD
ENDROOT
BRANCH   1   5
ATOM      5  C   UNK A   0       2.236   2.156  19.285  0.00  0.00    +0.000 C 
BRANCH   5   6
ATOM      6  C   UNK A   0       1.453   3.334  19.844  0.00  0.00    +0.000 C 
BRANCH   6   8
ATOM      7  O   UNK A   0       2.017   3.107  22.182  0.00  0.00    +0.000 OA
ATOM      8  C   UNK A   0       2.016   3.787  21.168  0.00  0.00    +0.000 C 
BRANCH   8   9
ATOM      9  O   UNK A   0       2.541   5.028  21.125  0.00  0.00    +0.000 OA
ATOM     10  H   UNK A   0       1.892   5.737  20.954  0.00  0.00    +0.000 HD
ENDBRANCH   8   9
ENDBRANCH   6   8
ENDBRANCH   5   6
ENDBRANCH   1   5
BRANCH   3  11
ATOM     11  CA  ASP A   1       5.430   4.005  18.292  0.00  0.00    +0.000 C 
BRANCH  11  12
ATOM     12  C   ASP A   1       5.588   5.215  19.227  0.00  0.00    +0.000 C 
ATOM     13  O   ASP A   1       4.704   6.043  19.411  0.00  0.00    +0.000 OA
BRANCH  12  14
ATOM     14  OXT ASP A   1       6.806   5.331  19.802  0.00  0.00    +0.000 OA
ATOM     15  HXT ASP A   1       7.358   4.513  19.773  0.00  0.00    +0.000 HD
ENDBRANCH  12  14
ENDBRANCH  11  12
BRANCH  11  16
ATOM     16  CB  ASP A   1       5.712   4.433  16.851  0.00  0.00    +0.000 C 
BRANCH  16  17
ATOM     17  CG  ASP A   1       7.148   4.839  16.711  0.00  0.00    +0.000 C 
ATOM     18  OD1 ASP A   1       8.079   4.192  17.179  0.00  0.00    +0.000 OA
BRANCH  17  19
ATOM     19  OD2 ASP A   1       7.323   5.994  16.041  0.00  0.00    +0.000 OA
ATOM     20  HD2 ASP A   1       7.886   6.651  16.497  0.00  0.00    +0.000 HD
ENDBRANCH  17  19
ENDBRANCH  16  17
ENDBRANCH  11  16
ENDBRANCH   3  11
TORSDOF 10
ENDMDL
MODEL 8
REMARK VINA RESULT:      -5.5      1.831      5.496
REMARK  Name = 
REMARK  10 active torsions:
REMARK  status: ('A' for Active; 'I' for Inactive)
REMARK    1  A    between atoms: C_2  and  O_3
REMARK    2  A    between atoms: C_2  and  C_4
REMARK    3  A    between atoms: C_4  and  C_5
REMARK    4  A    between atoms: C_5  and  C_6
REMARK    5  A    between atoms: N_8  and  CA_9
REMARK    6  A    between atoms: CA_9  and  CB_10
REMARK    7  A    between atoms: CA_9  and  C_14
REMARK    8  A    between atoms: CB_10  and  CG_11
REMARK    9  A    between atoms: CG_11  and  OD2_13
REMARK   10  A    between atoms: C_14  and  OXT_16
REMARK                            x       y       z     vdW  Elec       q    Type
REMARK                         _______ _______ _______ _____ _____    ______ ____
ROOT
ATOM      1  C   UNK A   0       4.147   4.396  17.449  0.00  0.00    +0.000 C 
ATOM      2  O   UNK A   0       3.500   5.437  17.410  0.00  0.00    +0.000 OA
ATOM      3  N   ASP A   1       5.395   4.262  16.906  0.00  0.00    +0.000 N 
ATOM      4  H   ASP A   1       5.740   3.310  16.721  0.00  0.00    +0.000 HD
ENDROOT
BRANCH   1   5
ATOM      5  C   UNK A   0       3.602   3.134  18.085  0.00  0.00    +0.000 C 
BRANCH   5   6
ATOM      6  C   UNK A   0       2.813   3.471  19.341  0.00  0.00    +0.000 C 
BRANCH   6   8
ATOM      7  O   UNK A   0       0.813   2.984  18.076  0.00  0.00    +0.000 OA
ATOM      8  C   UNK A   0       1.344   3.183  19.158  0.00  0.00    +0.000 C 
BRANCH   8   9
ATOM      9  O   UNK A   0       0.659   3.152  20.319  0.00  0.00    +0.000 OA
ATOM     10  H   UNK A   0       1.174   2.832  21.085  0.00  0.00    +0.000 HD
ENDBRANCH   8   9
ENDBRANCH   6   8
ENDBRANCH   5   6
ENDBRANCH   1   5
BRANCH   3  11
ATOM     11  CA  ASP A   1       6.085   5.350  16.206  0.00  0.00    +0.000 C 
BRANCH  11  12
ATOM     12  C   ASP A   1       6.758   4.751  14.960  0.00  0.00    +0.000 C 
ATOM     13  O   ASP A   1       7.633   5.328  14.325  0.00  0.00    +0.000 OA
BRANCH  12  14
ATOM     14  OXT ASP A   1       6.277   3.546  14.580  0.00  0.00    +0.000 OA
ATOM     15  HXT ASP A   1       6.003   2.956  15.323  0.00  0.00    +0.000 HD
ENDBRANCH  12  14
ENDBRANCH  11  12
BRANCH  11  16
ATOM     16  CB  ASP A   1       7.146   5.989  17.102  0.00  0.00    +0.000 C 
BRANCH  16  17
ATOM     17  CG  ASP A   1       7.535   5.035  18.191  0.00  0.00    +0.000 C 
ATOM     18  OD1 ASP A   1       7.171   5.158  19.355  0.00  0.00    +0.000 OA
BRANCH  17  19
ATOM     19  OD2 ASP A   1       8.342   4.040  17.778  0.00  0.00    +0.000 OA
ATOM     20  HD2 ASP A   1       9.285   4.153  18.010  0.00  0.00    +0.000 HD
ENDBRANCH  17  19
ENDBRANCH  16  17
ENDBRANCH  11  16
ENDBRANCH   3  11
TORSDOF 10
ENDMDL
MODEL 9
REMARK VINA RESULT:      -5.4      1.556      4.870
REMARK  Name = 
REMARK  10 active torsions:
REMARK  status: ('A' for Active; 'I' for Inactive)
REMARK    1  A    between atoms: C_2  and  O_3
REMARK    2  A    between atoms: C_2  and  C_4
REMARK    3  A    between atoms: C_4  and  C_5
REMARK    4  A    between atoms: C_5  and  C_6
REMARK    5  A    between atoms: N_8  and  CA_9
REMARK    6  A    between atoms: CA_9  and  CB_10
REMARK    7  A    between atoms: CA_9  and  C_14
REMARK    8  A    between atoms: CB_10  and  CG_11
REMARK    9  A    between atoms: CG_11  and  OD2_13
REMARK   10  A    between atoms: C_14  and  OXT_16
REMARK                            x       y       z     vdW  Elec       q    Type
REMARK                         _______ _______ _______ _____ _____    ______ ____
ROOT
ATOM      1  C   UNK A   0       4.655   4.163  19.065  0.00  0.00    +0.000 C 
ATOM      2  O   UNK A   0       5.145   3.224  19.685  0.00  0.00    +0.000 OA
ATOM      3  N   ASP A   1       5.375   4.979  18.237  0.00  0.00    +0.000 N 
ATOM      4  H   ASP A   1       4.972   5.894  17.993  0.00  0.00    +0.000 HD
ENDROOT
BRANCH   1   5
ATOM      5  C   UNK A   0       3.190   4.529  19.188  0.00  0.00    +0.000 C 
BRANCH   5   6
ATOM      6  C   UNK A   0       2.415   4.027  17.979  0.00  0.00    +0.000 C 
BRANCH   6   8
ATOM      7  O   UNK A   0       0.724   2.530  18.836  0.00  0.00    +0.000 OA
ATOM      8  C   UNK A   0       1.785   2.685  18.253  0.00  0.00    +0.000 C 
BRANCH   8   9
ATOM      9  O   UNK A   0       2.508   1.651  17.776  0.00  0.00    +0.000 OA
ATOM     10  H   UNK A   0       2.861   1.785  16.875  0.00  0.00    +0.000 HD
ENDBRANCH   8   9
ENDBRANCH   6   8
ENDBRANCH   5   6
ENDBRANCH   1   5
BRANCH   3  11
ATOM     11  CA  ASP A   1       6.816   4.823  18.014  0.00  0.00    +0.000 C 
BRANCH  11  12
ATOM     12  C   ASP A   1       7.541   5.822  18.932  0.00  0.00    +0.000 C 
ATOM     13  O   ASP A   1       8.020   6.876  18.533  0.00  0.00    +0.000 OA
BRANCH  12  14
ATOM     14  OXT ASP A   1       7.656   5.426  20.219  0.00  0.00    +0.000 OA
ATOM     15  HXT ASP A   1       7.861   4.467  20.342  0.00  0.00    +0.000 HD
ENDBRANCH  12  14
ENDBRANCH  11  12
BRANCH  11  16
ATOM     16  CB  ASP A   1       7.177   5.115  16.557  0.00  0.00    +0.000 C 
BRANCH  16  17
ATOM     17  CG  ASP A   1       5.932   5.391  15.768  0.00  0.00    +0.000 C 
ATOM     18  OD1 ASP A   1       5.275   4.514  15.220  0.00  0.00    +0.000 OA
BRANCH  17  19
ATOM     19  OD2 ASP A   1       5.612   6.697  15.699  0.00  0.00    +0.000 OA
ATOM     20  HD2 ASP A   1       4.723   6.919  16.038  0.00  0.00    +0.000 HD
ENDBRANCH  17  19
ENDBRANCH  16  17
ENDBRANCH  11  16
ENDBRANCH   3  11
TORSDOF 10
ENDMDL
