MODEL 1
REMARK VINA RESULT:      -8.4      0.000      0.000
REMARK  Name = 
REMARK  10 active torsions:
REMARK  status: ('A' for Active; 'I' for Inactive)
REMARK    1  A    between atoms: C_1  and  C_2
REMARK    2  A    between atoms: C_2  and  C_3
REMARK    3  A    between atoms: C_2  and  O_4
REMARK    4  A    between atoms: O_4  and  C_5
REMARK    5  A    between atoms: C_8  and  C_9
REMARK    6  A    between atoms: N_12  and  C_13
REMARK    7  A    between atoms: C_13  and  C_14
REMARK    8  A    between atoms: C_17  and  N_18
REMARK    9  A    between atoms: C_26  and  N_27
REMARK   10  A    between atoms: C_28  and  C_30
REMARK                            x       y       z     vdW  Elec       q    Type
REMARK                         _______ _______ _______ _____ _____    ______ ____
ROOT
ATOM      1  C   UNL     1       2.426   6.292  19.859  0.00  0.00    +0.000 A 
ATOM      2  C   UNL     1       1.708   7.185  20.665  0.00  0.00    +0.000 A 
ATOM      3  C   UNL     1       1.303   8.438  20.187  0.00  0.00    +0.000 A 
ATOM      4  C   UNL     1       1.588   8.834  18.878  0.00  0.00    +0.000 A 
ATOM      5  C   UNL     1       2.260   7.911  18.071  0.00  0.00    +0.000 A 
ATOM      6  C   UNL     1       2.743   6.680  18.544  0.00  0.00    +0.000 A 
ENDROOT
BRANCH   4   7
ATOM      7  C   UNL     1       1.153  10.207  18.368  0.00  0.00    +0.000 C 
ATOM      8  C   UNL     1       1.697  11.435  19.123  0.00  0.00    +0.000 C 
ATOM      9  C   UNL     1       1.064  11.622  20.510  0.00  0.00    +0.000 C 
ATOM     10  N   UNL     1      -0.409  11.619  20.512  0.00  0.00    +0.000 NA
ATOM     11  C   UNL     1      -0.969  10.502  19.728  0.00  0.00    +0.000 C 
ATOM     12  C   UNL     1      -0.375  10.368  18.325  0.00  0.00    +0.000 C 
BRANCH  10  13
ATOM     13  C   UNL     1      -0.908  11.491  21.904  0.00  0.00    +0.000 C 
BRANCH  13  14
ATOM     14  C   UNL     1      -2.165  12.282  22.210  0.00  0.00    +0.000 A 
ATOM     15  C   UNL     1      -2.877  12.055  23.397  0.00  0.00    +0.000 A 
ATOM     16  C   UNL     1      -4.005  12.820  23.706  0.00  0.00    +0.000 A 
ATOM     17  C   UNL     1      -4.420  13.825  22.824  0.00  0.00    +0.000 A 
ATOM     18  C   UNL     1      -3.729  14.056  21.628  0.00  0.00    +0.000 A 
ATOM     19  C   UNL     1      -2.607  13.281  21.325  0.00  0.00    +0.000 A 
BRANCH  17  20
ATOM     20  N   UNL     1      -5.583  14.653  23.161  0.00  0.00    +0.000 N 
ATOM     21  O   UNL     1      -5.456  15.487  24.070  0.00  0.00    +0.000 OA
ATOM     22  O   UNL     1      -6.626  14.478  22.514  0.00  0.00    +0.000 OA
ENDBRANCH  17  20
ENDBRANCH  13  14
ENDBRANCH  10  13
ENDBRANCH   4   7
BRANCH   6  23
ATOM     23  N   UNL     1       3.459   5.818  17.665  0.00  0.00    +0.000 N 
ATOM     24  C   UNL     1       4.850   5.756  17.576  0.00  0.00    +0.000 C 
ATOM     25  O   UNL     1       5.633   6.169  18.433  0.00  0.00    +0.000 OA
ATOM     26  H   UNL     1       2.879   5.209  17.105  0.00  0.00    +0.000 HD
BRANCH  24  27
ATOM     27  C   UNL     1       5.452   5.182  16.338  0.00  0.00    +0.000 A 
ATOM     28  C   UNL     1       6.823   5.420  16.113  0.00  0.00    +0.000 A 
ATOM     29  C   UNL     1       7.446   4.964  14.948  0.00  0.00    +0.000 A 
ATOM     30  C   UNL     1       6.704   4.257  14.003  0.00  0.00    +0.000 A 
ATOM     31  C   UNL     1       5.353   3.994  14.231  0.00  0.00    +0.000 A 
ATOM     32  C   UNL     1       4.725   4.452  15.394  0.00  0.00    +0.000 A 
ENDBRANCH  24  27
ENDBRANCH   6  23
BRANCH   1  33
ATOM     33  O   UNL     1       2.890   5.079  20.315  0.00  0.00    +0.000 OA
BRANCH  33  35
ATOM     34  C   UNL     1       0.905   3.806  19.949  0.00  0.00    +0.000 C 
ATOM     35  C   UNL     1       1.944   4.226  20.991  0.00  0.00    +0.000 C 
ATOM     36  C   UNL     1       2.587   2.957  21.561  0.00  0.00    +0.000 C 
ENDBRANCH  33  35
ENDBRANCH   1  33
TORSDOF 8
ENDMDL
MODEL 2
REMARK VINA RESULT:      -8.4      0.890      1.386
REMARK  Name = 
REMARK  10 active torsions:
REMARK  status: ('A' for Active; 'I' for Inactive)
REMARK    1  A    between atoms: C_1  and  C_2
REMARK    2  A    between atoms: C_2  and  C_3
REMARK    3  A    between atoms: C_2  and  O_4
REMARK    4  A    between atoms: O_4  and  C_5
REMARK    5  A    between atoms: C_8  and  C_9
REMARK    6  A    between atoms: N_12  and  C_13
REMARK    7  A    between atoms: C_13  and  C_14
REMARK    8  A    between atoms: C_17  and  N_18
REMARK    9  A    between atoms: C_26  and  N_27
REMARK   10  A    between atoms: C_28  and  C_30
REMARK                            x       y       z     vdW  Elec       q    Type
REMARK                         _______ _______ _______ _____ _____    ______ ____
ROOT
ATOM      1  C   UNL     1       2.385   6.226  19.882  0.00  0.00    +0.000 A 
ATOM      2  C   UNL     1       1.646   7.066  20.725  0.00  0.00    +0.000 A 
ATOM      3  C   UNL     1       1.251   8.347  20.317  0.00  0.00    +0.000 A 
ATOM      4  C   UNL     1       1.566   8.824  19.044  0.00  0.00    +0.000 A 
ATOM      5  C   UNL     1       2.259   7.954  18.197  0.00  0.00    +0.000 A 
ATOM      6  C   UNL     1       2.733   6.696  18.603  0.00  0.00    +0.000 A 
ENDROOT
BRANCH   4   7
ATOM      7  C   UNL     1       1.141  10.227  18.611  0.00  0.00    +0.000 C 
ATOM      8  C   UNL     1       1.721  11.409  19.410  0.00  0.00    +0.000 C 
ATOM      9  C   UNL     1       1.123  11.538  20.819  0.00  0.00    +0.000 C 
ATOM     10  N   UNL     1      -0.349  11.556  20.856  0.00  0.00    +0.000 NA
ATOM     11  C   UNL     1      -0.945  10.486  20.033  0.00  0.00    +0.000 C 
ATOM     12  C   UNL     1      -0.385  10.411  18.612  0.00  0.00    +0.000 C 
BRANCH  10  13
ATOM     13  C   UNL     1      -0.817  11.368  22.252  0.00  0.00    +0.000 C 
BRANCH  13  14
ATOM     14  C   UNL     1      -1.680  12.491  22.796  0.00  0.00    +0.000 A 
ATOM     15  C   UNL     1      -2.983  12.233  23.245  0.00  0.00    +0.000 A 
ATOM     16  C   UNL     1      -3.760  13.256  23.796  0.00  0.00    +0.000 A 
ATOM     17  C   UNL     1      -3.226  14.546  23.904  0.00  0.00    +0.000 A 
ATOM     18  C   UNL     1      -1.932  14.824  23.448  0.00  0.00    +0.000 A 
ATOM     19  C   UNL     1      -1.166  13.796  22.892  0.00  0.00    +0.000 A 
BRANCH  17  20
ATOM     20  N   UNL     1      -4.026  15.615  24.513  0.00  0.00    +0.000 N 
ATOM     21  O   UNL     1      -5.228  15.680  24.215  0.00  0.00    +0.000 OA
ATOM     22  O   UNL     1      -3.457  16.389  25.298  0.00  0.00    +0.000 OA
ENDBRANCH  17  20
ENDBRANCH  13  14
ENDBRANCH  10  13
ENDBRANCH   4   7
BRANCH   6  23
ATOM     23  N   UNL     1       3.471   5.891  17.688  0.00  0.00    +0.000 N 
ATOM     24  C   UNL     1       4.860   5.753  17.698  0.00  0.00    +0.000 C 
ATOM     25  O   UNL     1       5.591   6.022  18.653  0.00  0.00    +0.000 OA
ATOM     26  H   UNL     1       2.908   5.383  17.022  0.00  0.00    +0.000 HD
BRANCH  24  27
ATOM     27  C   UNL     1       5.529   5.280  16.453  0.00  0.00    +0.000 A 
ATOM     28  C   UNL     1       4.746   4.557  15.529  0.00  0.00    +0.000 A 
ATOM     29  C   UNL     1       5.316   4.031  14.367  0.00  0.00    +0.000 A 
ATOM     30  C   UNL     1       6.672   4.232  14.113  0.00  0.00    +0.000 A 
ATOM     31  C   UNL     1       7.447   4.968  15.009  0.00  0.00    +0.000 A 
ATOM     32  C   UNL     1       6.882   5.494  16.176  0.00  0.00    +0.000 A 
ENDBRANCH  24  27
ENDBRANCH   6  23
BRANCH   1  33
ATOM     33  O   UNL     1       2.840   4.987  20.272  0.00  0.00    +0.000 OA
BRANCH  33  35
ATOM     34  C   UNL     1       0.996   3.564  19.750  0.00  0.00    +0.000 C 
ATOM     35  C   UNL     1       1.881   4.096  20.879  0.00  0.00    +0.000 C 
ATOM     36  C   UNL     1       2.538   2.898  21.575  0.00  0.00    +0.000 C 
ENDBRANCH  33  35
ENDBRANCH   1  33
TORSDOF 8
ENDMDL
MODEL 3
REMARK VINA RESULT:      -8.4      3.146     10.428
REMARK  Name = 
REMARK  10 active torsions:
REMARK  status: ('A' for Active; 'I' for Inactive)
REMARK    1  A    between atoms: C_1  and  C_2
REMARK    2  A    between atoms: C_2  and  C_3
REMARK    3  A    between atoms: C_2  and  O_4
REMARK    4  A    between atoms: O_4  and  C_5
REMARK    5  A    between atoms: C_8  and  C_9
REMARK    6  A    between atoms: N_12  and  C_13
REMARK    7  A    between atoms: C_13  and  C_14
REMARK    8  A    between atoms: C_17  and  N_18
REMARK    9  A    between atoms: C_26  and  N_27
REMARK   10  A    between atoms: C_28  and  C_30
REMARK                            x       y       z     vdW  Elec       q    Type
REMARK                         _______ _______ _______ _____ _____    ______ ____
ROOT
ATOM      1  C   UNL     1       2.258   7.945  19.374  0.00  0.00    +0.000 A 
ATOM      2  C   UNL     1       2.599   6.780  18.673  0.00  0.00    +0.000 A 
ATOM      3  C   UNL     1       2.249   5.511  19.151  0.00  0.00    +0.000 A 
ATOM      4  C   UNL     1       1.528   5.364  20.338  0.00  0.00    +0.000 A 
ATOM      5  C   UNL     1       1.151   6.537  20.998  0.00  0.00    +0.000 A 
ATOM      6  C   UNL     1       1.551   7.818  20.584  0.00  0.00    +0.000 A 
ENDROOT
BRANCH   4   7
ATOM      7  C   UNL     1       1.160   3.975  20.858  0.00  0.00    +0.000 C 
ATOM      8  C   UNL     1       2.301   3.129  21.455  0.00  0.00    +0.000 C 
ATOM      9  C   UNL     1       3.279   2.599  20.396  0.00  0.00    +0.000 C 
ATOM     10  N   UNL     1       2.637   1.892  19.274  0.00  0.00    +0.000 NA
ATOM     11  C   UNL     1       1.486   2.634  18.728  0.00  0.00    +0.000 C 
ATOM     12  C   UNL     1       0.487   3.100  19.788  0.00  0.00    +0.000 C 
BRANCH  10  13
ATOM     13  C   UNL     1       3.617   1.702  18.176  0.00  0.00    +0.000 C 
BRANCH  13  14
ATOM     14  C   UNL     1       4.398   2.944  17.792  0.00  0.00    +0.000 A 
ATOM     15  C   UNL     1       5.191   3.608  18.739  0.00  0.00    +0.000 A 
ATOM     16  C   UNL     1       5.953   4.721  18.373  0.00  0.00    +0.000 A 
ATOM     17  C   UNL     1       5.926   5.170  17.047  0.00  0.00    +0.000 A 
ATOM     18  C   UNL     1       5.129   4.528  16.092  0.00  0.00    +0.000 A 
ATOM     19  C   UNL     1       4.366   3.421  16.469  0.00  0.00    +0.000 A 
BRANCH  17  20
ATOM     20  N   UNL     1       6.751   6.317  16.652  0.00  0.00    +0.000 N 
ATOM     21  O   UNL     1       6.544   7.402  17.217  0.00  0.00    +0.000 OA
ATOM     22  O   UNL     1       7.613   6.137  15.779  0.00  0.00    +0.000 OA
ENDBRANCH  17  20
ENDBRANCH  13  14
ENDBRANCH  10  13
ENDBRANCH   4   7
BRANCH   6  23
ATOM     23  N   UNL     1       1.160   8.959  21.341  0.00  0.00    +0.000 N 
ATOM     24  C   UNL     1      -0.138   9.203  21.793  0.00  0.00    +0.000 C 
ATOM     25  O   UNL     1      -1.025   8.352  21.891  0.00  0.00    +0.000 OA
ATOM     26  H   UNL     1       1.912   9.595  21.567  0.00  0.00    +0.000 HD
BRANCH  24  27
ATOM     27  C   UNL     1      -0.507  10.601  22.154  0.00  0.00    +0.000 A 
ATOM     28  C   UNL     1       0.137  11.643  21.456  0.00  0.00    +0.000 A 
ATOM     29  C   UNL     1      -0.113  12.980  21.777  0.00  0.00    +0.000 A 
ATOM     30  C   UNL     1      -1.018  13.287  22.792  0.00  0.00    +0.000 A 
ATOM     31  C   UNL     1      -1.679  12.261  23.469  0.00  0.00    +0.000 A 
ATOM     32  C   UNL     1      -1.429  10.922  23.154  0.00  0.00    +0.000 A 
ENDBRANCH  24  27
ENDBRANCH   6  23
BRANCH   1  33
ATOM     33  O   UNL     1       2.638   9.203  18.964  0.00  0.00    +0.000 OA
BRANCH  33  35
ATOM     34  C   UNL     1       0.435   9.524  18.102  0.00  0.00    +0.000 C 
ATOM     35  C   UNL     1       1.923   9.775  17.849  0.00  0.00    +0.000 C 
ATOM     36  C   UNL     1       2.136  11.287  17.717  0.00  0.00    +0.000 C 
ENDBRANCH  33  35
ENDBRANCH   1  33
TORSDOF 8
ENDMDL
MODEL 4
REMARK VINA RESULT:      -8.3      0.705      1.082
REMARK  Name = 
REMARK  10 active torsions:
REMARK  status: ('A' for Active; 'I' for Inactive)
REMARK    1  A    between atoms: C_1  and  C_2
REMARK    2  A    between atoms: C_2  and  C_3
REMARK    3  A    between atoms: C_2  and  O_4
REMARK    4  A    between atoms: O_4  and  C_5
REMARK    5  A    between atoms: C_8  and  C_9
REMARK    6  A    between atoms: N_12  and  C_13
REMARK    7  A    between atoms: C_13  and  C_14
REMARK    8  A    between atoms: C_17  and  N_18
REMARK    9  A    between atoms: C_26  and  N_27
REMARK   10  A    between atoms: C_28  and  C_30
REMARK                            x       y       z     vdW  Elec       q    Type
REMARK                         _______ _______ _______ _____ _____    ______ ____
ROOT
ATOM      1  C   UNL     1       2.227   6.603  19.918  0.00  0.00    +0.000 A 
ATOM      2  C   UNL     1       1.483   7.527  20.664  0.00  0.00    +0.000 A 
ATOM      3  C   UNL     1       1.091   8.758  20.122  0.00  0.00    +0.000 A 
ATOM      4  C   UNL     1       1.414   9.099  18.807  0.00  0.00    +0.000 A 
ATOM      5  C   UNL     1       2.113   8.146  18.061  0.00  0.00    +0.000 A 
ATOM      6  C   UNL     1       2.583   6.937  18.599  0.00  0.00    +0.000 A 
ENDROOT
BRANCH   4   7
ATOM      7  C   UNL     1       0.993  10.449  18.227  0.00  0.00    +0.000 C 
ATOM      8  C   UNL     1       1.780  11.686  18.698  0.00  0.00    +0.000 C 
ATOM      9  C   UNL     1       1.470  12.083  20.149  0.00  0.00    +0.000 C 
ATOM     10  N   UNL     1       0.034  12.234  20.446  0.00  0.00    +0.000 NA
ATOM     11  C   UNL     1      -0.765  11.104  19.936  0.00  0.00    +0.000 C 
ATOM     12  C   UNL     1      -0.492  10.761  18.470  0.00  0.00    +0.000 C 
BRANCH  10  13
ATOM     13  C   UNL     1      -0.168  12.306  21.915  0.00  0.00    +0.000 C 
BRANCH  13  14
ATOM     14  C   UNL     1      -1.585  12.623  22.351  0.00  0.00    +0.000 A 
ATOM     15  C   UNL     1      -2.299  13.669  21.750  0.00  0.00    +0.000 A 
ATOM     16  C   UNL     1      -3.623  13.927  22.113  0.00  0.00    +0.000 A 
ATOM     17  C   UNL     1      -4.241  13.128  23.083  0.00  0.00    +0.000 A 
ATOM     18  C   UNL     1      -3.539  12.088  23.704  0.00  0.00    +0.000 A 
ATOM     19  C   UNL     1      -2.214  11.842  23.339  0.00  0.00    +0.000 A 
BRANCH  17  20
ATOM     20  N   UNL     1      -5.642  13.374  23.443  0.00  0.00    +0.000 N 
ATOM     21  O   UNL     1      -6.097  14.513  23.254  0.00  0.00    +0.000 OA
ATOM     22  O   UNL     1      -6.295  12.429  23.909  0.00  0.00    +0.000 OA
ENDBRANCH  17  20
ENDBRANCH  13  14
ENDBRANCH  10  13
ENDBRANCH   4   7
BRANCH   6  23
ATOM     23  N   UNL     1       3.327   6.041  17.779  0.00  0.00    +0.000 N 
ATOM     24  C   UNL     1       4.718   5.926  17.791  0.00  0.00    +0.000 C 
ATOM     25  O   UNL     1       5.453   6.318  18.699  0.00  0.00    +0.000 OA
ATOM     26  H   UNL     1       2.767   5.449  17.183  0.00  0.00    +0.000 HD
BRANCH  24  27
ATOM     27  C   UNL     1       5.385   5.319  16.604  0.00  0.00    +0.000 A 
ATOM     28  C   UNL     1       6.780   5.491  16.484  0.00  0.00    +0.000 A 
ATOM     29  C   UNL     1       7.467   5.002  15.371  0.00  0.00    +0.000 A 
ATOM     30  C   UNL     1       6.768   4.326  14.371  0.00  0.00    +0.000 A 
ATOM     31  C   UNL     1       5.392   4.130  14.495  0.00  0.00    +0.000 A 
ATOM     32  C   UNL     1       4.699   4.621  15.607  0.00  0.00    +0.000 A 
ENDBRANCH  24  27
ENDBRANCH   6  23
BRANCH   1  33
ATOM     33  O   UNL     1       2.679   5.412  20.439  0.00  0.00    +0.000 OA
BRANCH  33  35
ATOM     34  C   UNL     1       1.162   3.808  19.532  0.00  0.00    +0.000 C 
ATOM     35  C   UNL     1       1.682   4.442  20.823  0.00  0.00    +0.000 C 
ATOM     36  C   UNL     1       2.247   3.326  21.710  0.00  0.00    +0.000 C 
ENDBRANCH  33  35
ENDBRANCH   1  33
TORSDOF 8
ENDMDL
MODEL 5
REMARK VINA RESULT:      -8.3      3.183     10.398
REMARK  Name = 
REMARK  10 active torsions:
REMARK  status: ('A' for Active; 'I' for Inactive)
REMARK    1  A    between atoms: C_1  and  C_2
REMARK    2  A    between atoms: C_2  and  C_3
REMARK    3  A    between atoms: C_2  and  O_4
REMARK    4  A    between atoms: O_4  and  C_5
REMARK    5  A    between atoms: C_8  and  C_9
REMARK    6  A    between atoms: N_12  and  C_13
REMARK    7  A    between atoms: C_13  and  C_14
REMARK    8  A    between atoms: C_17  and  N_18
REMARK    9  A    between atoms: C_26  and  N_27
REMARK   10  A    between atoms: C_28  and  C_30
REMARK                            x       y       z     vdW  Elec       q    Type
REMARK                         _______ _______ _______ _____ _____    ______ ____
ROOT
ATOM      1  C   UNL     1       2.181   7.819  19.111  0.00  0.00    +0.000 A 
ATOM      2  C   UNL     1       2.443   6.625  18.425  0.00  0.00    +0.000 A 
ATOM      3  C   UNL     1       2.129   5.379  18.982  0.00  0.00    +0.000 A 
ATOM      4  C   UNL     1       1.525   5.284  20.237  0.00  0.00    +0.000 A 
ATOM      5  C   UNL     1       1.224   6.486  20.886  0.00  0.00    +0.000 A 
ATOM      6  C   UNL     1       1.593   7.745  20.387  0.00  0.00    +0.000 A 
ENDROOT
BRANCH   4   7
ATOM      7  C   UNL     1       1.197   3.920  20.842  0.00  0.00    +0.000 C 
ATOM      8  C   UNL     1       2.357   3.154  21.507  0.00  0.00    +0.000 C 
ATOM      9  C   UNL     1       3.367   2.591  20.496  0.00  0.00    +0.000 C 
ATOM     10  N   UNL     1       2.765   1.791  19.415  0.00  0.00    +0.000 NA
ATOM     11  C   UNL     1       1.597   2.456  18.808  0.00  0.00    +0.000 C 
ATOM     12  C   UNL     1       0.568   2.955  19.825  0.00  0.00    +0.000 C 
BRANCH  10  13
ATOM     13  C   UNL     1       3.766   1.565  18.343  0.00  0.00    +0.000 C 
BRANCH  13  14
ATOM     14  C   UNL     1       4.462   2.815  17.841  0.00  0.00    +0.000 A 
ATOM     15  C   UNL     1       4.250   3.273  16.533  0.00  0.00    +0.000 A 
ATOM     16  C   UNL     1       4.848   4.454  16.087  0.00  0.00    +0.000 A 
ATOM     17  C   UNL     1       5.661   5.188  16.959  0.00  0.00    +0.000 A 
ATOM     18  C   UNL     1       5.895   4.739  18.264  0.00  0.00    +0.000 A 
ATOM     19  C   UNL     1       5.298   3.553  18.698  0.00  0.00    +0.000 A 
BRANCH  17  20
ATOM     20  N   UNL     1       6.263   6.447  16.506  0.00  0.00    +0.000 N 
ATOM     21  O   UNL     1       7.489   6.581  16.635  0.00  0.00    +0.000 OA
ATOM     22  O   UNL     1       5.514   7.302  16.011  0.00  0.00    +0.000 OA
ENDBRANCH  17  20
ENDBRANCH  13  14
ENDBRANCH  10  13
ENDBRANCH   4   7
BRANCH   6  23
ATOM     23  N   UNL     1       1.287   8.918  21.135  0.00  0.00    +0.000 N 
ATOM     24  C   UNL     1       0.050   9.180  21.726  0.00  0.00    +0.000 C 
ATOM     25  O   UNL     1      -0.814   8.334  21.964  0.00  0.00    +0.000 OA
ATOM     26  H   UNL     1       2.055   9.564  21.242  0.00  0.00    +0.000 HD
BRANCH  24  27
ATOM     27  C   UNL     1      -0.284  10.592  22.067  0.00  0.00    +0.000 A 
ATOM     28  C   UNL     1      -1.256  10.807  23.065  0.00  0.00    +0.000 A 
ATOM     29  C   UNL     1      -1.663  12.101  23.400  0.00  0.00    +0.000 A 
ATOM     30  C   UNL     1      -1.095  13.193  22.745  0.00  0.00    +0.000 A 
ATOM     31  C   UNL     1      -0.114  12.989  21.774  0.00  0.00    +0.000 A 
ATOM     32  C   UNL     1       0.295  11.696  21.434  0.00  0.00    +0.000 A 
ENDBRANCH  24  27
ENDBRANCH   6  23
BRANCH   1  33
ATOM     33  O   UNL     1       2.530   9.057  18.619  0.00  0.00    +0.000 OA
BRANCH  33  35
ATOM     34  C   UNL     1       2.125  11.315  17.962  0.00  0.00    +0.000 C 
ATOM     35  C   UNL     1       1.491  10.056  18.556  0.00  0.00    +0.000 C 
ATOM     36  C   UNL     1       0.320   9.641  17.657  0.00  0.00    +0.000 C 
ENDBRANCH  33  35
ENDBRANCH   1  33
TORSDOF 8
ENDMDL
MODEL 6
REMARK VINA RESULT:      -8.2      0.560      1.293
REMARK  Name = 
REMARK  10 active torsions:
REMARK  status: ('A' for Active; 'I' for Inactive)
REMARK    1  A    between atoms: C_1  and  C_2
REMARK    2  A    between atoms: C_2  and  C_3
REMARK    3  A    between atoms: C_2  and  O_4
REMARK    4  A    between atoms: O_4  and  C_5
REMARK    5  A    between atoms: C_8  and  C_9
REMARK    6  A    between atoms: N_12  and  C_13
REMARK    7  A    between atoms: C_13  and  C_14
REMARK    8  A    between atoms: C_17  and  N_18
REMARK    9  A    between atoms: C_26  and  N_27
REMARK   10  A    between atoms: C_28  and  C_30
REMARK                            x       y       z     vdW  Elec       q    Type
REMARK                         _______ _______ _______ _____ _____    ______ ____
ROOT
ATOM      1  C   UNL     1       2.662   6.338  19.703  0.00  0.00    +0.000 A 
ATOM      2  C   UNL     1       1.925   7.197  20.528  0.00  0.00    +0.000 A 
ATOM      3  C   UNL     1       1.428   8.418  20.054  0.00  0.00    +0.000 A 
ATOM      4  C   UNL     1       1.634   8.812  18.731  0.00  0.00    +0.000 A 
ATOM      5  C   UNL     1       2.327   7.920  17.907  0.00  0.00    +0.000 A 
ATOM      6  C   UNL     1       2.902   6.726  18.372  0.00  0.00    +0.000 A 
ENDROOT
BRANCH   4   7
ATOM      7  C   UNL     1       1.098  10.151  18.224  0.00  0.00    +0.000 C 
ATOM      8  C   UNL     1       1.627  11.421  18.918  0.00  0.00    +0.000 C 
ATOM      9  C   UNL     1       1.076  11.607  20.339  0.00  0.00    +0.000 C 
ATOM     10  N   UNL     1      -0.392  11.531  20.438  0.00  0.00    +0.000 NA
ATOM     11  C   UNL     1      -0.944  10.370  19.715  0.00  0.00    +0.000 C 
ATOM     12  C   UNL     1      -0.435  10.234  18.278  0.00  0.00    +0.000 C 
BRANCH  10  13
ATOM     13  C   UNL     1      -0.792  11.410  21.862  0.00  0.00    +0.000 C 
BRANCH  13  14
ATOM     14  C   UNL     1      -2.052  12.164  22.241  0.00  0.00    +0.000 A 
ATOM     15  C   UNL     1      -2.660  13.037  21.328  0.00  0.00    +0.000 A 
ATOM     16  C   UNL     1      -3.851  13.691  21.655  0.00  0.00    +0.000 A 
ATOM     17  C   UNL     1      -4.441  13.466  22.905  0.00  0.00    +0.000 A 
ATOM     18  C   UNL     1      -3.840  12.608  23.834  0.00  0.00    +0.000 A 
ATOM     19  C   UNL     1      -2.646  11.964  23.500  0.00  0.00    +0.000 A 
BRANCH  17  20
ATOM     20  N   UNL     1      -5.709  14.124  23.240  0.00  0.00    +0.000 N 
ATOM     21  O   UNL     1      -5.733  15.364  23.247  0.00  0.00    +0.000 OA
ATOM     22  O   UNL     1      -6.687  13.405  23.489  0.00  0.00    +0.000 OA
ENDBRANCH  17  20
ENDBRANCH  13  14
ENDBRANCH  10  13
ENDBRANCH   4   7
BRANCH   6  23
ATOM     23  N   UNL     1       3.631   5.896  17.474  0.00  0.00    +0.000 N 
ATOM     24  C   UNL     1       5.024   5.830  17.410  0.00  0.00    +0.000 C 
ATOM     25  O   UNL     1       5.791   6.205  18.298  0.00  0.00    +0.000 OA
ATOM     26  H   UNL     1       3.060   5.313  16.879  0.00  0.00    +0.000 HD
BRANCH  24  27
ATOM     27  C   UNL     1       5.648   5.303  16.163  0.00  0.00    +0.000 A 
ATOM     28  C   UNL     1       4.847   4.500  15.326  0.00  0.00    +0.000 A 
ATOM     29  C   UNL     1       5.377   3.922  14.169  0.00  0.00    +0.000 A 
ATOM     30  C   UNL     1       6.711   4.151  13.834  0.00  0.00    +0.000 A 
ATOM     31  C   UNL     1       7.502   4.966  14.644  0.00  0.00    +0.000 A 
ATOM     32  C   UNL     1       6.977   5.544  15.804  0.00  0.00    +0.000 A 
ENDBRANCH  24  27
ENDBRANCH   6  23
BRANCH   1  33
ATOM     33  O   UNL     1       3.215   5.160  20.153  0.00  0.00    +0.000 OA
BRANCH  33  35
ATOM     34  C   UNL     1       3.047   2.889  19.440  0.00  0.00    +0.000 C 
ATOM     35  C   UNL     1       2.349   4.008  20.214  0.00  0.00    +0.000 C 
ATOM     36  C   UNL     1       2.109   3.520  21.647  0.00  0.00    +0.000 C 
ENDBRANCH  33  35
ENDBRANCH   1  33
TORSDOF 8
ENDMDL
MODEL 7
REMARK VINA RESULT:      -8.1      2.272      2.855
REMARK  Name = 
REMARK  10 active torsions:
REMARK  status: ('A' for Active; 'I' for Inactive)
REMARK    1  A    between atoms: C_1  and  C_2
REMARK    2  A    between atoms: C_2  and  C_3
REMARK    3  A    between atoms: C_2  and  O_4
REMARK    4  A    between atoms: O_4  and  C_5
REMARK    5  A    between atoms: C_8  and  C_9
REMARK    6  A    between atoms: N_12  and  C_13
REMARK    7  A    between atoms: C_13  and  C_14
REMARK    8  A    between atoms: C_17  and  N_18
REMARK    9  A    between atoms: C_26  and  N_27
REMARK   10  A    between atoms: C_28  and  C_30
REMARK                            x       y       z     vdW  Elec       q    Type
REMARK                         _______ _______ _______ _____ _____    ______ ____
ROOT
ATOM      1  C   UNL     1       2.105   5.502  19.875  0.00  0.00    +0.000 A 
ATOM      2  C   UNL     1       1.410   6.209  20.865  0.00  0.00    +0.000 A 
ATOM      3  C   UNL     1       1.276   7.602  20.811  0.00  0.00    +0.000 A 
ATOM      4  C   UNL     1       1.816   8.335  19.753  0.00  0.00    +0.000 A 
ATOM      5  C   UNL     1       2.462   7.610  18.747  0.00  0.00    +0.000 A 
ATOM      6  C   UNL     1       2.677   6.224  18.811  0.00  0.00    +0.000 A 
ENDROOT
BRANCH   4   7
ATOM      7  C   UNL     1       1.675   9.856  19.707  0.00  0.00    +0.000 C 
ATOM      8  C   UNL     1       0.535  10.475  20.539  0.00  0.00    +0.000 C 
ATOM      9  C   UNL     1      -0.857  10.213  19.947  0.00  0.00    +0.000 C 
ATOM     10  N   UNL     1      -0.992  10.575  18.525  0.00  0.00    +0.000 NA
ATOM     11  C   UNL     1       0.126  10.069  17.708  0.00  0.00    +0.000 C 
ATOM     12  C   UNL     1       1.509  10.394  18.277  0.00  0.00    +0.000 C 
BRANCH  10  13
ATOM     13  C   UNL     1      -2.248  10.002  17.980  0.00  0.00    +0.000 C 
BRANCH  13  14
ATOM     14  C   UNL     1      -3.467  10.896  18.103  0.00  0.00    +0.000 A 
ATOM     15  C   UNL     1      -3.563  11.830  19.144  0.00  0.00    +0.000 A 
ATOM     16  C   UNL     1      -4.660  12.692  19.228  0.00  0.00    +0.000 A 
ATOM     17  C   UNL     1      -5.668  12.622  18.258  0.00  0.00    +0.000 A 
ATOM     18  C   UNL     1      -5.595  11.685  17.220  0.00  0.00    +0.000 A 
ATOM     19  C   UNL     1      -4.498  10.825  17.149  0.00  0.00    +0.000 A 
BRANCH  17  20
ATOM     20  N   UNL     1      -6.804  13.547  18.324  0.00  0.00    +0.000 N 
ATOM     21  O   UNL     1      -6.809  14.514  17.547  0.00  0.00    +0.000 OA
ATOM     22  O   UNL     1      -7.700  13.307  19.146  0.00  0.00    +0.000 OA
ENDBRANCH  17  20
ENDBRANCH  13  14
ENDBRANCH  10  13
ENDBRANCH   4   7
BRANCH   6  23
ATOM     23  N   UNL     1       3.384   5.570  17.762  0.00  0.00    +0.000 N 
ATOM     24  C   UNL     1       4.736   5.223  17.815  0.00  0.00    +0.000 C 
ATOM     25  O   UNL     1       5.403   5.132  18.847  0.00  0.00    +0.000 OA
ATOM     26  H   UNL     1       2.824   5.335  16.956  0.00  0.00    +0.000 HD
BRANCH  24  27
ATOM     27  C   UNL     1       5.451   4.980  16.530  0.00  0.00    +0.000 A 
ATOM     28  C   UNL     1       6.787   5.421  16.436  0.00  0.00    +0.000 A 
ATOM     29  C   UNL     1       7.505   5.281  15.246  0.00  0.00    +0.000 A 
ATOM     30  C   UNL     1       6.896   4.687  14.141  0.00  0.00    +0.000 A 
ATOM     31  C   UNL     1       5.583   4.224  14.234  0.00  0.00    +0.000 A 
ATOM     32  C   UNL     1       4.859   4.366  15.422  0.00  0.00    +0.000 A 
ENDBRANCH  24  27
ENDBRANCH   6  23
BRANCH   1  33
ATOM     33  O   UNL     1       2.306   4.141  19.928  0.00  0.00    +0.000 OA
BRANCH  33  35
ATOM     34  C   UNL     1       0.913   2.345  19.202  0.00  0.00    +0.000 C 
ATOM     35  C   UNL     1       1.189   3.327  20.341  0.00  0.00    +0.000 C 
ATOM     36  C   UNL     1       1.480   2.517  21.610  0.00  0.00    +0.000 C 
ENDBRANCH  33  35
ENDBRANCH   1  33
TORSDOF 8
ENDMDL
MODEL 8
REMARK VINA RESULT:      -7.8      3.920      7.093
REMARK  Name = 
REMARK  10 active torsions:
REMARK  status: ('A' for Active; 'I' for Inactive)
REMARK    1  A    between atoms: C_1  and  C_2
REMARK    2  A    between atoms: C_2  and  C_3
REMARK    3  A    between atoms: C_2  and  O_4
REMARK    4  A    between atoms: O_4  and  C_5
REMARK    5  A    between atoms: C_8  and  C_9
REMARK    6  A    between atoms: N_12  and  C_13
REMARK    7  A    between atoms: C_13  and  C_14
REMARK    8  A    between atoms: C_17  and  N_18
REMARK    9  A    between atoms: C_26  and  N_27
REMARK   10  A    between atoms: C_28  and  C_30
REMARK                            x       y       z     vdW  Elec       q    Type
REMARK                         _______ _______ _______ _____ _____    ______ ____
ROOT
ATOM      1  C   UNL     1       0.858  13.271  21.308  0.00  0.00    +0.000 A 
ATOM      2  C   UNL     1       0.590  14.449  22.017  0.00  0.00    +0.000 A 
ATOM      3  C   UNL     1      -0.546  14.572  22.828  0.00  0.00    +0.000 A 
ATOM      4  C   UNL     1      -1.444  13.513  22.972  0.00  0.00    +0.000 A 
ATOM      5  C   UNL     1      -1.135  12.327  22.298  0.00  0.00    +0.000 A 
ATOM      6  C   UNL     1      -0.046  12.199  21.421  0.00  0.00    +0.000 A 
ENDROOT
BRANCH   4   7
ATOM      7  C   UNL     1      -2.687  13.659  23.849  0.00  0.00    +0.000 C 
ATOM      8  C   UNL     1      -3.723  12.521  23.783  0.00  0.00    +0.000 C 
ATOM      9  C   UNL     1      -4.514  12.499  22.466  0.00  0.00    +0.000 C 
ATOM     10  N   UNL     1      -5.130  13.787  22.104  0.00  0.00    +0.000 NA
ATOM     11  C   UNL     1      -4.188  14.915  22.235  0.00  0.00    +0.000 C 
ATOM     12  C   UNL     1      -3.455  14.961  23.577  0.00  0.00    +0.000 C 
BRANCH  10  13
ATOM     13  C   UNL     1      -5.592  13.743  20.695  0.00  0.00    +0.000 C 
BRANCH  13  14
ATOM     14  C   UNL     1      -4.840  12.773  19.804  0.00  0.00    +0.000 A 
ATOM     15  C   UNL     1      -5.536  11.876  18.982  0.00  0.00    +0.000 A 
ATOM     16  C   UNL     1      -4.845  11.019  18.120  0.00  0.00    +0.000 A 
ATOM     17  C   UNL     1      -3.446  11.064  18.077  0.00  0.00    +0.000 A 
ATOM     18  C   UNL     1      -2.735  11.944  18.902  0.00  0.00    +0.000 A 
ATOM     19  C   UNL     1      -3.434  12.791  19.764  0.00  0.00    +0.000 A 
BRANCH  17  20
ATOM     20  N   UNL     1      -2.719  10.190  17.150  0.00  0.00    +0.000 N 
ATOM     21  O   UNL     1      -1.511  10.000  17.360  0.00  0.00    +0.000 OA
ATOM     22  O   UNL     1      -3.353   9.684  16.213  0.00  0.00    +0.000 OA
ENDBRANCH  17  20
ENDBRANCH  13  14
ENDBRANCH  10  13
ENDBRANCH   4   7
BRANCH   6  23
ATOM     23  N   UNL     1       0.171  10.967  20.739  0.00  0.00    +0.000 N 
ATOM     24  C   UNL     1       0.915   9.901  21.247  0.00  0.00    +0.000 C 
ATOM     25  O   UNL     1       1.202   9.740  22.434  0.00  0.00    +0.000 OA
ATOM     26  H   UNL     1      -0.287  10.894  19.842  0.00  0.00    +0.000 HD
BRANCH  24  27
ATOM     27  C   UNL     1       1.444   8.891  20.286  0.00  0.00    +0.000 A 
ATOM     28  C   UNL     1       1.551   9.275  18.934  0.00  0.00    +0.000 A 
ATOM     29  C   UNL     1       1.983   8.366  17.965  0.00  0.00    +0.000 A 
ATOM     30  C   UNL     1       2.322   7.067  18.342  0.00  0.00    +0.000 A 
ATOM     31  C   UNL     1       2.244   6.688  19.682  0.00  0.00    +0.000 A 
ATOM     32  C   UNL     1       1.809   7.593  20.655  0.00  0.00    +0.000 A 
ENDBRANCH  24  27
ENDBRANCH   6  23
BRANCH   1  33
ATOM     33  O   UNL     1       1.932  13.138  20.457  0.00  0.00    +0.000 OA
BRANCH  33  35
ATOM     34  C   UNL     1       2.645  12.994  18.184  0.00  0.00    +0.000 C 
ATOM     35  C   UNL     1       1.862  13.833  19.196  0.00  0.00    +0.000 C 
ATOM     36  C   UNL     1       0.427  13.988  18.679  0.00  0.00    +0.000 C 
ENDBRANCH  33  35
ENDBRANCH   1  33
TORSDOF 8
ENDMDL
MODEL 9
REMARK VINA RESULT:      -7.7      0.910      1.106
REMARK  Name = 
REMARK  10 active torsions:
REMARK  status: ('A' for Active; 'I' for Inactive)
REMARK    1  A    between atoms: C_1  and  C_2
REMARK    2  A    between atoms: C_2  and  C_3
REMARK    3  A    between atoms: C_2  and  O_4
REMARK    4  A    between atoms: O_4  and  C_5
REMARK    5  A    between atoms: C_8  and  C_9
REMARK    6  A    between atoms: N_12  and  C_13
REMARK    7  A    between atoms: C_13  and  C_14
REMARK    8  A    between atoms: C_17  and  N_18
REMARK    9  A    between atoms: C_26  and  N_27
REMARK   10  A    between atoms: C_28  and  C_30
REMARK                            x       y       z     vdW  Elec       q    Type
REMARK                         _______ _______ _______ _____ _____    ______ ____
ROOT
ATOM      1  C   UNL     1       2.265   6.594  20.009  0.00  0.00    +0.000 A 
ATOM      2  C   UNL     1       1.553   7.554  20.740  0.00  0.00    +0.000 A 
ATOM      3  C   UNL     1       1.136   8.757  20.156  0.00  0.00    +0.000 A 
ATOM      4  C   UNL     1       1.400   9.032  18.813  0.00  0.00    +0.000 A 
ATOM      5  C   UNL     1       2.065   8.042  18.084  0.00  0.00    +0.000 A 
ATOM      6  C   UNL     1       2.561   6.861  18.660  0.00  0.00    +0.000 A 
ENDROOT
BRANCH   4   7
ATOM      7  C   UNL     1       0.950  10.352  18.185  0.00  0.00    +0.000 C 
ATOM      8  C   UNL     1       1.724  11.618  18.598  0.00  0.00    +0.000 C 
ATOM      9  C   UNL     1       1.426  12.068  20.036  0.00  0.00    +0.000 C 
ATOM     10  N   UNL     1      -0.008  12.208  20.345  0.00  0.00    +0.000 NA
ATOM     11  C   UNL     1      -0.796  11.048  19.889  0.00  0.00    +0.000 C 
ATOM     12  C   UNL     1      -0.536  10.652  18.435  0.00  0.00    +0.000 C 
BRANCH  10  13
ATOM     13  C   UNL     1      -0.193  12.335  21.812  0.00  0.00    +0.000 C 
BRANCH  13  14
ATOM     14  C   UNL     1      -1.625  12.552  22.261  0.00  0.00    +0.000 A 
ATOM     15  C   UNL     1      -2.157  11.812  23.327  0.00  0.00    +0.000 A 
ATOM     16  C   UNL     1      -3.459  12.048  23.777  0.00  0.00    +0.000 A 
ATOM     17  C   UNL     1      -4.234  13.037  23.158  0.00  0.00    +0.000 A 
ATOM     18  C   UNL     1      -3.724  13.775  22.083  0.00  0.00    +0.000 A 
ATOM     19  C   UNL     1      -2.424  13.527  21.637  0.00  0.00    +0.000 A 
BRANCH  17  20
ATOM     20  N   UNL     1      -5.589  13.310  23.649  0.00  0.00    +0.000 N 
ATOM     21  O   UNL     1      -6.255  12.354  24.074  0.00  0.00    +0.000 OA
ATOM     22  O   UNL     1      -5.990  14.483  23.619  0.00  0.00    +0.000 OA
ENDBRANCH  17  20
ENDBRANCH  13  14
ENDBRANCH  10  13
ENDBRANCH   4   7
BRANCH   6  23
ATOM     23  N   UNL     1       3.268   5.925  17.853  0.00  0.00    +0.000 N 
ATOM     24  C   UNL     1       4.644   5.958  17.623  0.00  0.00    +0.000 C 
ATOM     25  O   UNL     1       5.463   6.567  18.314  0.00  0.00    +0.000 OA
ATOM     26  H   UNL     1       2.698   5.188  17.462  0.00  0.00    +0.000 HD
BRANCH  24  27
ATOM     27  C   UNL     1       5.177   5.237  16.432  0.00  0.00    +0.000 A 
ATOM     28  C   UNL     1       5.518   6.011  15.303  0.00  0.00    +0.000 A 
ATOM     29  C   UNL     1       5.969   5.403  14.129  0.00  0.00    +0.000 A 
ATOM     30  C   UNL     1       6.094   4.015  14.077  0.00  0.00    +0.000 A 
ATOM     31  C   UNL     1       5.783   3.244  15.198  0.00  0.00    +0.000 A 
ATOM     32  C   UNL     1       5.328   3.849  16.374  0.00  0.00    +0.000 A 
ENDBRANCH  24  27
ENDBRANCH   6  23
BRANCH   1  33
ATOM     33  O   UNL     1       2.741   5.429  20.567  0.00  0.00    +0.000 OA
BRANCH  33  35
ATOM     34  C   UNL     1       3.374   3.154  20.228  0.00  0.00    +0.000 C 
ATOM     35  C   UNL     1       2.271   4.189  20.001  0.00  0.00    +0.000 C 
ATOM     36  C   UNL     1       0.990   3.676  20.670  0.00  0.00    +0.000 C 
ENDBRANCH  33  35
ENDBRANCH   1  33
TORSDOF 8
ENDMDL
