MODEL 1
REMARK VINA RESULT:      -7.8      0.000      0.000
REMARK  Name = 
REMARK  7 active torsions:
REMARK  status: ('A' for Active; 'I' for Inactive)
REMARK    1  A    between atoms: C_1  and  N_2
REMARK    2  A    between atoms: N_8  and  C_9
REMARK    3  A    between atoms: C_9  and  C_10
REMARK    4  A    between atoms: C_10  and  C_11
REMARK    5  A    between atoms: C_11  and  C_12
REMARK    6  A    between atoms: C_12  and  N_13
REMARK    7  A    between atoms: C_16  and  C_17
REMARK                            x       y       z     vdW  Elec       q    Type
REMARK                         _______ _______ _______ _____ _____    ______ ____
ROOT
ATOM      1  C   UNL     1       1.403   9.274  18.974  0.00  0.00    +0.000 C 
ATOM      2  N   UNL     1       2.281   8.171  18.677  0.00  0.00    +0.000 N 
ATOM      3  C   UNL     1       3.057   8.048  17.556  0.00  0.00    +0.000 A 
ATOM      4  C   UNL     1       3.671   6.844  17.717  0.00  0.00    +0.000 A 
ATOM      5  C   UNL     1       3.233   6.310  18.927  0.00  0.00    +0.000 A 
ATOM      6  N   UNL     1       3.642   5.058  19.429  0.00  0.00    +0.000 NA
ATOM      7  C   UNL     1       4.482   4.365  18.681  0.00  0.00    +0.000 A 
ATOM      8  N   UNL     1       4.970   3.130  19.093  0.00  0.00    +0.000 N 
ATOM      9  N   UNL     1       4.942   4.859  17.418  0.00  0.00    +0.000 N 
ATOM     10  N   UNL     1       5.734   4.202  16.535  0.00  0.00    +0.000 NA
ATOM     11  C   UNL     1       5.837   5.120  15.549  0.00  0.00    +0.000 A 
ATOM     12  N   UNL     1       5.147   6.300  15.765  0.00  0.00    +0.000 NA
ATOM     13  C   UNL     1       4.589   6.074  16.914  0.00  0.00    +0.000 A 
ATOM     14  N   UNL     1       2.374   7.121  19.537  0.00  0.00    +0.000 NA
ATOM     15  H   UNL     1       5.575   2.651  18.429  0.00  0.00    +0.000 HD
ENDROOT
BRANCH  11  16
ATOM     16  C   UNL     1       6.610   4.930  14.284  0.00  0.00    +0.000 A 
ATOM     17  C   UNL     1       6.283   4.027  13.284  0.00  0.00    +0.000 A 
ATOM     18  C   UNL     1       7.257   4.175  12.263  0.00  0.00    +0.000 A 
ATOM     19  C   UNL     1       8.125   5.140  12.716  0.00  0.00    +0.000 A 
ATOM     20  O   UNL     1       7.742   5.609  13.926  0.00  0.00    +0.000 OA
ENDBRANCH  11  16
BRANCH   8  21
ATOM     21  C   UNL     1       4.241   2.274  20.019  0.00  0.00    +0.000 C 
BRANCH  21  22
ATOM     22  C   UNL     1       3.158   1.468  19.305  0.00  0.00    +0.000 C 
BRANCH  22  23
ATOM     23  C   UNL     1       1.769   2.101  19.468  0.00  0.00    +0.000 C 
BRANCH  23  24
ATOM     24  C   UNL     1       1.523   2.676  20.862  0.00  0.00    +0.000 C 
BRANCH  24  25
ATOM     25  N   UNL     1       1.210   4.098  20.815  0.00  0.00    +0.000 NA
ATOM     26  H   UNL     1       1.580   4.555  21.647  0.00  0.00    +0.000 HD
ATOM     27  H   UNL     1       0.198   4.223  20.850  0.00  0.00    +0.000 HD
ENDBRANCH  24  25
ENDBRANCH  23  24
ENDBRANCH  22  23
ENDBRANCH  21  22
ENDBRANCH   8  21
TORSDOF 6
ENDMDL
MODEL 2
REMARK VINA RESULT:      -7.7      3.827      7.626
REMARK  Name = 
REMARK  7 active torsions:
REMARK  status: ('A' for Active; 'I' for Inactive)
REMARK    1  A    between atoms: C_1  and  N_2
REMARK    2  A    between atoms: N_8  and  C_9
REMARK    3  A    between atoms: C_9  and  C_10
REMARK    4  A    between atoms: C_10  and  C_11
REMARK    5  A    between atoms: C_11  and  C_12
REMARK    6  A    between atoms: C_12  and  N_13
REMARK    7  A    between atoms: C_16  and  C_17
REMARK                            x       y       z     vdW  Elec       q    Type
REMARK                         _______ _______ _______ _____ _____    ______ ____
ROOT
ATOM      1  C   UNL     1       6.495   3.500  12.188  0.00  0.00    +0.000 C 
ATOM      2  N   UNL     1       6.450   4.006  13.536  0.00  0.00    +0.000 N 
ATOM      3  C   UNL     1       5.656   3.527  14.543  0.00  0.00    +0.000 A 
ATOM      4  C   UNL     1       5.945   4.337  15.597  0.00  0.00    +0.000 A 
ATOM      5  C   UNL     1       6.898   5.258  15.168  0.00  0.00    +0.000 A 
ATOM      6  N   UNL     1       7.434   6.275  15.985  0.00  0.00    +0.000 NA
ATOM      7  C   UNL     1       6.977   6.344  17.223  0.00  0.00    +0.000 A 
ATOM      8  N   UNL     1       7.457   7.291  18.120  0.00  0.00    +0.000 N 
ATOM      9  N   UNL     1       5.979   5.436  17.703  0.00  0.00    +0.000 N 
ATOM     10  N   UNL     1       5.383   5.466  18.921  0.00  0.00    +0.000 NA
ATOM     11  C   UNL     1       4.547   4.408  18.823  0.00  0.00    +0.000 A 
ATOM     12  N   UNL     1       4.585   3.734  17.616  0.00  0.00    +0.000 NA
ATOM     13  C   UNL     1       5.459   4.426  16.953  0.00  0.00    +0.000 A 
ATOM     14  N   UNL     1       7.226   5.065  13.895  0.00  0.00    +0.000 NA
ATOM     15  H   UNL     1       7.012   7.296  19.036  0.00  0.00    +0.000 HD
ENDROOT
BRANCH  11  16
ATOM     16  C   UNL     1       3.613   3.957  19.900  0.00  0.00    +0.000 A 
ATOM     17  C   UNL     1       3.493   2.651  20.349  0.00  0.00    +0.000 A 
ATOM     18  C   UNL     1       2.516   2.659  21.377  0.00  0.00    +0.000 A 
ATOM     19  C   UNL     1       2.089   3.962  21.473  0.00  0.00    +0.000 A 
ATOM     20  O   UNL     1       2.748   4.756  20.597  0.00  0.00    +0.000 OA
ENDBRANCH  11  16
BRANCH   8  21
ATOM     21  C   UNL     1       8.025   8.559  17.684  0.00  0.00    +0.000 C 
BRANCH  21  22
ATOM     22  C   UNL     1       8.861   9.208  18.786  0.00  0.00    +0.000 C 
BRANCH  22  23
ATOM     23  C   UNL     1       8.937  10.733  18.626  0.00  0.00    +0.000 C 
BRANCH  23  24
ATOM     24  C   UNL     1      10.354  11.289  18.760  0.00  0.00    +0.000 C 
BRANCH  24  25
ATOM     25  N   UNL     1      11.057  11.294  17.483  0.00  0.00    +0.000 NA
ATOM     26  H   UNL     1      10.905  12.187  17.015  0.00  0.00    +0.000 HD
ATOM     27  H   UNL     1      10.656  10.583  16.872  0.00  0.00    +0.000 HD
ENDBRANCH  24  25
ENDBRANCH  23  24
ENDBRANCH  22  23
ENDBRANCH  21  22
ENDBRANCH   8  21
TORSDOF 6
ENDMDL
MODEL 3
REMARK VINA RESULT:      -7.6      3.858      7.441
REMARK  Name = 
REMARK  7 active torsions:
REMARK  status: ('A' for Active; 'I' for Inactive)
REMARK    1  A    between atoms: C_1  and  N_2
REMARK    2  A    between atoms: N_8  and  C_9
REMARK    3  A    between atoms: C_9  and  C_10
REMARK    4  A    between atoms: C_10  and  C_11
REMARK    5  A    between atoms: C_11  and  C_12
REMARK    6  A    between atoms: C_12  and  N_13
REMARK    7  A    between atoms: C_16  and  C_17
REMARK                            x       y       z     vdW  Elec       q    Type
REMARK                         _______ _______ _______ _____ _____    ______ ____
ROOT
ATOM      1  C   UNL     1       6.682   3.508  11.994  0.00  0.00    +0.000 C 
ATOM      2  N   UNL     1       6.528   4.032  13.327  0.00  0.00    +0.000 N 
ATOM      3  C   UNL     1       5.557   3.668  14.221  0.00  0.00    +0.000 A 
ATOM      4  C   UNL     1       5.807   4.447  15.307  0.00  0.00    +0.000 A 
ATOM      5  C   UNL     1       6.917   5.236  15.009  0.00  0.00    +0.000 A 
ATOM      6  N   UNL     1       7.466   6.187  15.893  0.00  0.00    +0.000 NA
ATOM      7  C   UNL     1       6.867   6.327  17.062  0.00  0.00    +0.000 A 
ATOM      8  N   UNL     1       7.342   7.217  18.018  0.00  0.00    +0.000 N 
ATOM      9  N   UNL     1       5.709   5.558  17.405  0.00  0.00    +0.000 N 
ATOM     10  N   UNL     1       4.969   5.677  18.536  0.00  0.00    +0.000 NA
ATOM     11  C   UNL     1       4.026   4.731  18.325  0.00  0.00    +0.000 A 
ATOM     12  N   UNL     1       4.133   4.043  17.130  0.00  0.00    +0.000 NA
ATOM     13  C   UNL     1       5.167   4.612  16.589  0.00  0.00    +0.000 A 
ATOM     14  N   UNL     1       7.379   4.989  13.788  0.00  0.00    +0.000 NA
ATOM     15  H   UNL     1       6.787   7.289  18.869  0.00  0.00    +0.000 HD
ENDROOT
BRANCH  11  16
ATOM     16  C   UNL     1       2.911   4.414  19.270  0.00  0.00    +0.000 A 
ATOM     17  C   UNL     1       1.637   4.024  18.889  0.00  0.00    +0.000 A 
ATOM     18  C   UNL     1       0.900   3.809  20.082  0.00  0.00    +0.000 A 
ATOM     19  C   UNL     1       1.764   4.103  21.110  0.00  0.00    +0.000 A 
ATOM     20  O   UNL     1       2.981   4.459  20.636  0.00  0.00    +0.000 OA
ENDBRANCH  11  16
BRANCH   8  21
ATOM     21  C   UNL     1       8.118   8.398  17.665  0.00  0.00    +0.000 C 
BRANCH  21  22
ATOM     22  C   UNL     1       8.713   9.069  18.902  0.00  0.00    +0.000 C 
BRANCH  22  23
ATOM     23  C   UNL     1       9.046  10.546  18.650  0.00  0.00    +0.000 C 
BRANCH  23  24
ATOM     24  C   UNL     1      10.165  11.078  19.542  0.00  0.00    +0.000 C 
BRANCH  24  25
ATOM     25  N   UNL     1       9.756  11.156  20.939  0.00  0.00    +0.000 NA
ATOM     26  H   UNL     1       8.741  11.082  21.000  0.00  0.00    +0.000 HD
ATOM     27  H   UNL     1       9.994  12.076  21.310  0.00  0.00    +0.000 HD
ENDBRANCH  24  25
ENDBRANCH  23  24
ENDBRANCH  22  23
ENDBRANCH  21  22
ENDBRANCH   8  21
TORSDOF 6
ENDMDL
MODEL 4
REMARK VINA RESULT:      -7.5      1.547      2.167
REMARK  Name = 
REMARK  7 active torsions:
REMARK  status: ('A' for Active; 'I' for Inactive)
REMARK    1  A    between atoms: C_1  and  N_2
REMARK    2  A    between atoms: N_8  and  C_9
REMARK    3  A    between atoms: C_9  and  C_10
REMARK    4  A    between atoms: C_10  and  C_11
REMARK    5  A    between atoms: C_11  and  C_12
REMARK    6  A    between atoms: C_12  and  N_13
REMARK    7  A    between atoms: C_16  and  C_17
REMARK                            x       y       z     vdW  Elec       q    Type
REMARK                         _______ _______ _______ _____ _____    ______ ____
ROOT
ATOM      1  C   UNL     1       0.608  11.051  18.757  0.00  0.00    +0.000 C 
ATOM      2  N   UNL     1       1.327   9.803  18.791  0.00  0.00    +0.000 N 
ATOM      3  C   UNL     1       2.204   9.361  17.837  0.00  0.00    +0.000 A 
ATOM      4  C   UNL     1       2.593   8.140  18.295  0.00  0.00    +0.000 A 
ATOM      5  C   UNL     1       1.931   7.915  19.500  0.00  0.00    +0.000 A 
ATOM      6  N   UNL     1       2.071   6.741  20.268  0.00  0.00    +0.000 NA
ATOM      7  C   UNL     1       2.873   5.809  19.786  0.00  0.00    +0.000 A 
ATOM      8  N   UNL     1       3.103   4.624  20.475  0.00  0.00    +0.000 N 
ATOM      9  N   UNL     1       3.556   5.982  18.539  0.00  0.00    +0.000 N 
ATOM     10  N   UNL     1       4.335   5.065  17.913  0.00  0.00    +0.000 NA
ATOM     11  C   UNL     1       4.702   5.752  16.807  0.00  0.00    +0.000 A 
ATOM     12  N   UNL     1       4.189   7.033  16.709  0.00  0.00    +0.000 NA
ATOM     13  C   UNL     1       3.467   7.112  17.785  0.00  0.00    +0.000 A 
ATOM     14  N   UNL     1       1.146   8.937  19.825  0.00  0.00    +0.000 NA
ATOM     15  H   UNL     1       3.700   3.948  20.002  0.00  0.00    +0.000 HD
ENDROOT
BRANCH  11  16
ATOM     16  C   UNL     1       5.582   5.216  15.725  0.00  0.00    +0.000 A 
ATOM     17  C   UNL     1       5.240   4.189  14.861  0.00  0.00    +0.000 A 
ATOM     18  C   UNL     1       6.341   4.003  13.986  0.00  0.00    +0.000 A 
ATOM     19  C   UNL     1       7.290   4.912  14.388  0.00  0.00    +0.000 A 
ATOM     20  O   UNL     1       6.844   5.655  15.426  0.00  0.00    +0.000 OA
ENDBRANCH  11  16
BRANCH   8  21
ATOM     21  C   UNL     1       2.140   4.071  21.416  0.00  0.00    +0.000 C 
BRANCH  21  22
ATOM     22  C   UNL     1       1.595   2.726  20.937  0.00  0.00    +0.000 C 
BRANCH  22  23
ATOM     23  C   UNL     1       0.787   2.864  19.639  0.00  0.00    +0.000 C 
BRANCH  23  24
ATOM     24  C   UNL     1       1.586   2.514  18.385  0.00  0.00    +0.000 C 
BRANCH  24  25
ATOM     25  N   UNL     1       2.938   2.076  18.708  0.00  0.00    +0.000 NA
ATOM     26  H   UNL     1       3.482   2.869  19.044  0.00  0.00    +0.000 HD
ATOM     27  H   UNL     1       3.402   1.755  17.858  0.00  0.00    +0.000 HD
ENDBRANCH  24  25
ENDBRANCH  23  24
ENDBRANCH  22  23
ENDBRANCH  21  22
ENDBRANCH   8  21
TORSDOF 6
ENDMDL
MODEL 5
REMARK VINA RESULT:      -7.1      3.561      7.258
REMARK  Name = 
REMARK  7 active torsions:
REMARK  status: ('A' for Active; 'I' for Inactive)
REMARK    1  A    between atoms: C_1  and  N_2
REMARK    2  A    between atoms: N_8  and  C_9
REMARK    3  A    between atoms: C_9  and  C_10
REMARK    4  A    between atoms: C_10  and  C_11
REMARK    5  A    between atoms: C_11  and  C_12
REMARK    6  A    between atoms: C_12  and  N_13
REMARK    7  A    between atoms: C_16  and  C_17
REMARK                            x       y       z     vdW  Elec       q    Type
REMARK                         _______ _______ _______ _____ _____    ______ ____
ROOT
ATOM      1  C   UNL     1       6.887   4.147  11.955  0.00  0.00    +0.000 C 
ATOM      2  N   UNL     1       6.716   4.379  13.366  0.00  0.00    +0.000 N 
ATOM      3  C   UNL     1       5.684   3.909  14.134  0.00  0.00    +0.000 A 
ATOM      4  C   UNL     1       5.945   4.411  15.371  0.00  0.00    +0.000 A 
ATOM      5  C   UNL     1       7.121   5.153  15.281  0.00  0.00    +0.000 A 
ATOM      6  N   UNL     1       7.702   5.841  16.366  0.00  0.00    +0.000 NA
ATOM      7  C   UNL     1       7.066   5.772  17.522  0.00  0.00    +0.000 A 
ATOM      8  N   UNL     1       7.565   6.392  18.662  0.00  0.00    +0.000 N 
ATOM      9  N   UNL     1       5.841   5.044  17.658  0.00  0.00    +0.000 N 
ATOM     10  N   UNL     1       5.065   4.974  18.769  0.00  0.00    +0.000 NA
ATOM     11  C   UNL     1       4.064   4.176  18.332  0.00  0.00    +0.000 A 
ATOM     12  N   UNL     1       4.171   3.758  17.017  0.00  0.00    +0.000 NA
ATOM     13  C   UNL     1       5.265   4.346  16.641  0.00  0.00    +0.000 A 
ATOM     14  N   UNL     1       7.615   5.140  14.048  0.00  0.00    +0.000 NA
ATOM     15  H   UNL     1       6.982   6.322  19.493  0.00  0.00    +0.000 HD
ENDROOT
BRANCH  11  16
ATOM     16  C   UNL     1       2.891   3.753  19.156  0.00  0.00    +0.000 A 
ATOM     17  C   UNL     1       2.937   2.819  20.179  0.00  0.00    +0.000 A 
ATOM     18  C   UNL     1       1.623   2.722  20.706  0.00  0.00    +0.000 A 
ATOM     19  C   UNL     1       0.859   3.584  19.956  0.00  0.00    +0.000 A 
ATOM     20  O   UNL     1       1.610   4.217  19.026  0.00  0.00    +0.000 OA
ENDBRANCH  11  16
BRANCH   8  21
ATOM     21  C   UNL     1       8.439   7.554  18.597  0.00  0.00    +0.000 C 
BRANCH  21  22
ATOM     22  C   UNL     1       7.735   8.752  17.962  0.00  0.00    +0.000 C 
BRANCH  22  23
ATOM     23  C   UNL     1       8.666   9.967  17.841  0.00  0.00    +0.000 C 
BRANCH  23  24
ATOM     24  C   UNL     1       8.943  10.657  19.176  0.00  0.00    +0.000 C 
BRANCH  24  25
ATOM     25  N   UNL     1      10.355  10.978  19.338  0.00  0.00    +0.000 NA
ATOM     26  H   UNL     1      10.753  11.230  18.434  0.00  0.00    +0.000 HD
ATOM     27  H   UNL     1      10.858  10.145  19.646  0.00  0.00    +0.000 HD
ENDBRANCH  24  25
ENDBRANCH  23  24
ENDBRANCH  22  23
ENDBRANCH  21  22
ENDBRANCH   8  21
TORSDOF 6
ENDMDL
MODEL 6
REMARK VINA RESULT:      -7.0      2.479      5.944
REMARK  Name = 
REMARK  7 active torsions:
REMARK  status: ('A' for Active; 'I' for Inactive)
REMARK    1  A    between atoms: C_1  and  N_2
REMARK    2  A    between atoms: N_8  and  C_9
REMARK    3  A    between atoms: C_9  and  C_10
REMARK    4  A    between atoms: C_10  and  C_11
REMARK    5  A    between atoms: C_11  and  C_12
REMARK    6  A    between atoms: C_12  and  N_13
REMARK    7  A    between atoms: C_16  and  C_17
REMARK                            x       y       z     vdW  Elec       q    Type
REMARK                         _______ _______ _______ _____ _____    ______ ____
ROOT
ATOM      1  C   UNL     1       6.909   5.043  15.435  0.00  0.00    +0.000 C 
ATOM      2  N   UNL     1       5.819   5.413  16.302  0.00  0.00    +0.000 N 
ATOM      3  C   UNL     1       5.148   6.606  16.278  0.00  0.00    +0.000 A 
ATOM      4  C   UNL     1       4.244   6.490  17.288  0.00  0.00    +0.000 A 
ATOM      5  C   UNL     1       4.418   5.233  17.863  0.00  0.00    +0.000 A 
ATOM      6  N   UNL     1       3.666   4.756  18.956  0.00  0.00    +0.000 NA
ATOM      7  C   UNL     1       2.758   5.576  19.454  0.00  0.00    +0.000 A 
ATOM      8  N   UNL     1       1.943   5.196  20.515  0.00  0.00    +0.000 N 
ATOM      9  N   UNL     1       2.558   6.887  18.914  0.00  0.00    +0.000 N 
ATOM     10  N   UNL     1       1.716   7.836  19.395  0.00  0.00    +0.000 NA
ATOM     11  C   UNL     1       1.940   8.843  18.520  0.00  0.00    +0.000 A 
ATOM     12  N   UNL     1       2.875   8.576  17.536  0.00  0.00    +0.000 NA
ATOM     13  C   UNL     1       3.246   7.371  17.844  0.00  0.00    +0.000 A 
ATOM     14  N   UNL     1       5.387   4.550  17.262  0.00  0.00    +0.000 NA
ATOM     15  H   UNL     1       1.305   5.912  20.859  0.00  0.00    +0.000 HD
ENDROOT
BRANCH  11  16
ATOM     16  C   UNL     1       1.269  10.178  18.568  0.00  0.00    +0.000 A 
ATOM     17  C   UNL     1      -0.102  10.374  18.625  0.00  0.00    +0.000 A 
ATOM     18  C   UNL     1      -0.314  11.776  18.671  0.00  0.00    +0.000 A 
ATOM     19  C   UNL     1       0.937  12.342  18.617  0.00  0.00    +0.000 A 
ATOM     20  O   UNL     1       1.899  11.392  18.564  0.00  0.00    +0.000 OA
ENDBRANCH  11  16
BRANCH   8  21
ATOM     21  C   UNL     1       2.346   4.186  21.484  0.00  0.00    +0.000 C 
BRANCH  21  22
ATOM     22  C   UNL     1       1.861   2.795  21.080  0.00  0.00    +0.000 C 
BRANCH  22  23
ATOM     23  C   UNL     1       0.635   2.860  20.157  0.00  0.00    +0.000 C 
BRANCH  23  24
ATOM     24  C   UNL     1       0.918   2.374  18.736  0.00  0.00    +0.000 C 
BRANCH  24  25
ATOM     25  N   UNL     1       2.254   1.807  18.612  0.00  0.00    +0.000 NA
ATOM     26  H   UNL     1       2.946   2.554  18.654  0.00  0.00    +0.000 HD
ATOM     27  H   UNL     1       2.356   1.378  17.692  0.00  0.00    +0.000 HD
ENDBRANCH  24  25
ENDBRANCH  23  24
ENDBRANCH  22  23
ENDBRANCH  21  22
ENDBRANCH   8  21
TORSDOF 6
ENDMDL
MODEL 7
REMARK VINA RESULT:      -6.7      2.984      6.755
REMARK  Name = 
REMARK  7 active torsions:
REMARK  status: ('A' for Active; 'I' for Inactive)
REMARK    1  A    between atoms: C_1  and  N_2
REMARK    2  A    between atoms: N_8  and  C_9
REMARK    3  A    between atoms: C_9  and  C_10
REMARK    4  A    between atoms: C_10  and  C_11
REMARK    5  A    between atoms: C_11  and  C_12
REMARK    6  A    between atoms: C_12  and  N_13
REMARK    7  A    between atoms: C_16  and  C_17
REMARK                            x       y       z     vdW  Elec       q    Type
REMARK                         _______ _______ _______ _____ _____    ______ ____
ROOT
ATOM      1  C   UNL     1       1.926   2.712  21.801  0.00  0.00    +0.000 C 
ATOM      2  N   UNL     1       2.270   3.820  20.947  0.00  0.00    +0.000 N 
ATOM      3  C   UNL     1       1.692   5.061  20.975  0.00  0.00    +0.000 A 
ATOM      4  C   UNL     1       2.324   5.736  19.977  0.00  0.00    +0.000 A 
ATOM      5  C   UNL     1       3.249   4.866  19.405  0.00  0.00    +0.000 A 
ATOM      6  N   UNL     1       4.086   5.208  18.323  0.00  0.00    +0.000 NA
ATOM      7  C   UNL     1       3.955   6.428  17.834  0.00  0.00    +0.000 A 
ATOM      8  N   UNL     1       4.749   6.878  16.785  0.00  0.00    +0.000 N 
ATOM      9  N   UNL     1       3.001   7.351  18.372  0.00  0.00    +0.000 N 
ATOM     10  N   UNL     1       2.725   8.592  17.899  0.00  0.00    +0.000 NA
ATOM     11  C   UNL     1       1.769   8.990  18.767  0.00  0.00    +0.000 A 
ATOM     12  N   UNL     1       1.430   8.067  19.740  0.00  0.00    +0.000 NA
ATOM     13  C   UNL     1       2.196   7.065  19.432  0.00  0.00    +0.000 A 
ATOM     14  N   UNL     1       3.233   3.676  19.996  0.00  0.00    +0.000 NA
ATOM     15  H   UNL     1       4.544   7.816  16.447  0.00  0.00    +0.000 HD
ENDROOT
BRANCH  11  16
ATOM     16  C   UNL     1       1.076  10.314  18.723  0.00  0.00    +0.000 A 
ATOM     17  C   UNL     1       1.703  11.529  18.497  0.00  0.00    +0.000 A 
ATOM     18  C   UNL     1       0.692  12.524  18.520  0.00  0.00    +0.000 A 
ATOM     19  C   UNL     1      -0.480  11.855  18.782  0.00  0.00    +0.000 A 
ATOM     20  O   UNL     1      -0.265  10.524  18.896  0.00  0.00    +0.000 OA
ENDBRANCH  11  16
BRANCH   8  21
ATOM     21  C   UNL     1       5.345   5.970  15.815  0.00  0.00    +0.000 C 
BRANCH  21  22
ATOM     22  C   UNL     1       6.815   5.697  16.129  0.00  0.00    +0.000 C 
BRANCH  22  23
ATOM     23  C   UNL     1       7.255   6.363  17.441  0.00  0.00    +0.000 C 
BRANCH  23  24
ATOM     24  C   UNL     1       7.772   5.371  18.482  0.00  0.00    +0.000 C 
BRANCH  24  25
ATOM     25  N   UNL     1       6.970   5.394  19.699  0.00  0.00    +0.000 NA
ATOM     26  H   UNL     1       7.534   5.748  20.471  0.00  0.00    +0.000 HD
ATOM     27  H   UNL     1       6.712   4.440  19.951  0.00  0.00    +0.000 HD
ENDBRANCH  24  25
ENDBRANCH  23  24
ENDBRANCH  22  23
ENDBRANCH  21  22
ENDBRANCH   8  21
TORSDOF 6
ENDMDL
MODEL 8
REMARK VINA RESULT:      -6.6      1.654      2.401
REMARK  Name = 
REMARK  7 active torsions:
REMARK  status: ('A' for Active; 'I' for Inactive)
REMARK    1  A    between atoms: C_1  and  N_2
REMARK    2  A    between atoms: N_8  and  C_9
REMARK    3  A    between atoms: C_9  and  C_10
REMARK    4  A    between atoms: C_10  and  C_11
REMARK    5  A    between atoms: C_11  and  C_12
REMARK    6  A    between atoms: C_12  and  N_13
REMARK    7  A    between atoms: C_16  and  C_17
REMARK                            x       y       z     vdW  Elec       q    Type
REMARK                         _______ _______ _______ _____ _____    ______ ____
ROOT
ATOM      1  C   UNL     1       1.166   8.820  19.554  0.00  0.00    +0.000 C 
ATOM      2  N   UNL     1       2.097   7.777  19.208  0.00  0.00    +0.000 N 
ATOM      3  C   UNL     1       2.818   7.702  18.046  0.00  0.00    +0.000 A 
ATOM      4  C   UNL     1       3.517   6.542  18.172  0.00  0.00    +0.000 A 
ATOM      5  C   UNL     1       3.181   5.983  19.404  0.00  0.00    +0.000 A 
ATOM      6  N   UNL     1       3.699   4.761  19.880  0.00  0.00    +0.000 NA
ATOM      7  C   UNL     1       4.541   4.123  19.087  0.00  0.00    +0.000 A 
ATOM      8  N   UNL     1       5.130   2.924  19.471  0.00  0.00    +0.000 N 
ATOM      9  N   UNL     1       4.898   4.644  17.802  0.00  0.00    +0.000 N 
ATOM     10  N   UNL     1       5.683   4.038  16.877  0.00  0.00    +0.000 NA
ATOM     11  C   UNL     1       5.671   4.960  15.888  0.00  0.00    +0.000 A 
ATOM     12  N   UNL     1       4.918   6.092  16.142  0.00  0.00    +0.000 NA
ATOM     13  C   UNL     1       4.440   5.832  17.320  0.00  0.00    +0.000 A 
ATOM     14  N   UNL     1       2.306   6.736  20.061  0.00  0.00    +0.000 NA
ATOM     15  H   UNL     1       5.729   2.484  18.774  0.00  0.00    +0.000 HD
ENDROOT
BRANCH  11  16
ATOM     16  C   UNL     1       6.386   4.817  14.582  0.00  0.00    +0.000 A 
ATOM     17  C   UNL     1       5.996   3.975  13.553  0.00  0.00    +0.000 A 
ATOM     18  C   UNL     1       6.929   4.153  12.500  0.00  0.00    +0.000 A 
ATOM     19  C   UNL     1       7.838   5.075  12.963  0.00  0.00    +0.000 A 
ATOM     20  O   UNL     1       7.518   5.490  14.210  0.00  0.00    +0.000 OA
ENDBRANCH  11  16
BRANCH   8  21
ATOM     21  C   UNL     1       4.510   2.024  20.433  0.00  0.00    +0.000 C 
BRANCH  21  22
ATOM     22  C   UNL     1       5.221   0.672  20.477  0.00  0.00    +0.000 C 
BRANCH  22  23
ATOM     23  C   UNL     1       5.831   0.388  21.856  0.00  0.00    +0.000 C 
BRANCH  23  24
ATOM     24  C   UNL     1       6.559  -0.953  21.935  0.00  0.00    +0.000 C 
BRANCH  24  25
ATOM     25  N   UNL     1       6.612  -1.618  20.639  0.00  0.00    +0.000 NA
ATOM     26  H   UNL     1       7.551  -1.533  20.252  0.00  0.00    +0.000 HD
ATOM     27  H   UNL     1       5.993  -1.137  19.986  0.00  0.00    +0.000 HD
ENDBRANCH  24  25
ENDBRANCH  23  24
ENDBRANCH  22  23
ENDBRANCH  21  22
ENDBRANCH   8  21
TORSDOF 6
ENDMDL
MODEL 9
REMARK VINA RESULT:      -6.5      1.385      4.489
REMARK  Name = 
REMARK  7 active torsions:
REMARK  status: ('A' for Active; 'I' for Inactive)
REMARK    1  A    between atoms: C_1  and  N_2
REMARK    2  A    between atoms: N_8  and  C_9
REMARK    3  A    between atoms: C_9  and  C_10
REMARK    4  A    between atoms: C_10  and  C_11
REMARK    5  A    between atoms: C_11  and  C_12
REMARK    6  A    between atoms: C_12  and  N_13
REMARK    7  A    between atoms: C_16  and  C_17
REMARK                            x       y       z     vdW  Elec       q    Type
REMARK                         _______ _______ _______ _____ _____    ______ ____
ROOT
ATOM      1  C   UNL     1       2.603   2.435  21.785  0.00  0.00    +0.000 C 
ATOM      2  N   UNL     1       2.841   3.350  20.698  0.00  0.00    +0.000 N 
ATOM      3  C   UNL     1       3.625   3.104  19.603  0.00  0.00    +0.000 A 
ATOM      4  C   UNL     1       3.561   4.261  18.891  0.00  0.00    +0.000 A 
ATOM      5  C   UNL     1       2.740   5.140  19.595  0.00  0.00    +0.000 A 
ATOM      6  N   UNL     1       2.448   6.453  19.172  0.00  0.00    +0.000 NA
ATOM      7  C   UNL     1       3.009   6.853  18.046  0.00  0.00    +0.000 A 
ATOM      8  N   UNL     1       2.767   8.119  17.525  0.00  0.00    +0.000 N 
ATOM      9  N   UNL     1       3.880   5.995  17.299  0.00  0.00    +0.000 N 
ATOM     10  N   UNL     1       4.571   6.326  16.180  0.00  0.00    +0.000 NA
ATOM     11  C   UNL     1       5.210   5.163  15.920  0.00  0.00    +0.000 A 
ATOM     12  N   UNL     1       4.964   4.139  16.817  0.00  0.00    +0.000 NA
ATOM     13  C   UNL     1       4.163   4.714  17.661  0.00  0.00    +0.000 A 
ATOM     14  N   UNL     1       2.282   4.591  20.715  0.00  0.00    +0.000 NA
ATOM     15  H   UNL     1       3.280   8.352  16.677  0.00  0.00    +0.000 HD
ENDROOT
BRANCH  11  16
ATOM     16  C   UNL     1       6.142   4.941  14.772  0.00  0.00    +0.000 A 
ATOM     17  C   UNL     1       5.942   4.021  13.756  0.00  0.00    +0.000 A 
ATOM     18  C   UNL     1       7.044   4.140  12.871  0.00  0.00    +0.000 A 
ATOM     19  C   UNL     1       7.853   5.109  13.415  0.00  0.00    +0.000 A 
ATOM     20  O   UNL     1       7.318   5.605  14.555  0.00  0.00    +0.000 OA
ENDBRANCH  11  16
BRANCH   8  21
ATOM     21  C   UNL     1       2.382   9.245  18.363  0.00  0.00    +0.000 C 
BRANCH  21  22
ATOM     22  C   UNL     1       0.932   9.658  18.116  0.00  0.00    +0.000 C 
BRANCH  22  23
ATOM     23  C   UNL     1       0.280  10.244  19.377  0.00  0.00    +0.000 C 
BRANCH  23  24
ATOM     24  C   UNL     1       0.789   9.615  20.673  0.00  0.00    +0.000 C 
BRANCH  24  25
ATOM     25  N   UNL     1       1.082  10.622  21.685  0.00  0.00    +0.000 NA
ATOM     26  H   UNL     1       2.038  10.501  22.018  0.00  0.00    +0.000 HD
ATOM     27  H   UNL     1       0.480  10.472  22.495  0.00  0.00    +0.000 HD
ENDBRANCH  24  25
ENDBRANCH  23  24
ENDBRANCH  22  23
ENDBRANCH  21  22
ENDBRANCH   8  21
TORSDOF 6
ENDMDL
