MODEL 1
REMARK VINA RESULT:      -8.6      0.000      0.000
REMARK  Name = 
REMARK  5 active torsions:
REMARK  status: ('A' for Active; 'I' for Inactive)
REMARK    1  A    between atoms: C_1  and  O_2
REMARK    2  A    between atoms: O_2  and  C_3
REMARK    3  A    between atoms: C_6  and  N_7
REMARK    4  A    between atoms: C_11  and  N_12
REMARK    5  A    between atoms: C_16  and  C_18
REMARK                            x       y       z     vdW  Elec       q    Type
REMARK                         _______ _______ _______ _____ _____    ______ ____
ROOT
ATOM      1  N   UNL     1       2.760   6.874  18.699  0.00  0.00    +0.000 N 
ATOM      2  C   UNL     1       2.386   8.107  18.226  0.00  0.00    +0.000 C 
ATOM      3  O   UNL     1       2.617   8.558  17.106  0.00  0.00    +0.000 OA
ATOM      4  N   UNL     1       1.679   8.907  19.097  0.00  0.00    +0.000 N 
ATOM      5  C   UNL     1       1.315   8.642  20.396  0.00  0.00    +0.000 C 
ATOM      6  O   UNL     1       1.597   7.596  20.978  0.00  0.00    +0.000 OA
ATOM      7  H   UNL     1       2.337   6.574  19.579  0.00  0.00    +0.000 HD
ATOM      8  H   UNL     1       1.420   9.790  18.673  0.00  0.00    +0.000 HD
ENDROOT
BRANCH   5   9
ATOM      9  C   UNL     1       0.580   9.694  21.146  0.00  0.00    +0.000 A 
ATOM     10  C   UNL     1      -0.046   9.269  22.333  0.00  0.00    +0.000 A 
ATOM     11  C   UNL     1      -0.838  10.143  23.076  0.00  0.00    +0.000 A 
ATOM     12  C   UNL     1      -1.011  11.453  22.640  0.00  0.00    +0.000 A 
ATOM     13 CL   UNL     1      -2.016  12.522  23.535  0.00  0.00    +0.000 Cl
ATOM     14  C   UNL     1      -0.388  11.897  21.475  0.00  0.00    +0.000 A 
ATOM     15  C   UNL     1       0.409  11.020  20.724  0.00  0.00    +0.000 A 
ATOM     16 CL   UNL     1       1.095  11.649  19.269  0.00  0.00    +0.000 Cl
ENDBRANCH   5   9
BRANCH   1  22
ATOM     17  C   UNL     1       2.983   4.691  17.633  0.00  0.00    +0.000 A 
ATOM     18  C   UNL     1       3.773   3.725  16.990  0.00  0.00    +0.000 A 
ATOM     19  C   UNL     1       5.121   3.971  16.725  0.00  0.00    +0.000 A 
ATOM     20  C   UNL     1       5.688   5.184  17.126  0.00  0.00    +0.000 A 
ATOM     21  C   UNL     1       4.921   6.146  17.789  0.00  0.00    +0.000 A 
ATOM     22  C   UNL     1       3.564   5.914  18.039  0.00  0.00    +0.000 A 
BRANCH  20  23
ATOM     23  N   UNL     1       7.104   5.445  16.855  0.00  0.00    +0.000 N 
ATOM     24  O   UNL     1       7.872   4.470  16.820  0.00  0.00    +0.000 OA
ATOM     25  O   UNL     1       7.457   6.616  16.662  0.00  0.00    +0.000 OA
ENDBRANCH  20  23
BRANCH  17  27
ATOM     26  C   UNL     1       1.337   3.476  18.840  0.00  0.00    +0.000 C 
ATOM     27  O   UNL     1       1.645   4.507  17.901  0.00  0.00    +0.000 OA
ENDBRANCH  17  27
ENDBRANCH   1  22
TORSDOF 4
ENDMDL
MODEL 2
REMARK VINA RESULT:      -8.6      1.198      1.549
REMARK  Name = 
REMARK  5 active torsions:
REMARK  status: ('A' for Active; 'I' for Inactive)
REMARK    1  A    between atoms: C_1  and  O_2
REMARK    2  A    between atoms: O_2  and  C_3
REMARK    3  A    between atoms: C_6  and  N_7
REMARK    4  A    between atoms: C_11  and  N_12
REMARK    5  A    between atoms: C_16  and  C_18
REMARK                            x       y       z     vdW  Elec       q    Type
REMARK                         _______ _______ _______ _____ _____    ______ ____
ROOT
ATOM      1  N   UNL     1       2.940   6.379  19.099  0.00  0.00    +0.000 N 
ATOM      2  C   UNL     1       2.338   6.181  20.316  0.00  0.00    +0.000 C 
ATOM      3  O   UNL     1       2.388   5.157  20.996  0.00  0.00    +0.000 OA
ATOM      4  N   UNL     1       1.611   7.238  20.818  0.00  0.00    +0.000 N 
ATOM      5  C   UNL     1       1.389   8.469  20.247  0.00  0.00    +0.000 C 
ATOM      6  O   UNL     1       1.834   8.795  19.149  0.00  0.00    +0.000 OA
ATOM      7  H   UNL     1       2.959   7.338  18.749  0.00  0.00    +0.000 HD
ATOM      8  H   UNL     1       1.215   7.027  21.727  0.00  0.00    +0.000 HD
ENDROOT
BRANCH   5   9
ATOM      9  C   UNL     1       0.532   9.437  20.980  0.00  0.00    +0.000 A 
ATOM     10  C   UNL     1       0.412   9.218  22.364  0.00  0.00    +0.000 A 
ATOM     11  C   UNL     1      -0.434  10.006  23.143  0.00  0.00    +0.000 A 
ATOM     12  C   UNL     1      -1.170  11.023  22.544  0.00  0.00    +0.000 A 
ATOM     13 CL   UNL     1      -2.242  11.972  23.495  0.00  0.00    +0.000 Cl
ATOM     14  C   UNL     1      -1.055  11.265  21.176  0.00  0.00    +0.000 A 
ATOM     15  C   UNL     1      -0.205  10.474  20.390  0.00  0.00    +0.000 A 
ATOM     16 CL   UNL     1      -0.171  10.819  18.697  0.00  0.00    +0.000 Cl
ENDBRANCH   5   9
BRANCH   1  22
ATOM     17  C   UNL     1       2.949   4.381  17.698  0.00  0.00    +0.000 A 
ATOM     18  C   UNL     1       3.652   3.423  16.949  0.00  0.00    +0.000 A 
ATOM     19  C   UNL     1       5.038   3.506  16.809  0.00  0.00    +0.000 A 
ATOM     20  C   UNL     1       5.729   4.544  17.438  0.00  0.00    +0.000 A 
ATOM     21  C   UNL     1       5.048   5.492  18.207  0.00  0.00    +0.000 A 
ATOM     22  C   UNL     1       3.656   5.426  18.335  0.00  0.00    +0.000 A 
BRANCH  20  23
ATOM     23  N   UNL     1       7.185   4.633  17.297  0.00  0.00    +0.000 N 
ATOM     24  O   UNL     1       7.873   4.443  18.314  0.00  0.00    +0.000 OA
ATOM     25  O   UNL     1       7.651   4.879  16.177  0.00  0.00    +0.000 OA
ENDBRANCH  20  23
BRANCH  17  27
ATOM     26  C   UNL     1       1.043   3.158  18.413  0.00  0.00    +0.000 C 
ATOM     27  O   UNL     1       1.582   4.356  17.852  0.00  0.00    +0.000 OA
ENDBRANCH  17  27
ENDBRANCH   1  22
TORSDOF 4
ENDMDL
MODEL 3
REMARK VINA RESULT:      -8.4      1.667      2.210
REMARK  Name = 
REMARK  5 active torsions:
REMARK  status: ('A' for Active; 'I' for Inactive)
REMARK    1  A    between atoms: C_1  and  O_2
REMARK    2  A    between atoms: O_2  and  C_3
REMARK    3  A    between atoms: C_6  and  N_7
REMARK    4  A    between atoms: C_11  and  N_12
REMARK    5  A    between atoms: C_16  and  C_18
REMARK                            x       y       z     vdW  Elec       q    Type
REMARK                         _______ _______ _______ _____ _____    ______ ____
ROOT
ATOM      1  N   UNL     1       2.908   7.219  18.141  0.00  0.00    +0.000 N 
ATOM      2  C   UNL     1       2.319   7.379  19.370  0.00  0.00    +0.000 C 
ATOM      3  O   UNL     1       2.438   6.630  20.338  0.00  0.00    +0.000 OA
ATOM      4  N   UNL     1       1.523   8.493  19.526  0.00  0.00    +0.000 N 
ATOM      5  C   UNL     1       1.219   9.461  18.599  0.00  0.00    +0.000 C 
ATOM      6  O   UNL     1       1.642   9.450  17.444  0.00  0.00    +0.000 OA
ATOM      7  H   UNL     1       2.863   8.017  17.505  0.00  0.00    +0.000 HD
ATOM      8  H   UNL     1       1.140   8.555  20.462  0.00  0.00    +0.000 HD
ENDROOT
BRANCH   5   9
ATOM      9  C   UNL     1       0.296  10.554  19.004  0.00  0.00    +0.000 A 
ATOM     10  C   UNL     1       0.741  11.363  20.066  0.00  0.00    +0.000 A 
ATOM     11  C   UNL     1      -0.074  12.364  20.592  0.00  0.00    +0.000 A 
ATOM     12  C   UNL     1      -1.344  12.567  20.060  0.00  0.00    +0.000 A 
ATOM     13 CL   UNL     1      -2.365  13.776  20.730  0.00  0.00    +0.000 Cl
ATOM     14  C   UNL     1      -1.797  11.786  18.998  0.00  0.00    +0.000 A 
ATOM     15  C   UNL     1      -0.980  10.778  18.467  0.00  0.00    +0.000 A 
ATOM     16 CL   UNL     1      -1.651   9.829  17.188  0.00  0.00    +0.000 Cl
ENDBRANCH   5   9
BRANCH   1  22
ATOM     17  C   UNL     1       3.067   4.867  17.511  0.00  0.00    +0.000 A 
ATOM     18  C   UNL     1       3.834   3.768  17.091  0.00  0.00    +0.000 A 
ATOM     19  C   UNL     1       5.199   3.909  16.841  0.00  0.00    +0.000 A 
ATOM     20  C   UNL     1       5.807   5.152  17.031  0.00  0.00    +0.000 A 
ATOM     21  C   UNL     1       5.063   6.250  17.471  0.00  0.00    +0.000 A 
ATOM     22  C   UNL     1       3.689   6.122  17.705  0.00  0.00    +0.000 A 
BRANCH  20  23
ATOM     23  N   UNL     1       7.242   5.304  16.774  0.00  0.00    +0.000 N 
ATOM     24  O   UNL     1       7.628   6.379  16.288  0.00  0.00    +0.000 OA
ATOM     25  O   UNL     1       7.991   4.362  17.064  0.00  0.00    +0.000 OA
ENDBRANCH  20  23
BRANCH  17  27
ATOM     26  C   UNL     1       1.288   3.666  18.528  0.00  0.00    +0.000 C 
ATOM     27  O   UNL     1       1.714   4.787  17.753  0.00  0.00    +0.000 OA
ENDBRANCH  17  27
ENDBRANCH   1  22
TORSDOF 4
ENDMDL
MODEL 4
REMARK VINA RESULT:      -8.1      1.682      2.106
REMARK  Name = 
REMARK  5 active torsions:
REMARK  status: ('A' for Active; 'I' for Inactive)
REMARK    1  A    between atoms: C_1  and  O_2
REMARK    2  A    between atoms: O_2  and  C_3
REMARK    3  A    between atoms: C_6  and  N_7
REMARK    4  A    between atoms: C_11  and  N_12
REMARK    5  A    between atoms: C_16  and  C_18
REMARK                            x       y       z     vdW  Elec       q    Type
REMARK                         _______ _______ _______ _____ _____    ______ ____
ROOT
ATOM      1  N   UNL     1       3.071   7.051  18.032  0.00  0.00    +0.000 N 
ATOM      2  C   UNL     1       2.514   7.226  19.274  0.00  0.00    +0.000 C 
ATOM      3  O   UNL     1       2.585   6.445  20.221  0.00  0.00    +0.000 OA
ATOM      4  N   UNL     1       1.811   8.395  19.470  0.00  0.00    +0.000 N 
ATOM      5  C   UNL     1       1.573   9.408  18.572  0.00  0.00    +0.000 C 
ATOM      6  O   UNL     1       1.978   9.393  17.411  0.00  0.00    +0.000 OA
ATOM      7  H   UNL     1       3.081   7.866  17.417  0.00  0.00    +0.000 HD
ATOM      8  H   UNL     1       1.448   8.464  20.413  0.00  0.00    +0.000 HD
ENDROOT
BRANCH   5   9
ATOM      9  C   UNL     1       0.746  10.560  19.018  0.00  0.00    +0.000 A 
ATOM     10  C   UNL     1      -0.500  10.232  19.583  0.00  0.00    +0.000 A 
ATOM     11  C   UNL     1      -1.400  11.229  19.957  0.00  0.00    +0.000 A 
ATOM     12  C   UNL     1      -1.062  12.565  19.771  0.00  0.00    +0.000 A 
ATOM     13 CL   UNL     1      -2.184  13.795  20.198  0.00  0.00    +0.000 Cl
ATOM     14  C   UNL     1       0.174  12.911  19.226  0.00  0.00    +0.000 A 
ATOM     15  C   UNL     1       1.081  11.911  18.848  0.00  0.00    +0.000 A 
ATOM     16 CL   UNL     1       2.564  12.439  18.135  0.00  0.00    +0.000 Cl
ENDBRANCH   5   9
BRANCH   1  22
ATOM     17  C   UNL     1       3.055   4.684  17.437  0.00  0.00    +0.000 A 
ATOM     18  C   UNL     1       3.727   3.540  16.980  0.00  0.00    +0.000 A 
ATOM     19  C   UNL     1       5.074   3.603  16.619  0.00  0.00    +0.000 A 
ATOM     20  C   UNL     1       5.759   4.814  16.736  0.00  0.00    +0.000 A 
ATOM     21  C   UNL     1       5.111   5.958  17.213  0.00  0.00    +0.000 A 
ATOM     22  C   UNL     1       3.755   5.907  17.557  0.00  0.00    +0.000 A 
BRANCH  20  23
ATOM     23  N   UNL     1       7.174   4.884  16.363  0.00  0.00    +0.000 N 
ATOM     24  O   UNL     1       7.463   5.477  15.311  0.00  0.00    +0.000 OA
ATOM     25  O   UNL     1       8.005   4.363  17.119  0.00  0.00    +0.000 OA
ENDBRANCH  20  23
BRANCH  17  27
ATOM     26  C   UNL     1       1.258   3.503  18.446  0.00  0.00    +0.000 C 
ATOM     27  O   UNL     1       1.724   4.682  17.788  0.00  0.00    +0.000 OA
ENDBRANCH  17  27
ENDBRANCH   1  22
TORSDOF 4
ENDMDL
MODEL 5
REMARK VINA RESULT:      -8.0      1.374      1.975
REMARK  Name = 
REMARK  5 active torsions:
REMARK  status: ('A' for Active; 'I' for Inactive)
REMARK    1  A    between atoms: C_1  and  O_2
REMARK    2  A    between atoms: O_2  and  C_3
REMARK    3  A    between atoms: C_6  and  N_7
REMARK    4  A    between atoms: C_11  and  N_12
REMARK    5  A    between atoms: C_16  and  C_18
REMARK                            x       y       z     vdW  Elec       q    Type
REMARK                         _______ _______ _______ _____ _____    ______ ____
ROOT
ATOM      1  N   UNL     1       2.889   6.821  18.678  0.00  0.00    +0.000 N 
ATOM      2  C   UNL     1       2.322   6.696  19.922  0.00  0.00    +0.000 C 
ATOM      3  O   UNL     1       2.457   5.746  20.691  0.00  0.00    +0.000 OA
ATOM      4  N   UNL     1       1.531   7.743  20.341  0.00  0.00    +0.000 N 
ATOM      5  C   UNL     1       1.212   8.896  19.665  0.00  0.00    +0.000 C 
ATOM      6  O   UNL     1       1.615   9.149  18.531  0.00  0.00    +0.000 OA
ATOM      7  H   UNL     1       2.834   7.743  18.242  0.00  0.00    +0.000 HD
ATOM      8  H   UNL     1       1.165   7.590  21.274  0.00  0.00    +0.000 HD
ENDROOT
BRANCH   5   9
ATOM      9  C   UNL     1       0.299   9.866  20.324  0.00  0.00    +0.000 A 
ATOM     10  C   UNL     1      -0.497  10.638  19.458  0.00  0.00    +0.000 A 
ATOM     11  C   UNL     1      -1.328  11.642  19.954  0.00  0.00    +0.000 A 
ATOM     12  C   UNL     1      -1.370  11.884  21.324  0.00  0.00    +0.000 A 
ATOM     13 CL   UNL     1      -2.366  13.145  21.935  0.00  0.00    +0.000 Cl
ATOM     14  C   UNL     1      -0.600  11.121  22.200  0.00  0.00    +0.000 A 
ATOM     15  C   UNL     1       0.237  10.110  21.704  0.00  0.00    +0.000 A 
ATOM     16 CL   UNL     1       1.191   9.256  22.863  0.00  0.00    +0.000 Cl
ENDBRANCH   5   9
BRANCH   1  22
ATOM     17  C   UNL     1       3.032   4.675  17.525  0.00  0.00    +0.000 A 
ATOM     18  C   UNL     1       3.789   3.703  16.853  0.00  0.00    +0.000 A 
ATOM     19  C   UNL     1       5.151   3.899  16.617  0.00  0.00    +0.000 A 
ATOM     20  C   UNL     1       5.764   5.068  17.075  0.00  0.00    +0.000 A 
ATOM     21  C   UNL     1       5.030   6.035  17.767  0.00  0.00    +0.000 A 
ATOM     22  C   UNL     1       3.660   5.854  17.990  0.00  0.00    +0.000 A 
BRANCH  20  23
ATOM     23  N   UNL     1       7.194   5.277  16.834  0.00  0.00    +0.000 N 
ATOM     24  O   UNL     1       7.537   6.345  16.302  0.00  0.00    +0.000 OA
ATOM     25  O   UNL     1       7.983   4.389  17.184  0.00  0.00    +0.000 OA
ENDBRANCH  20  23
BRANCH  17  27
ATOM     26  C   UNL     1       1.288   3.328  18.412  0.00  0.00    +0.000 C 
ATOM     27  O   UNL     1       1.684   4.540  17.767  0.00  0.00    +0.000 OA
ENDBRANCH  17  27
ENDBRANCH   1  22
TORSDOF 4
ENDMDL
MODEL 6
REMARK VINA RESULT:      -7.9      1.329      1.630
REMARK  Name = 
REMARK  5 active torsions:
REMARK  status: ('A' for Active; 'I' for Inactive)
REMARK    1  A    between atoms: C_1  and  O_2
REMARK    2  A    between atoms: O_2  and  C_3
REMARK    3  A    between atoms: C_6  and  N_7
REMARK    4  A    between atoms: C_11  and  N_12
REMARK    5  A    between atoms: C_16  and  C_18
REMARK                            x       y       z     vdW  Elec       q    Type
REMARK                         _______ _______ _______ _____ _____    ______ ____
ROOT
ATOM      1  N   UNL     1       2.474   7.374  18.793  0.00  0.00    +0.000 N 
ATOM      2  C   UNL     1       2.036   8.540  18.217  0.00  0.00    +0.000 C 
ATOM      3  O   UNL     1       2.320   8.949  17.093  0.00  0.00    +0.000 OA
ATOM      4  N   UNL     1       1.194   9.320  18.980  0.00  0.00    +0.000 N 
ATOM      5  C   UNL     1       0.748   9.095  20.260  0.00  0.00    +0.000 C 
ATOM      6  O   UNL     1       1.069   8.112  20.926  0.00  0.00    +0.000 OA
ATOM      7  H   UNL     1       2.006   7.086  19.654  0.00  0.00    +0.000 HD
ATOM      8  H   UNL     1       0.897  10.152  18.483  0.00  0.00    +0.000 HD
ENDROOT
BRANCH   5   9
ATOM      9  C   UNL     1      -0.134  10.115  20.885  0.00  0.00    +0.000 A 
ATOM     10  C   UNL     1      -0.776  10.993  19.993  0.00  0.00    +0.000 A 
ATOM     11  C   UNL     1      -1.559  12.046  20.464  0.00  0.00    +0.000 A 
ATOM     12  C   UNL     1      -1.706  12.232  21.835  0.00  0.00    +0.000 A 
ATOM     13 CL   UNL     1      -2.640  13.552  22.419  0.00  0.00    +0.000 Cl
ATOM     14  C   UNL     1      -1.090  11.365  22.735  0.00  0.00    +0.000 A 
ATOM     15  C   UNL     1      -0.302  10.305  22.264  0.00  0.00    +0.000 A 
ATOM     16 CL   UNL     1       0.463   9.318  23.458  0.00  0.00    +0.000 Cl
ENDBRANCH   5   9
BRANCH   1  22
ATOM     17  C   UNL     1       3.095   5.077  18.253  0.00  0.00    +0.000 A 
ATOM     18  C   UNL     1       4.020   4.156  17.737  0.00  0.00    +0.000 A 
ATOM     19  C   UNL     1       5.235   4.589  17.206  0.00  0.00    +0.000 A 
ATOM     20  C   UNL     1       5.537   5.953  17.210  0.00  0.00    +0.000 A 
ATOM     21  C   UNL     1       4.638   6.882  17.742  0.00  0.00    +0.000 A 
ATOM     22  C   UNL     1       3.409   6.456  18.258  0.00  0.00    +0.000 A 
BRANCH  20  23
ATOM     23  N   UNL     1       6.814   6.413  16.659  0.00  0.00    +0.000 N 
ATOM     24  O   UNL     1       7.342   5.719  15.774  0.00  0.00    +0.000 OA
ATOM     25  O   UNL     1       7.292   7.471  17.091  0.00  0.00    +0.000 OA
ENDBRANCH  20  23
BRANCH  17  27
ATOM     26  C   UNL     1       1.327   3.491  18.254  0.00  0.00    +0.000 C 
ATOM     27  O   UNL     1       1.875   4.704  18.770  0.00  0.00    +0.000 OA
ENDBRANCH  17  27
ENDBRANCH   1  22
TORSDOF 4
ENDMDL
MODEL 7
REMARK VINA RESULT:      -7.8      1.162      1.185
REMARK  Name = 
REMARK  5 active torsions:
REMARK  status: ('A' for Active; 'I' for Inactive)
REMARK    1  A    between atoms: C_1  and  O_2
REMARK    2  A    between atoms: O_2  and  C_3
REMARK    3  A    between atoms: C_6  and  N_7
REMARK    4  A    between atoms: C_11  and  N_12
REMARK    5  A    between atoms: C_16  and  C_18
REMARK                            x       y       z     vdW  Elec       q    Type
REMARK                         _______ _______ _______ _____ _____    ______ ____
ROOT
ATOM      1  N   UNL     1       2.294   7.202  19.107  0.00  0.00    +0.000 N 
ATOM      2  C   UNL     1       1.915   8.393  18.541  0.00  0.00    +0.000 C 
ATOM      3  O   UNL     1       2.071   8.724  17.367  0.00  0.00    +0.000 OA
ATOM      4  N   UNL     1       1.298   9.299  19.377  0.00  0.00    +0.000 N 
ATOM      5  C   UNL     1       1.028   9.175  20.719  0.00  0.00    +0.000 C 
ATOM      6  O   UNL     1       1.328   8.183  21.381  0.00  0.00    +0.000 OA
ATOM      7  H   UNL     1       1.931   7.004  20.041  0.00  0.00    +0.000 HD
ATOM      8  H   UNL     1       1.029  10.143  18.886  0.00  0.00    +0.000 HD
ENDROOT
BRANCH   5   9
ATOM      9  C   UNL     1       0.380  10.319  21.412  0.00  0.00    +0.000 A 
ATOM     10  C   UNL     1      -0.496   9.978  22.459  0.00  0.00    +0.000 A 
ATOM     11  C   UNL     1      -1.231  10.958  23.125  0.00  0.00    +0.000 A 
ATOM     12  C   UNL     1      -1.095  12.291  22.751  0.00  0.00    +0.000 A 
ATOM     13 CL   UNL     1      -2.025  13.498  23.546  0.00  0.00    +0.000 Cl
ATOM     14  C   UNL     1      -0.221  12.651  21.726  0.00  0.00    +0.000 A 
ATOM     15  C   UNL     1       0.518  11.667  21.053  0.00  0.00    +0.000 A 
ATOM     16 CL   UNL     1       1.533  12.207  19.763  0.00  0.00    +0.000 Cl
ENDBRANCH   5   9
BRANCH   1  22
ATOM     17  C   UNL     1       2.832   4.828  18.938  0.00  0.00    +0.000 A 
ATOM     18  C   UNL     1       3.557   3.784  18.342  0.00  0.00    +0.000 A 
ATOM     19  C   UNL     1       4.442   4.041  17.294  0.00  0.00    +0.000 A 
ATOM     20  C   UNL     1       4.620   5.354  16.853  0.00  0.00    +0.000 A 
ATOM     21  C   UNL     1       3.924   6.408  17.451  0.00  0.00    +0.000 A 
ATOM     22  C   UNL     1       3.019   6.156  18.489  0.00  0.00    +0.000 A 
BRANCH  20  23
ATOM     23  N   UNL     1       5.551   5.629  15.756  0.00  0.00    +0.000 N 
ATOM     24  O   UNL     1       6.350   4.732  15.442  0.00  0.00    +0.000 OA
ATOM     25  O   UNL     1       5.486   6.731  15.194  0.00  0.00    +0.000 OA
ENDBRANCH  20  23
BRANCH  17  27
ATOM     26  C   UNL     1       1.004   3.560  19.770  0.00  0.00    +0.000 C 
ATOM     27  O   UNL     1       1.933   4.627  19.961  0.00  0.00    +0.000 OA
ENDBRANCH  17  27
ENDBRANCH   1  22
TORSDOF 4
ENDMDL
MODEL 8
REMARK VINA RESULT:      -7.7      2.624      3.980
REMARK  Name = 
REMARK  5 active torsions:
REMARK  status: ('A' for Active; 'I' for Inactive)
REMARK    1  A    between atoms: C_1  and  O_2
REMARK    2  A    between atoms: O_2  and  C_3
REMARK    3  A    between atoms: C_6  and  N_7
REMARK    4  A    between atoms: C_11  and  N_12
REMARK    5  A    between atoms: C_16  and  C_18
REMARK                            x       y       z     vdW  Elec       q    Type
REMARK                         _______ _______ _______ _____ _____    ______ ____
ROOT
ATOM      1  N   UNL     1       2.530   7.340  18.342  0.00  0.00    +0.000 N 
ATOM      2  C   UNL     1       1.947   7.776  19.505  0.00  0.00    +0.000 C 
ATOM      3  O   UNL     1       1.838   7.136  20.550  0.00  0.00    +0.000 OA
ATOM      4  N   UNL     1       1.441   9.057  19.493  0.00  0.00    +0.000 N 
ATOM      5  C   UNL     1       1.423   9.957  18.454  0.00  0.00    +0.000 C 
ATOM      6  O   UNL     1       1.878   9.713  17.339  0.00  0.00    +0.000 OA
ATOM      7  H   UNL     1       2.708   8.047  17.627  0.00  0.00    +0.000 HD
ATOM      8  H   UNL     1       1.047   9.316  20.389  0.00  0.00    +0.000 HD
ENDROOT
BRANCH   5   9
ATOM      9  C   UNL     1       0.780  11.278  18.682  0.00  0.00    +0.000 A 
ATOM     10  C   UNL     1       1.652  12.329  19.020  0.00  0.00    +0.000 A 
ATOM     11  C   UNL     1       1.158  13.592  19.344  0.00  0.00    +0.000 A 
ATOM     12  C   UNL     1      -0.215  13.817  19.331  0.00  0.00    +0.000 A 
ATOM     13 CL   UNL     1      -0.828  15.363  19.765  0.00  0.00    +0.000 Cl
ATOM     14  C   UNL     1      -1.095  12.793  18.985  0.00  0.00    +0.000 A 
ATOM     15  C   UNL     1      -0.601  11.521  18.660  0.00  0.00    +0.000 A 
ATOM     16 CL   UNL     1      -1.773  10.305  18.297  0.00  0.00    +0.000 Cl
ENDBRANCH   5   9
BRANCH   1  22
ATOM     17  C   UNL     1       4.330   5.912  17.519  0.00  0.00    +0.000 A 
ATOM     18  C   UNL     1       4.836   4.634  17.235  0.00  0.00    +0.000 A 
ATOM     19  C   UNL     1       4.085   3.493  17.518  0.00  0.00    +0.000 A 
ATOM     20  C   UNL     1       2.810   3.631  18.070  0.00  0.00    +0.000 A 
ATOM     21  C   UNL     1       2.280   4.897  18.336  0.00  0.00    +0.000 A 
ATOM     22  C   UNL     1       3.036   6.045  18.073  0.00  0.00    +0.000 A 
BRANCH  20  23
ATOM     23  N   UNL     1       2.015   2.436  18.364  0.00  0.00    +0.000 N 
ATOM     24  O   UNL     1       2.624   1.412  18.716  0.00  0.00    +0.000 OA
ATOM     25  O   UNL     1       0.783   2.511  18.260  0.00  0.00    +0.000 OA
ENDBRANCH  20  23
BRANCH  17  27
ATOM     26  C   UNL     1       6.431   6.901  17.021  0.00  0.00    +0.000 C 
ATOM     27  O   UNL     1       5.036   7.069  17.277  0.00  0.00    +0.000 OA
ENDBRANCH  17  27
ENDBRANCH   1  22
TORSDOF 4
ENDMDL
MODEL 9
REMARK VINA RESULT:      -7.7      1.439      1.551
REMARK  Name = 
REMARK  5 active torsions:
REMARK  status: ('A' for Active; 'I' for Inactive)
REMARK    1  A    between atoms: C_1  and  O_2
REMARK    2  A    between atoms: O_2  and  C_3
REMARK    3  A    between atoms: C_6  and  N_7
REMARK    4  A    between atoms: C_11  and  N_12
REMARK    5  A    between atoms: C_16  and  C_18
REMARK                            x       y       z     vdW  Elec       q    Type
REMARK                         _______ _______ _______ _____ _____    ______ ____
ROOT
ATOM      1  N   UNL     1       2.536   6.903  19.177  0.00  0.00    +0.000 N 
ATOM      2  C   UNL     1       2.302   8.018  18.412  0.00  0.00    +0.000 C 
ATOM      3  O   UNL     1       2.758   8.242  17.293  0.00  0.00    +0.000 OA
ATOM      4  N   UNL     1       1.471   8.971  18.959  0.00  0.00    +0.000 N 
ATOM      5  C   UNL     1       0.857   8.964  20.188  0.00  0.00    +0.000 C 
ATOM      6  O   UNL     1       0.986   8.053  21.004  0.00  0.00    +0.000 OA
ATOM      7  H   UNL     1       1.942   6.779  19.998  0.00  0.00    +0.000 HD
ATOM      8  H   UNL     1       1.328   9.753  18.330  0.00  0.00    +0.000 HD
ENDROOT
BRANCH   5   9
ATOM      9  C   UNL     1       0.029  10.140  20.566  0.00  0.00    +0.000 A 
ATOM     10  C   UNL     1       0.151  10.566  21.901  0.00  0.00    +0.000 A 
ATOM     11  C   UNL     1      -0.640  11.602  22.396  0.00  0.00    +0.000 A 
ATOM     12  C   UNL     1      -1.561  12.224  21.558  0.00  0.00    +0.000 A 
ATOM     13 CL   UNL     1      -2.562  13.477  22.176  0.00  0.00    +0.000 Cl
ATOM     14  C   UNL     1      -1.686  11.826  20.228  0.00  0.00    +0.000 A 
ATOM     15  C   UNL     1      -0.892  10.783  19.728  0.00  0.00    +0.000 A 
ATOM     16 CL   UNL     1      -1.159  10.328  18.082  0.00  0.00    +0.000 Cl
ENDBRANCH   5   9
BRANCH   1  22
ATOM     17  C   UNL     1       2.890   4.634  18.350  0.00  0.00    +0.000 A 
ATOM     18  C   UNL     1       3.753   3.563  18.067  0.00  0.00    +0.000 A 
ATOM     19  C   UNL     1       5.126   3.680  18.282  0.00  0.00    +0.000 A 
ATOM     20  C   UNL     1       5.640   4.869  18.805  0.00  0.00    +0.000 A 
ATOM     21  C   UNL     1       4.793   5.937  19.115  0.00  0.00    +0.000 A 
ATOM     22  C   UNL     1       3.416   5.834  18.882  0.00  0.00    +0.000 A 
BRANCH  20  23
ATOM     23  N   UNL     1       7.081   4.995  19.038  0.00  0.00    +0.000 N 
ATOM     24  O   UNL     1       7.447   5.557  20.083  0.00  0.00    +0.000 OA
ATOM     25  O   UNL     1       7.854   4.526  18.192  0.00  0.00    +0.000 OA
ENDBRANCH  20  23
BRANCH  17  27
ATOM     26  C   UNL     1       0.884   3.383  18.575  0.00  0.00    +0.000 C 
ATOM     27  O   UNL     1       1.532   4.579  18.138  0.00  0.00    +0.000 OA
ENDBRANCH  17  27
ENDBRANCH   1  22
TORSDOF 4
ENDMDL
