MODEL 1
REMARK VINA RESULT:      -8.4      0.000      0.000
REMARK  Name = 
REMARK  5 active torsions:
REMARK  status: ('A' for Active; 'I' for Inactive)
REMARK    1  A    between atoms: C_1  and  C_2
REMARK    2  A    between atoms: C_6  and  C_8
REMARK    3  A    between atoms: N_12  and  S_13
REMARK    4  A    between atoms: S_13  and  C_16
REMARK    5  A    between atoms: C_21  and  C_22
REMARK                            x       y       z     vdW  Elec       q    Type
REMARK                         _______ _______ _______ _____ _____    ______ ____
ROOT
ATOM      1  S   UNL     1       0.295   9.561  21.723  0.00  0.00    +0.000 S 
ATOM      2  O   UNL     1       1.332   9.566  22.736  0.00  0.00    +0.000 OA
ATOM      3  O   UNL     1      -0.931   8.824  21.930  0.00  0.00    +0.000 OA
ENDROOT
BRANCH   1   4
ATOM      4  C   UNL     1       1.047   8.897  20.230  0.00  0.00    +0.000 A 
ATOM      5  C   UNL     1       1.039   9.675  19.063  0.00  0.00    +0.000 A 
ATOM      6  C   UNL     1       1.788   9.302  17.937  0.00  0.00    +0.000 A 
ATOM      7  C   UNL     1       2.567   8.148  18.048  0.00  0.00    +0.000 A 
ATOM      8  N   UNL     1       3.435   7.533  17.176  0.00  0.00    +0.000 N 
ATOM      9  C   UNL     1       4.025   6.463  17.807  0.00  0.00    +0.000 A 
ATOM     10  N   UNL     1       3.536   6.342  19.032  0.00  0.00    +0.000 NA
ATOM     11  C   UNL     1       2.631   7.372  19.198  0.00  0.00    +0.000 A 
ATOM     12  C   UNL     1       1.854   7.742  20.314  0.00  0.00    +0.000 A 
ATOM     13  H   UNL     1       3.663   7.858  16.251  0.00  0.00    +0.000 HD
BRANCH   9  14
ATOM     14  C   UNL     1       5.093   5.657  17.188  0.00  0.00    +0.000 A 
ATOM     15  C   UNL     1       4.826   4.880  16.054  0.00  0.00    +0.000 A 
ATOM     16  C   UNL     1       5.806   4.052  15.491  0.00  0.00    +0.000 A 
ATOM     17  C   UNL     1       7.081   4.002  16.050  0.00  0.00    +0.000 A 
ATOM     18  C   UNL     1       7.378   4.783  17.162  0.00  0.00    +0.000 A 
ATOM     19  C   UNL     1       6.393   5.605  17.728  0.00  0.00    +0.000 A 
ENDBRANCH   9  14
ENDBRANCH   1   4
BRANCH   1  24
ATOM     20  C   UNL     1      -1.972  12.775  20.965  0.00  0.00    +0.000 C 
ATOM     21  C   UNL     1      -0.913  13.860  20.680  0.00  0.00    +0.000 C 
ATOM     22  C   UNL     1       0.469  13.317  20.312  0.00  0.00    +0.000 C 
ATOM     23  C   UNL     1       0.953  12.164  21.194  0.00  0.00    +0.000 C 
ATOM     24  N   UNL     1      -0.119  11.175  21.405  0.00  0.00    +0.000 NA
ATOM     25  C   UNL     1      -1.389  11.729  21.927  0.00  0.00    +0.000 C 
BRANCH  20  31
ATOM     26  C   UNL     1      -7.545  13.312  17.240  0.00  0.00    +0.000 C 
ATOM     27  C   UNL     1      -6.568  12.658  18.227  0.00  0.00    +0.000 C 
ATOM     28  C   UNL     1      -5.962  13.673  19.205  0.00  0.00    +0.000 C 
ATOM     29  C   UNL     1      -4.891  13.050  20.119  0.00  0.00    +0.000 C 
ATOM     30  N   UNL     1      -3.899  12.260  19.382  0.00  0.00    +0.000 N 
ATOM     31  C   UNL     1      -2.537  12.133  19.682  0.00  0.00    +0.000 C 
ATOM     32  O   UNL     1      -1.785  11.504  18.931  0.00  0.00    +0.000 OA
ATOM     33  C   UNL     1      -4.463  11.303  18.425  0.00  0.00    +0.000 C 
ATOM     34  C   UNL     1      -5.445  11.957  17.462  0.00  0.00    +0.000 C 
ENDBRANCH  20  31
ENDBRANCH   1  24
TORSDOF 4
ENDMDL
MODEL 2
REMARK VINA RESULT:      -8.4      3.870      6.627
REMARK  Name = 
REMARK  5 active torsions:
REMARK  status: ('A' for Active; 'I' for Inactive)
REMARK    1  A    between atoms: C_1  and  C_2
REMARK    2  A    between atoms: C_6  and  C_8
REMARK    3  A    between atoms: N_12  and  S_13
REMARK    4  A    between atoms: S_13  and  C_16
REMARK    5  A    between atoms: C_21  and  C_22
REMARK                            x       y       z     vdW  Elec       q    Type
REMARK                         _______ _______ _______ _____ _____    ______ ____
ROOT
ATOM      1  S   UNL     1      -0.441  12.631  19.519  0.00  0.00    +0.000 S 
ATOM      2  O   UNL     1      -1.618  12.537  20.360  0.00  0.00    +0.000 OA
ATOM      3  O   UNL     1      -0.570  12.762  18.085  0.00  0.00    +0.000 OA
ENDROOT
BRANCH   1   4
ATOM      4  C   UNL     1       0.513  11.135  19.813  0.00  0.00    +0.000 A 
ATOM      5  C   UNL     1       0.477  10.547  21.086  0.00  0.00    +0.000 A 
ATOM      6  C   UNL     1       1.027   9.276  21.315  0.00  0.00    +0.000 A 
ATOM      7  C   UNL     1       1.571   8.613  20.213  0.00  0.00    +0.000 A 
ATOM      8  N   UNL     1       2.139   7.369  20.073  0.00  0.00    +0.000 N 
ATOM      9  C   UNL     1       2.439   7.157  18.748  0.00  0.00    +0.000 A 
ATOM     10  N   UNL     1       2.127   8.234  18.042  0.00  0.00    +0.000 NA
ATOM     11  C   UNL     1       1.593   9.146  18.930  0.00  0.00    +0.000 A 
ATOM     12  C   UNL     1       1.062  10.434  18.717  0.00  0.00    +0.000 A 
ATOM     13  H   UNL     1       2.248   6.689  20.808  0.00  0.00    +0.000 HD
BRANCH   9  14
ATOM     14  C   UNL     1       2.955   5.873  18.238  0.00  0.00    +0.000 A 
ATOM     15  C   UNL     1       2.071   4.856  17.860  0.00  0.00    +0.000 A 
ATOM     16  C   UNL     1       2.539   3.604  17.440  0.00  0.00    +0.000 A 
ATOM     17  C   UNL     1       3.909   3.356  17.376  0.00  0.00    +0.000 A 
ATOM     18  C   UNL     1       4.807   4.360  17.722  0.00  0.00    +0.000 A 
ATOM     19  C   UNL     1       4.336   5.610  18.149  0.00  0.00    +0.000 A 
ENDBRANCH   9  14
ENDBRANCH   1   4
BRANCH   1  24
ATOM     20  C   UNL     1       2.115  15.715  19.462  0.00  0.00    +0.000 C 
ATOM     21  C   UNL     1       2.239  16.062  20.960  0.00  0.00    +0.000 C 
ATOM     22  C   UNL     1       1.815  14.939  21.908  0.00  0.00    +0.000 C 
ATOM     23  C   UNL     1       0.513  14.237  21.519  0.00  0.00    +0.000 C 
ATOM     24  N   UNL     1       0.486  13.938  20.076  0.00  0.00    +0.000 NA
ATOM     25  C   UNL     1       0.734  15.098  19.190  0.00  0.00    +0.000 C 
BRANCH  20  31
ATOM     26  C   UNL     1       8.785  16.189  18.745  0.00  0.00    +0.000 C 
ATOM     27  C   UNL     1       7.319  16.132  18.291  0.00  0.00    +0.000 C 
ATOM     28  C   UNL     1       6.392  16.929  19.217  0.00  0.00    +0.000 C 
ATOM     29  C   UNL     1       4.906  16.780  18.841  0.00  0.00    +0.000 C 
ATOM     30  N   UNL     1       4.503  15.383  18.643  0.00  0.00    +0.000 N 
ATOM     31  C   UNL     1       3.261  14.816  18.954  0.00  0.00    +0.000 C 
ATOM     32  O   UNL     1       3.073  13.604  18.819  0.00  0.00    +0.000 OA
ATOM     33  C   UNL     1       5.394  14.603  17.779  0.00  0.00    +0.000 C 
ATOM     34  C   UNL     1       6.848  14.679  18.228  0.00  0.00    +0.000 C 
ENDBRANCH  20  31
ENDBRANCH   1  24
TORSDOF 4
ENDMDL
MODEL 3
REMARK VINA RESULT:      -8.3      3.544      6.328
REMARK  Name = 
REMARK  5 active torsions:
REMARK  status: ('A' for Active; 'I' for Inactive)
REMARK    1  A    between atoms: C_1  and  C_2
REMARK    2  A    between atoms: C_6  and  C_8
REMARK    3  A    between atoms: N_12  and  S_13
REMARK    4  A    between atoms: S_13  and  C_16
REMARK    5  A    between atoms: C_21  and  C_22
REMARK                            x       y       z     vdW  Elec       q    Type
REMARK                         _______ _______ _______ _____ _____    ______ ____
ROOT
ATOM      1  S   UNL     1      -0.889  12.405  19.415  0.00  0.00    +0.000 S 
ATOM      2  O   UNL     1      -2.039  12.191  20.272  0.00  0.00    +0.000 OA
ATOM      3  O   UNL     1      -1.055  12.559  17.988  0.00  0.00    +0.000 OA
ENDROOT
BRANCH   1   4
ATOM      4  C   UNL     1       0.192  10.987  19.656  0.00  0.00    +0.000 A 
ATOM      5  C   UNL     1       0.125  10.281  20.866  0.00  0.00    +0.000 A 
ATOM      6  C   UNL     1       0.787   9.054  21.028  0.00  0.00    +0.000 A 
ATOM      7  C   UNL     1       1.476   8.555  19.921  0.00  0.00    +0.000 A 
ATOM      8  N   UNL     1       2.179   7.391  19.721  0.00  0.00    +0.000 N 
ATOM      9  C   UNL     1       2.595   7.334  18.410  0.00  0.00    +0.000 A 
ATOM     10  N   UNL     1       2.224   8.438  17.777  0.00  0.00    +0.000 NA
ATOM     11  C   UNL     1       1.535   9.205  18.695  0.00  0.00    +0.000 A 
ATOM     12  C   UNL     1       0.888  10.450  18.552  0.00  0.00    +0.000 A 
ATOM     13  H   UNL     1       2.305   6.658  20.400  0.00  0.00    +0.000 HD
BRANCH   9  14
ATOM     14  C   UNL     1       3.278   6.162  17.835  0.00  0.00    +0.000 A 
ATOM     15  C   UNL     1       4.504   6.310  17.176  0.00  0.00    +0.000 A 
ATOM     16  C   UNL     1       5.137   5.223  16.561  0.00  0.00    +0.000 A 
ATOM     17  C   UNL     1       4.555   3.958  16.611  0.00  0.00    +0.000 A 
ATOM     18  C   UNL     1       3.350   3.780  17.282  0.00  0.00    +0.000 A 
ATOM     19  C   UNL     1       2.715   4.872  17.890  0.00  0.00    +0.000 A 
ENDBRANCH   9  14
ENDBRANCH   1   4
BRANCH   1  24
ATOM     20  C   UNL     1       1.450  15.656  19.413  0.00  0.00    +0.000 C 
ATOM     21  C   UNL     1       1.519  16.008  20.913  0.00  0.00    +0.000 C 
ATOM     22  C   UNL     1       1.152  14.858  21.852  0.00  0.00    +0.000 C 
ATOM     23  C   UNL     1      -0.090  14.069  21.435  0.00  0.00    +0.000 C 
ATOM     24  N   UNL     1      -0.066  13.771  19.992  0.00  0.00    +0.000 NA
ATOM     25  C   UNL     1       0.121  14.947  19.112  0.00  0.00    +0.000 C 
BRANCH  20  31
ATOM     26  C   UNL     1       8.126  16.438  19.187  0.00  0.00    +0.000 C 
ATOM     27  C   UNL     1       6.698  16.353  18.631  0.00  0.00    +0.000 C 
ATOM     28  C   UNL     1       5.677  17.051  19.539  0.00  0.00    +0.000 C 
ATOM     29  C   UNL     1       4.227  16.868  19.053  0.00  0.00    +0.000 C 
ATOM     30  N   UNL     1       3.900  15.473  18.740  0.00  0.00    +0.000 N 
ATOM     31  C   UNL     1       2.665  14.838  18.929  0.00  0.00    +0.000 C 
ATOM     32  O   UNL     1       2.540  13.631  18.706  0.00  0.00    +0.000 OA
ATOM     33  C   UNL     1       4.879  14.787  17.893  0.00  0.00    +0.000 C 
ATOM     34  C   UNL     1       6.296  14.890  18.444  0.00  0.00    +0.000 C 
ENDBRANCH  20  31
ENDBRANCH   1  24
TORSDOF 4
ENDMDL
MODEL 4
REMARK VINA RESULT:      -8.3      2.706      4.569
REMARK  Name = 
REMARK  5 active torsions:
REMARK  status: ('A' for Active; 'I' for Inactive)
REMARK    1  A    between atoms: C_1  and  C_2
REMARK    2  A    between atoms: C_6  and  C_8
REMARK    3  A    between atoms: N_12  and  S_13
REMARK    4  A    between atoms: S_13  and  C_16
REMARK    5  A    between atoms: C_21  and  C_22
REMARK                            x       y       z     vdW  Elec       q    Type
REMARK                         _______ _______ _______ _____ _____    ______ ____
ROOT
ATOM      1  S   UNL     1       0.065   9.462  22.389  0.00  0.00    +0.000 S 
ATOM      2  O   UNL     1       1.189   9.711  23.270  0.00  0.00    +0.000 OA
ATOM      3  O   UNL     1      -0.942   8.485  22.739  0.00  0.00    +0.000 OA
ENDROOT
BRANCH   1   4
ATOM      4  C   UNL     1       0.762   8.939  20.815  0.00  0.00    +0.000 A 
ATOM      5  C   UNL     1       0.782   9.848  19.746  0.00  0.00    +0.000 A 
ATOM      6  C   UNL     1       1.495   9.571  18.570  0.00  0.00    +0.000 A 
ATOM      7  C   UNL     1       2.212   8.373  18.532  0.00  0.00    +0.000 A 
ATOM      8  N   UNL     1       3.034   7.820  17.578  0.00  0.00    +0.000 N 
ATOM      9  C   UNL     1       3.573   6.653  18.069  0.00  0.00    +0.000 A 
ATOM     10  N   UNL     1       3.093   6.416  19.281  0.00  0.00    +0.000 NA
ATOM     11  C   UNL     1       2.247   7.465  19.582  0.00  0.00    +0.000 A 
ATOM     12  C   UNL     1       1.506   7.742  20.748  0.00  0.00    +0.000 A 
ATOM     13  H   UNL     1       3.268   8.239  16.693  0.00  0.00    +0.000 HD
BRANCH   9  14
ATOM     14  C   UNL     1       4.588   5.871  17.341  0.00  0.00    +0.000 A 
ATOM     15  C   UNL     1       5.845   6.423  17.068  0.00  0.00    +0.000 A 
ATOM     16  C   UNL     1       6.800   5.725  16.317  0.00  0.00    +0.000 A 
ATOM     17  C   UNL     1       6.513   4.448  15.839  0.00  0.00    +0.000 A 
ATOM     18  C   UNL     1       5.281   3.868  16.119  0.00  0.00    +0.000 A 
ATOM     19  C   UNL     1       4.324   4.572  16.864  0.00  0.00    +0.000 A 
ENDBRANCH   9  14
ENDBRANCH   1   4
BRANCH   1  24
ATOM     20  C   UNL     1      -0.735  13.058  20.817  0.00  0.00    +0.000 C 
ATOM     21  C   UNL     1      -1.872  13.565  21.727  0.00  0.00    +0.000 C 
ATOM     22  C   UNL     1      -1.967  12.856  23.079  0.00  0.00    +0.000 C 
ATOM     23  C   UNL     1      -1.833  11.334  23.009  0.00  0.00    +0.000 C 
ATOM     24  N   UNL     1      -0.719  10.943  22.126  0.00  0.00    +0.000 NA
ATOM     25  C   UNL     1      -0.765  11.524  20.764  0.00  0.00    +0.000 C 
BRANCH  20  31
ATOM     26  C   UNL     1       4.805  15.256  17.702  0.00  0.00    +0.000 C 
ATOM     27  C   UNL     1       3.935  14.283  18.510  0.00  0.00    +0.000 C 
ATOM     28  C   UNL     1       2.498  14.208  17.979  0.00  0.00    +0.000 C 
ATOM     29  C   UNL     1       1.587  13.329  18.856  0.00  0.00    +0.000 C 
ATOM     30  N   UNL     1       1.684  13.648  20.284  0.00  0.00    +0.000 N 
ATOM     31  C   UNL     1       0.651  13.598  21.227  0.00  0.00    +0.000 C 
ATOM     32  O   UNL     1       0.841  13.976  22.387  0.00  0.00    +0.000 OA
ATOM     33  C   UNL     1       3.053  13.748  20.799  0.00  0.00    +0.000 C 
ATOM     34  C   UNL     1       3.913  14.702  19.981  0.00  0.00    +0.000 C 
ENDBRANCH  20  31
ENDBRANCH   1  24
TORSDOF 4
ENDMDL
MODEL 5
REMARK VINA RESULT:      -8.1      8.502     10.165
REMARK  Name = 
REMARK  5 active torsions:
REMARK  status: ('A' for Active; 'I' for Inactive)
REMARK    1  A    between atoms: C_1  and  C_2
REMARK    2  A    between atoms: C_6  and  C_8
REMARK    3  A    between atoms: N_12  and  S_13
REMARK    4  A    between atoms: S_13  and  C_16
REMARK    5  A    between atoms: C_21  and  C_22
REMARK                            x       y       z     vdW  Elec       q    Type
REMARK                         _______ _______ _______ _____ _____    ______ ____
ROOT
ATOM      1  S   UNL     1      10.411  15.183  18.842  0.00  0.00    +0.000 S 
ATOM      2  O   UNL     1      10.049  15.420  17.458  0.00  0.00    +0.000 OA
ATOM      3  O   UNL     1      11.713  15.567  19.338  0.00  0.00    +0.000 OA
ENDROOT
BRANCH   1   4
ATOM      4  C   UNL     1      10.263  13.410  19.107  0.00  0.00    +0.000 A 
ATOM      5  C   UNL     1      10.488  12.895  20.392  0.00  0.00    +0.000 A 
ATOM      6  C   UNL     1      10.185  11.561  20.704  0.00  0.00    +0.000 A 
ATOM      7  C   UNL     1       9.614  10.788  19.690  0.00  0.00    +0.000 A 
ATOM      8  N   UNL     1       9.164   9.489  19.663  0.00  0.00    +0.000 N 
ATOM      9  C   UNL     1       8.601   9.232  18.435  0.00  0.00    +0.000 A 
ATOM     10  N   UNL     1       8.714  10.301  17.660  0.00  0.00    +0.000 NA
ATOM     11  C   UNL     1       9.341  11.271  18.417  0.00  0.00    +0.000 A 
ATOM     12  C   UNL     1       9.674  12.605  18.108  0.00  0.00    +0.000 A 
ATOM     13  H   UNL     1       9.171   8.850  20.442  0.00  0.00    +0.000 HD
BRANCH   9  14
ATOM     14  C   UNL     1       7.918   7.965  18.114  0.00  0.00    +0.000 A 
ATOM     15  C   UNL     1       6.911   7.931  17.143  0.00  0.00    +0.000 A 
ATOM     16  C   UNL     1       6.201   6.754  16.872  0.00  0.00    +0.000 A 
ATOM     17  C   UNL     1       6.502   5.583  17.563  0.00  0.00    +0.000 A 
ATOM     18  C   UNL     1       7.517   5.586  18.514  0.00  0.00    +0.000 A 
ATOM     19  C   UNL     1       8.221   6.767  18.789  0.00  0.00    +0.000 A 
ENDBRANCH   9  14
ENDBRANCH   1   4
BRANCH   1  24
ATOM     20  C   UNL     1       8.154  15.996  22.049  0.00  0.00    +0.000 C 
ATOM     21  C   UNL     1       7.159  17.034  21.492  0.00  0.00    +0.000 C 
ATOM     22  C   UNL     1       7.031  17.037  19.968  0.00  0.00    +0.000 C 
ATOM     23  C   UNL     1       8.363  16.959  19.219  0.00  0.00    +0.000 C 
ATOM     24  N   UNL     1       9.243  15.938  19.814  0.00  0.00    +0.000 NA
ATOM     25  C   UNL     1       9.474  16.080  21.270  0.00  0.00    +0.000 C 
BRANCH  20  31
ATOM     26  C   UNL     1       6.522  11.414  26.694  0.00  0.00    +0.000 C 
ATOM     27  C   UNL     1       7.353  12.044  25.567  0.00  0.00    +0.000 C 
ATOM     28  C   UNL     1       7.482  13.565  25.719  0.00  0.00    +0.000 C 
ATOM     29  C   UNL     1       8.209  14.220  24.531  0.00  0.00    +0.000 C 
ATOM     30  N   UNL     1       7.686  13.788  23.230  0.00  0.00    +0.000 N 
ATOM     31  C   UNL     1       7.582  14.563  22.068  0.00  0.00    +0.000 C 
ATOM     32  O   UNL     1       7.042  14.107  21.056  0.00  0.00    +0.000 OA
ATOM     33  C   UNL     1       7.534  12.338  23.080  0.00  0.00    +0.000 C 
ATOM     34  C   UNL     1       6.724  11.720  24.212  0.00  0.00    +0.000 C 
ENDBRANCH  20  31
ENDBRANCH   1  24
TORSDOF 4
ENDMDL
MODEL 6
REMARK VINA RESULT:      -8.1      3.641     10.850
REMARK  Name = 
REMARK  5 active torsions:
REMARK  status: ('A' for Active; 'I' for Inactive)
REMARK    1  A    between atoms: C_1  and  C_2
REMARK    2  A    between atoms: C_6  and  C_8
REMARK    3  A    between atoms: N_12  and  S_13
REMARK    4  A    between atoms: S_13  and  C_16
REMARK    5  A    between atoms: C_21  and  C_22
REMARK                            x       y       z     vdW  Elec       q    Type
REMARK                         _______ _______ _______ _____ _____    ______ ____
ROOT
ATOM      1  S   UNL     1       2.738   5.669  18.904  0.00  0.00    +0.000 S 
ATOM      2  O   UNL     1       1.902   5.152  17.839  0.00  0.00    +0.000 OA
ATOM      3  O   UNL     1       2.729   5.052  20.212  0.00  0.00    +0.000 OA
ENDROOT
BRANCH   1   4
ATOM      4  C   UNL     1       2.251   7.384  19.143  0.00  0.00    +0.000 A 
ATOM      5  C   UNL     1       2.030   8.190  18.015  0.00  0.00    +0.000 A 
ATOM      6  C   UNL     1       1.450   9.462  18.134  0.00  0.00    +0.000 A 
ATOM      7  C   UNL     1       1.070   9.868  19.415  0.00  0.00    +0.000 A 
ATOM      8  N   UNL     1       0.450  11.005  19.876  0.00  0.00    +0.000 N 
ATOM      9  C   UNL     1       0.216  10.876  21.226  0.00  0.00    +0.000 A 
ATOM     10  N   UNL     1       0.703   9.720  21.654  0.00  0.00    +0.000 NA
ATOM     11  C   UNL     1       1.238   9.085  20.551  0.00  0.00    +0.000 A 
ATOM     12  C   UNL     1       1.845   7.820  20.423  0.00  0.00    +0.000 A 
ATOM     13  H   UNL     1       0.143  11.777  19.307  0.00  0.00    +0.000 HD
BRANCH   9  14
ATOM     14  C   UNL     1      -0.538  11.872  22.009  0.00  0.00    +0.000 A 
ATOM     15  C   UNL     1      -1.630  11.478  22.791  0.00  0.00    +0.000 A 
ATOM     16  C   UNL     1      -2.404  12.415  23.486  0.00  0.00    +0.000 A 
ATOM     17  C   UNL     1      -2.083  13.770  23.422  0.00  0.00    +0.000 A 
ATOM     18  C   UNL     1      -0.987  14.183  22.673  0.00  0.00    +0.000 A 
ATOM     19  C   UNL     1      -0.218  13.243  21.971  0.00  0.00    +0.000 A 
ENDBRANCH   9  14
ENDBRANCH   1   4
BRANCH   1  24
ATOM     20  C   UNL     1       5.824   5.904  16.363  0.00  0.00    +0.000 C 
ATOM     21  C   UNL     1       7.016   5.516  17.262  0.00  0.00    +0.000 C 
ATOM     22  C   UNL     1       6.632   4.759  18.534  0.00  0.00    +0.000 C 
ATOM     23  C   UNL     1       5.429   5.341  19.280  0.00  0.00    +0.000 C 
ATOM     24  N   UNL     1       4.339   5.673  18.345  0.00  0.00    +0.000 NA
ATOM     25  C   UNL     1       4.726   6.552  17.218  0.00  0.00    +0.000 C 
BRANCH  20  31
ATOM     26  C   UNL     1       7.717   2.493  10.884  0.00  0.00    +0.000 C 
ATOM     27  C   UNL     1       6.875   3.474  11.712  0.00  0.00    +0.000 C 
ATOM     28  C   UNL     1       7.732   4.317  12.665  0.00  0.00    +0.000 C 
ATOM     29  C   UNL     1       6.886   5.216  13.586  0.00  0.00    +0.000 C 
ATOM     30  N   UNL     1       5.790   4.495  14.241  0.00  0.00    +0.000 N 
ATOM     31  C   UNL     1       5.289   4.722  15.529  0.00  0.00    +0.000 C 
ATOM     32  O   UNL     1       4.416   3.987  16.001  0.00  0.00    +0.000 OA
ATOM     33  C   UNL     1       4.977   3.667  13.346  0.00  0.00    +0.000 C 
ATOM     34  C   UNL     1       5.823   2.709  12.516  0.00  0.00    +0.000 C 
ENDBRANCH  20  31
ENDBRANCH   1  24
TORSDOF 4
ENDMDL
MODEL 7
REMARK VINA RESULT:      -8.0      2.730      3.849
REMARK  Name = 
REMARK  5 active torsions:
REMARK  status: ('A' for Active; 'I' for Inactive)
REMARK    1  A    between atoms: C_1  and  C_2
REMARK    2  A    between atoms: C_6  and  C_8
REMARK    3  A    between atoms: N_12  and  S_13
REMARK    4  A    between atoms: S_13  and  C_16
REMARK    5  A    between atoms: C_21  and  C_22
REMARK                            x       y       z     vdW  Elec       q    Type
REMARK                         _______ _______ _______ _____ _____    ______ ____
ROOT
ATOM      1  S   UNL     1       1.006  11.741  19.670  0.00  0.00    +0.000 S 
ATOM      2  O   UNL     1       1.785  11.984  18.471  0.00  0.00    +0.000 OA
ATOM      3  O   UNL     1       1.193  12.560  20.846  0.00  0.00    +0.000 OA
ENDROOT
BRANCH   1   4
ATOM      4  C   UNL     1       1.354  10.046  20.163  0.00  0.00    +0.000 A 
ATOM      5  C   UNL     1       0.709   9.523  21.294  0.00  0.00    +0.000 A 
ATOM      6  C   UNL     1       0.778   8.156  21.602  0.00  0.00    +0.000 A 
ATOM      7  C   UNL     1       1.482   7.341  20.713  0.00  0.00    +0.000 A 
ATOM      8  N   UNL     1       1.707   5.985  20.685  0.00  0.00    +0.000 N 
ATOM      9  C   UNL     1       2.392   5.665  19.536  0.00  0.00    +0.000 A 
ATOM     10  N   UNL     1       2.653   6.768  18.851  0.00  0.00    +0.000 NA
ATOM     11  C   UNL     1       2.102   7.814  19.564  0.00  0.00    +0.000 A 
ATOM     12  C   UNL     1       2.048   9.194  19.278  0.00  0.00    +0.000 A 
ATOM     13  H   UNL     1       1.359   5.319  21.356  0.00  0.00    +0.000 HD
BRANCH   9  14
ATOM     14  C   UNL     1       2.692   4.276  19.142  0.00  0.00    +0.000 A 
ATOM     15  C   UNL     1       3.737   3.577  19.758  0.00  0.00    +0.000 A 
ATOM     16  C   UNL     1       4.086   2.282  19.351  0.00  0.00    +0.000 A 
ATOM     17  C   UNL     1       3.378   1.659  18.325  0.00  0.00    +0.000 A 
ATOM     18  C   UNL     1       2.320   2.324  17.716  0.00  0.00    +0.000 A 
ATOM     19  C   UNL     1       1.977   3.622  18.119  0.00  0.00    +0.000 A 
ENDBRANCH   9  14
ENDBRANCH   1   4
BRANCH   1  24
ATOM     20  C   UNL     1      -2.815  12.938  19.646  0.00  0.00    +0.000 C 
ATOM     21  C   UNL     1      -3.476  11.901  18.715  0.00  0.00    +0.000 C 
ATOM     22  C   UNL     1      -2.676  10.609  18.536  0.00  0.00    +0.000 C 
ATOM     23  C   UNL     1      -1.178  10.816  18.305  0.00  0.00    +0.000 C 
ATOM     24  N   UNL     1      -0.633  11.815  19.241  0.00  0.00    +0.000 NA
ATOM     25  C   UNL     1      -1.341  13.116  19.253  0.00  0.00    +0.000 C 
BRANCH  20  31
ATOM     26  C   UNL     1      -7.634  13.471  24.307  0.00  0.00    +0.000 C 
ATOM     27  C   UNL     1      -6.318  13.815  23.596  0.00  0.00    +0.000 C 
ATOM     28  C   UNL     1      -6.455  13.781  22.068  0.00  0.00    +0.000 C 
ATOM     29  C   UNL     1      -5.114  14.005  21.346  0.00  0.00    +0.000 C 
ATOM     30  N   UNL     1      -4.034  13.163  21.871  0.00  0.00    +0.000 N 
ATOM     31  C   UNL     1      -2.981  12.598  21.141  0.00  0.00    +0.000 C 
ATOM     32  O   UNL     1      -2.179  11.834  21.686  0.00  0.00    +0.000 OA
ATOM     33  C   UNL     1      -3.906  13.167  23.331  0.00  0.00    +0.000 C 
ATOM     34  C   UNL     1      -5.221  12.842  24.029  0.00  0.00    +0.000 C 
ENDBRANCH  20  31
ENDBRANCH   1  24
TORSDOF 4
ENDMDL
MODEL 8
REMARK VINA RESULT:      -7.9      2.933      5.741
REMARK  Name = 
REMARK  5 active torsions:
REMARK  status: ('A' for Active; 'I' for Inactive)
REMARK    1  A    between atoms: C_1  and  C_2
REMARK    2  A    between atoms: C_6  and  C_8
REMARK    3  A    between atoms: N_12  and  S_13
REMARK    4  A    between atoms: S_13  and  C_16
REMARK    5  A    between atoms: C_21  and  C_22
REMARK                            x       y       z     vdW  Elec       q    Type
REMARK                         _______ _______ _______ _____ _____    ______ ____
ROOT
ATOM      1  S   UNL     1      -1.291  12.324  19.067  0.00  0.00    +0.000 S 
ATOM      2  O   UNL     1      -2.597  11.701  19.153  0.00  0.00    +0.000 OA
ATOM      3  O   UNL     1      -0.869  12.982  17.851  0.00  0.00    +0.000 OA
ENDROOT
BRANCH   1   4
ATOM      4  C   UNL     1      -0.088  11.025  19.390  0.00  0.00    +0.000 A 
ATOM      5  C   UNL     1       0.018  10.508  20.690  0.00  0.00    +0.000 A 
ATOM      6  C   UNL     1       0.781   9.360  20.954  0.00  0.00    +0.000 A 
ATOM      7  C   UNL     1       1.393   8.741  19.863  0.00  0.00    +0.000 A 
ATOM      8  N   UNL     1       2.158   7.603  19.757  0.00  0.00    +0.000 N 
ATOM      9  C   UNL     1       2.445   7.374  18.431  0.00  0.00    +0.000 A 
ATOM     10  N   UNL     1       1.932   8.345  17.690  0.00  0.00    +0.000 NA
ATOM     11  C   UNL     1       1.282   9.201  18.557  0.00  0.00    +0.000 A 
ATOM     12  C   UNL     1       0.534  10.369  18.306  0.00  0.00    +0.000 A 
ATOM     13  H   UNL     1       2.404   6.990  20.517  0.00  0.00    +0.000 HD
BRANCH   9  14
ATOM     14  C   UNL     1       3.153   6.170  17.960  0.00  0.00    +0.000 A 
ATOM     15  C   UNL     1       4.485   6.254  17.535  0.00  0.00    +0.000 A 
ATOM     16  C   UNL     1       5.155   5.139  17.018  0.00  0.00    +0.000 A 
ATOM     17  C   UNL     1       4.503   3.910  16.933  0.00  0.00    +0.000 A 
ATOM     18  C   UNL     1       3.189   3.796  17.373  0.00  0.00    +0.000 A 
ATOM     19  C   UNL     1       2.518   4.916  17.883  0.00  0.00    +0.000 A 
ENDBRANCH   9  14
ENDBRANCH   1   4
BRANCH   1  24
ATOM     20  C   UNL     1       0.030  15.440  21.208  0.00  0.00    +0.000 C 
ATOM     21  C   UNL     1      -0.771  15.298  22.518  0.00  0.00    +0.000 C 
ATOM     22  C   UNL     1      -1.351  13.903  22.759  0.00  0.00    +0.000 C 
ATOM     23  C   UNL     1      -2.011  13.270  21.532  0.00  0.00    +0.000 C 
ATOM     24  N   UNL     1      -1.173  13.447  20.332  0.00  0.00    +0.000 NA
ATOM     25  C   UNL     1      -0.777  14.845  20.045  0.00  0.00    +0.000 C 
BRANCH  20  31
ATOM     26  C   UNL     1       6.196  17.018  19.034  0.00  0.00    +0.000 C 
ATOM     27  C   UNL     1       4.874  16.238  19.078  0.00  0.00    +0.000 C 
ATOM     28  C   UNL     1       3.664  17.156  19.288  0.00  0.00    +0.000 C 
ATOM     29  C   UNL     1       2.348  16.375  19.456  0.00  0.00    +0.000 C 
ATOM     30  N   UNL     1       2.450  15.282  20.429  0.00  0.00    +0.000 N 
ATOM     31  C   UNL     1       1.447  14.837  21.299  0.00  0.00    +0.000 C 
ATOM     32  O   UNL     1       1.686  13.961  22.135  0.00  0.00    +0.000 OA
ATOM     33  C   UNL     1       3.616  14.411  20.254  0.00  0.00    +0.000 C 
ATOM     34  C   UNL     1       4.921  15.194  20.194  0.00  0.00    +0.000 C 
ENDBRANCH  20  31
ENDBRANCH   1  24
TORSDOF 4
ENDMDL
MODEL 9
REMARK VINA RESULT:      -7.9      3.621      6.647
REMARK  Name = 
REMARK  5 active torsions:
REMARK  status: ('A' for Active; 'I' for Inactive)
REMARK    1  A    between atoms: C_1  and  C_2
REMARK    2  A    between atoms: C_6  and  C_8
REMARK    3  A    between atoms: N_12  and  S_13
REMARK    4  A    between atoms: S_13  and  C_16
REMARK    5  A    between atoms: C_21  and  C_22
REMARK                            x       y       z     vdW  Elec       q    Type
REMARK                         _______ _______ _______ _____ _____    ______ ____
ROOT
ATOM      1  S   UNL     1      -0.598  12.334  19.202  0.00  0.00    +0.000 S 
ATOM      2  O   UNL     1      -1.458  12.685  20.315  0.00  0.00    +0.000 OA
ATOM      3  O   UNL     1      -1.163  11.988  17.917  0.00  0.00    +0.000 OA
ENDROOT
BRANCH   1   4
ATOM      4  C   UNL     1       0.369  10.915  19.737  0.00  0.00    +0.000 A 
ATOM      5  C   UNL     1       0.266  10.487  21.069  0.00  0.00    +0.000 A 
ATOM      6  C   UNL     1       0.828   9.271  21.486  0.00  0.00    +0.000 A 
ATOM      7  C   UNL     1       1.456   8.495  20.510  0.00  0.00    +0.000 A 
ATOM      8  N   UNL     1       2.059   7.260  20.560  0.00  0.00    +0.000 N 
ATOM      9  C   UNL     1       2.447   6.896  19.291  0.00  0.00    +0.000 A 
ATOM     10  N   UNL     1       2.155   7.868  18.439  0.00  0.00    +0.000 NA
ATOM     11  C   UNL     1       1.547   8.866  19.174  0.00  0.00    +0.000 A 
ATOM     12  C   UNL     1       1.001  10.102  18.771  0.00  0.00    +0.000 A 
ATOM     13  H   UNL     1       2.136   6.678  21.378  0.00  0.00    +0.000 HD
BRANCH   9  14
ATOM     14  C   UNL     1       3.023   5.576  18.976  0.00  0.00    +0.000 A 
ATOM     15  C   UNL     1       3.305   5.226  17.650  0.00  0.00    +0.000 A 
ATOM     16  C   UNL     1       3.787   3.952  17.320  0.00  0.00    +0.000 A 
ATOM     17  C   UNL     1       4.009   3.009  18.322  0.00  0.00    +0.000 A 
ATOM     18  C   UNL     1       3.761   3.343  19.649  0.00  0.00    +0.000 A 
ATOM     19  C   UNL     1       3.271   4.615  19.976  0.00  0.00    +0.000 A 
ENDBRANCH   9  14
ENDBRANCH   1   4
BRANCH   1  24
ATOM     20  C   UNL     1       2.863  14.342  19.012  0.00  0.00    +0.000 C 
ATOM     21  C   UNL     1       2.386  15.787  18.761  0.00  0.00    +0.000 C 
ATOM     22  C   UNL     1       0.927  16.049  19.135  0.00  0.00    +0.000 C 
ATOM     23  C   UNL     1      -0.050  14.964  18.678  0.00  0.00    +0.000 C 
ATOM     24  N   UNL     1       0.483  13.620  18.964  0.00  0.00    +0.000 NA
ATOM     25  C   UNL     1       1.839  13.356  18.430  0.00  0.00    +0.000 C 
BRANCH  20  31
ATOM     26  C   UNL     1       7.206  16.530  23.656  0.00  0.00    +0.000 C 
ATOM     27  C   UNL     1       6.600  15.543  22.648  0.00  0.00    +0.000 C 
ATOM     28  C   UNL     1       6.135  16.238  21.362  0.00  0.00    +0.000 C 
ATOM     29  C   UNL     1       5.416  15.279  20.396  0.00  0.00    +0.000 C 
ATOM     30  N   UNL     1       4.380  14.475  21.053  0.00  0.00    +0.000 N 
ATOM     31  C   UNL     1       3.164  14.056  20.497  0.00  0.00    +0.000 C 
ATOM     32  O   UNL     1       2.335  13.453  21.184  0.00  0.00    +0.000 OA
ATOM     33  C   UNL     1       4.803  13.825  22.297  0.00  0.00    +0.000 C 
ATOM     34  C   UNL     1       5.419  14.808  23.284  0.00  0.00    +0.000 C 
ENDBRANCH  20  31
ENDBRANCH   1  24
TORSDOF 4
ENDMDL
