MODEL 1
REMARK VINA RESULT:      -7.4      0.000      0.000
REMARK  Name = 
REMARK  5 active torsions:
REMARK  status: ('A' for Active; 'I' for Inactive)
REMARK    1  A    between atoms: C_1  and  O_2
REMARK    2  A    between atoms: O_2  and  C_3
REMARK    3  A    between atoms: C_6  and  S_7
REMARK    4  A    between atoms: S_7  and  N_10
REMARK    5  A    between atoms: C_13  and  C_14
REMARK                            x       y       z     vdW  Elec       q    Type
REMARK                         _______ _______ _______ _____ _____    ______ ____
ROOT
ATOM      1  N   UNL     1       4.419   4.247  19.222  0.00  0.00    +0.000 N 
ATOM      2  C   UNL     1       3.308   4.966  19.737  0.00  0.00    +0.000 A 
ATOM      3  N   UNL     1       3.215   6.250  19.501  0.00  0.00    +0.000 NA
ATOM      4  C   UNL     1       2.061   6.741  20.102  0.00  0.00    +0.000 A 
ATOM      5  C   UNL     1       1.353   5.812  20.843  0.00  0.00    +0.000 A 
ATOM      6  S   UNL     1       2.142   4.290  20.783  0.00  0.00    +0.000 S 
ATOM      7  H   UNL     1       5.091   4.957  18.925  0.00  0.00    +0.000 HD
ENDROOT
BRANCH   4   8
ATOM      8  C   UNL     1       1.637   8.126  19.932  0.00  0.00    +0.000 A 
ATOM      9  C   UNL     1       1.088   8.829  21.015  0.00  0.00    +0.000 A 
ATOM     10  C   UNL     1       0.693  10.164  20.872  0.00  0.00    +0.000 A 
ATOM     11  C   UNL     1       0.836  10.801  19.642  0.00  0.00    +0.000 A 
ATOM     12 CL   UNL     1       0.339  12.438  19.459  0.00  0.00    +0.000 Cl
ATOM     13  C   UNL     1       1.376  10.118  18.556  0.00  0.00    +0.000 A 
ATOM     14  C   UNL     1       1.776   8.785  18.700  0.00  0.00    +0.000 A 
ENDBRANCH   4   8
BRANCH   1  15
ATOM     15  S   UNL     1       3.982   3.439  17.794  0.00  0.00    +0.000 S 
ATOM     16  O   UNL     1       2.720   4.020  17.385  0.00  0.00    +0.000 OA
ATOM     17  O   UNL     1       4.159   2.009  17.917  0.00  0.00    +0.000 OA
BRANCH  15  21
ATOM     18  C   UNL     1       7.111   5.001  14.849  0.00  0.00    +0.000 A 
ATOM     19  C   UNL     1       5.901   4.473  14.383  0.00  0.00    +0.000 A 
ATOM     20  C   UNL     1       4.946   3.982  15.277  0.00  0.00    +0.000 A 
ATOM     21  C   UNL     1       5.222   3.999  16.646  0.00  0.00    +0.000 A 
ATOM     22  C   UNL     1       6.433   4.508  17.122  0.00  0.00    +0.000 A 
ATOM     23  C   UNL     1       7.376   5.010  16.219  0.00  0.00    +0.000 A 
BRANCH  18  25
ATOM     24  C   UNL     1       7.654   5.036  12.544  0.00  0.00    +0.000 C 
ATOM     25  O   UNL     1       7.960   5.446  13.874  0.00  0.00    +0.000 OA
ENDBRANCH  18  25
ENDBRANCH  15  21
ENDBRANCH   1  15
TORSDOF 4
ENDMDL
MODEL 2
REMARK VINA RESULT:      -7.4      3.085      3.960
REMARK  Name = 
REMARK  5 active torsions:
REMARK  status: ('A' for Active; 'I' for Inactive)
REMARK    1  A    between atoms: C_1  and  O_2
REMARK    2  A    between atoms: O_2  and  C_3
REMARK    3  A    between atoms: C_6  and  S_7
REMARK    4  A    between atoms: S_7  and  N_10
REMARK    5  A    between atoms: C_13  and  C_14
REMARK                            x       y       z     vdW  Elec       q    Type
REMARK                         _______ _______ _______ _____ _____    ______ ____
ROOT
ATOM      1  N   UNL     1       6.113   4.361  19.047  0.00  0.00    +0.000 N 
ATOM      2  C   UNL     1       4.774   4.755  18.790  0.00  0.00    +0.000 A 
ATOM      3  N   UNL     1       4.349   5.905  19.249  0.00  0.00    +0.000 NA
ATOM      4  C   UNL     1       3.017   6.076  18.885  0.00  0.00    +0.000 A 
ATOM      5  C   UNL     1       2.455   5.001  18.220  0.00  0.00    +0.000 A 
ATOM      6  S   UNL     1       3.617   3.751  18.038  0.00  0.00    +0.000 S 
ATOM      7  H   UNL     1       6.452   4.997  19.772  0.00  0.00    +0.000 HD
ENDROOT
BRANCH   4   8
ATOM      8  C   UNL     1       2.296   7.310  19.173  0.00  0.00    +0.000 A 
ATOM      9  C   UNL     1       2.126   8.273  18.167  0.00  0.00    +0.000 A 
ATOM     10  C   UNL     1       1.420   9.455  18.423  0.00  0.00    +0.000 A 
ATOM     11  C   UNL     1       0.888   9.684  19.690  0.00  0.00    +0.000 A 
ATOM     12 CL   UNL     1       0.032  11.141  20.012  0.00  0.00    +0.000 Cl
ATOM     13  C   UNL     1       1.050   8.741  20.701  0.00  0.00    +0.000 A 
ATOM     14  C   UNL     1       1.751   7.557  20.443  0.00  0.00    +0.000 A 
ENDBRANCH   4   8
BRANCH   1  15
ATOM     15  S   UNL     1       7.088   4.686  17.695  0.00  0.00    +0.000 S 
ATOM     16  O   UNL     1       6.214   4.578  16.546  0.00  0.00    +0.000 OA
ATOM     17  O   UNL     1       8.347   3.978  17.764  0.00  0.00    +0.000 OA
BRANCH  15  21
ATOM     18  C   UNL     1       8.183   9.100  18.165  0.00  0.00    +0.000 A 
ATOM     19  C   UNL     1       8.728   8.140  19.025  0.00  0.00    +0.000 A 
ATOM     20  C   UNL     1       8.388   6.791  18.895  0.00  0.00    +0.000 A 
ATOM     21  C   UNL     1       7.473   6.411  17.910  0.00  0.00    +0.000 A 
ATOM     22  C   UNL     1       6.909   7.363  17.056  0.00  0.00    +0.000 A 
ATOM     23  C   UNL     1       7.268   8.708  17.187  0.00  0.00    +0.000 A 
BRANCH  18  25
ATOM     24  C   UNL     1       9.374  10.586  19.573  0.00  0.00    +0.000 C 
ATOM     25  O   UNL     1       8.594  10.384  18.398  0.00  0.00    +0.000 OA
ENDBRANCH  18  25
ENDBRANCH  15  21
ENDBRANCH   1  15
TORSDOF 4
ENDMDL
MODEL 3
REMARK VINA RESULT:      -7.3      0.295      1.027
REMARK  Name = 
REMARK  5 active torsions:
REMARK  status: ('A' for Active; 'I' for Inactive)
REMARK    1  A    between atoms: C_1  and  O_2
REMARK    2  A    between atoms: O_2  and  C_3
REMARK    3  A    between atoms: C_6  and  S_7
REMARK    4  A    between atoms: S_7  and  N_10
REMARK    5  A    between atoms: C_13  and  C_14
REMARK                            x       y       z     vdW  Elec       q    Type
REMARK                         _______ _______ _______ _____ _____    ______ ____
ROOT
ATOM      1  N   UNL     1       4.426   4.421  19.301  0.00  0.00    +0.000 N 
ATOM      2  C   UNL     1       3.307   5.175  19.746  0.00  0.00    +0.000 A 
ATOM      3  N   UNL     1       3.225   6.441  19.426  0.00  0.00    +0.000 NA
ATOM      4  C   UNL     1       2.061   6.973  19.970  0.00  0.00    +0.000 A 
ATOM      5  C   UNL     1       1.334   6.097  20.755  0.00  0.00    +0.000 A 
ATOM      6  S   UNL     1       2.118   4.571  20.810  0.00  0.00    +0.000 S 
ATOM      7  H   UNL     1       5.107   5.109  18.973  0.00  0.00    +0.000 HD
ENDROOT
BRANCH   4   8
ATOM      8  C   UNL     1       1.646   8.345  19.702  0.00  0.00    +0.000 A 
ATOM      9  C   UNL     1       1.881   8.915  18.442  0.00  0.00    +0.000 A 
ATOM     10  C   UNL     1       1.473  10.226  18.164  0.00  0.00    +0.000 A 
ATOM     11  C   UNL     1       0.835  10.976  19.149  0.00  0.00    +0.000 A 
ATOM     12 CL   UNL     1       0.344  12.591  18.816  0.00  0.00    +0.000 Cl
ATOM     13  C   UNL     1       0.597  10.428  20.406  0.00  0.00    +0.000 A 
ATOM     14  C   UNL     1       1.000   9.117  20.682  0.00  0.00    +0.000 A 
ENDBRANCH   4   8
BRANCH   1  15
ATOM     15  S   UNL     1       4.014   3.523  17.920  0.00  0.00    +0.000 S 
ATOM     16  O   UNL     1       2.742   4.052  17.474  0.00  0.00    +0.000 OA
ATOM     17  O   UNL     1       4.222   2.107  18.124  0.00  0.00    +0.000 OA
BRANCH  15  21
ATOM     18  C   UNL     1       7.127   4.989  14.909  0.00  0.00    +0.000 A 
ATOM     19  C   UNL     1       5.901   4.476  14.468  0.00  0.00    +0.000 A 
ATOM     20  C   UNL     1       4.951   4.015  15.382  0.00  0.00    +0.000 A 
ATOM     21  C   UNL     1       5.247   4.045  16.747  0.00  0.00    +0.000 A 
ATOM     22  C   UNL     1       6.474   4.539  17.198  0.00  0.00    +0.000 A 
ATOM     23  C   UNL     1       7.412   5.011  16.275  0.00  0.00    +0.000 A 
BRANCH  18  25
ATOM     24  C   UNL     1       7.599   5.040  12.589  0.00  0.00    +0.000 C 
ATOM     25  O   UNL     1       7.969   5.405  13.915  0.00  0.00    +0.000 OA
ENDBRANCH  18  25
ENDBRANCH  15  21
ENDBRANCH   1  15
TORSDOF 4
ENDMDL
MODEL 4
REMARK VINA RESULT:      -7.3      0.177      1.003
REMARK  Name = 
REMARK  5 active torsions:
REMARK  status: ('A' for Active; 'I' for Inactive)
REMARK    1  A    between atoms: C_1  and  O_2
REMARK    2  A    between atoms: O_2  and  C_3
REMARK    3  A    between atoms: C_6  and  S_7
REMARK    4  A    between atoms: S_7  and  N_10
REMARK    5  A    between atoms: C_13  and  C_14
REMARK                            x       y       z     vdW  Elec       q    Type
REMARK                         _______ _______ _______ _____ _____    ______ ____
ROOT
ATOM      1  N   UNL     1       4.322   4.143  19.295  0.00  0.00    +0.000 N 
ATOM      2  C   UNL     1       3.219   4.910  19.752  0.00  0.00    +0.000 A 
ATOM      3  N   UNL     1       3.185   6.193  19.494  0.00  0.00    +0.000 NA
ATOM      4  C   UNL     1       2.027   6.736  20.039  0.00  0.00    +0.000 A 
ATOM      5  C   UNL     1       1.254   5.847  20.763  0.00  0.00    +0.000 A 
ATOM      6  S   UNL     1       1.986   4.295  20.758  0.00  0.00    +0.000 S 
ATOM      7  H   UNL     1       5.033   4.822  19.016  0.00  0.00    +0.000 HD
ENDROOT
BRANCH   4   8
ATOM      8  C   UNL     1       1.663   8.133  19.832  0.00  0.00    +0.000 A 
ATOM      9  C   UNL     1       1.148   8.889  20.896  0.00  0.00    +0.000 A 
ATOM     10  C   UNL     1       0.811  10.236  20.717  0.00  0.00    +0.000 A 
ATOM     11  C   UNL     1       0.979  10.832  19.469  0.00  0.00    +0.000 A 
ATOM     12 CL   UNL     1       0.553  12.484  19.242  0.00  0.00    +0.000 Cl
ATOM     13  C   UNL     1       1.485  10.097  18.402  0.00  0.00    +0.000 A 
ATOM     14  C   UNL     1       1.827   8.752  18.582  0.00  0.00    +0.000 A 
ENDBRANCH   4   8
BRANCH   1  15
ATOM     15  S   UNL     1       3.914   3.328  17.861  0.00  0.00    +0.000 S 
ATOM     16  O   UNL     1       2.602   3.816  17.494  0.00  0.00    +0.000 OA
ATOM     17  O   UNL     1       4.205   1.915  17.951  0.00  0.00    +0.000 OA
BRANCH  15  21
ATOM     18  C   UNL     1       6.971   4.946  14.870  0.00  0.00    +0.000 A 
ATOM     19  C   UNL     1       7.197   5.061  16.246  0.00  0.00    +0.000 A 
ATOM     20  C   UNL     1       6.261   4.580  17.166  0.00  0.00    +0.000 A 
ATOM     21  C   UNL     1       5.078   4.004  16.696  0.00  0.00    +0.000 A 
ATOM     22  C   UNL     1       4.833   3.899  15.324  0.00  0.00    +0.000 A 
ATOM     23  C   UNL     1       5.783   4.371  14.413  0.00  0.00    +0.000 A 
BRANCH  18  25
ATOM     24  C   UNL     1       7.836   5.207  12.681  0.00  0.00    +0.000 C 
ATOM     25  O   UNL     1       7.961   5.456  14.077  0.00  0.00    +0.000 OA
ENDBRANCH  18  25
ENDBRANCH  15  21
ENDBRANCH   1  15
TORSDOF 4
ENDMDL
MODEL 5
REMARK VINA RESULT:      -7.1      3.075      3.844
REMARK  Name = 
REMARK  5 active torsions:
REMARK  status: ('A' for Active; 'I' for Inactive)
REMARK    1  A    between atoms: C_1  and  O_2
REMARK    2  A    between atoms: O_2  and  C_3
REMARK    3  A    between atoms: C_6  and  S_7
REMARK    4  A    between atoms: S_7  and  N_10
REMARK    5  A    between atoms: C_13  and  C_14
REMARK                            x       y       z     vdW  Elec       q    Type
REMARK                         _______ _______ _______ _____ _____    ______ ____
ROOT
ATOM      1  N   UNL     1       5.985   4.286  18.538  0.00  0.00    +0.000 N 
ATOM      2  C   UNL     1       4.643   4.724  18.387  0.00  0.00    +0.000 A 
ATOM      3  N   UNL     1       4.244   5.791  19.031  0.00  0.00    +0.000 NA
ATOM      4  C   UNL     1       2.905   6.025  18.741  0.00  0.00    +0.000 A 
ATOM      5  C   UNL     1       2.311   5.070  17.935  0.00  0.00    +0.000 A 
ATOM      6  S   UNL     1       3.453   3.856  17.526  0.00  0.00    +0.000 S 
ATOM      7  H   UNL     1       6.352   4.800  19.342  0.00  0.00    +0.000 HD
ENDROOT
BRANCH   4   8
ATOM      8  C   UNL     1       2.206   7.204  19.238  0.00  0.00    +0.000 A 
ATOM      9  C   UNL     1       1.813   7.270  20.584  0.00  0.00    +0.000 A 
ATOM     10  C   UNL     1       1.157   8.402  21.081  0.00  0.00    +0.000 A 
ATOM     11  C   UNL     1       0.881   9.472  20.232  0.00  0.00    +0.000 A 
ATOM     12 CL   UNL     1       0.063  10.859  20.836  0.00  0.00    +0.000 Cl
ATOM     13  C   UNL     1       1.260   9.422  18.894  0.00  0.00    +0.000 A 
ATOM     14  C   UNL     1       1.921   8.292  18.398  0.00  0.00    +0.000 A 
ENDBRANCH   4   8
BRANCH   1  15
ATOM     15  S   UNL     1       6.923   4.811  17.222  0.00  0.00    +0.000 S 
ATOM     16  O   UNL     1       5.991   5.007  16.132  0.00  0.00    +0.000 OA
ATOM     17  O   UNL     1       8.119   4.013  17.070  0.00  0.00    +0.000 OA
BRANCH  15  21
ATOM     18  C   UNL     1       8.424   8.926  18.533  0.00  0.00    +0.000 A 
ATOM     19  C   UNL     1       8.689   7.794  19.313  0.00  0.00    +0.000 A 
ATOM     20  C   UNL     1       8.222   6.536  18.925  0.00  0.00    +0.000 A 
ATOM     21  C   UNL     1       7.461   6.421  17.759  0.00  0.00    +0.000 A 
ATOM     22  C   UNL     1       7.176   7.546  16.981  0.00  0.00    +0.000 A 
ATOM     23  C   UNL     1       7.660   8.799  17.372  0.00  0.00    +0.000 A 
BRANCH  18  25
ATOM     24  C   UNL     1       9.240  11.098  18.059  0.00  0.00    +0.000 C 
ATOM     25  O   UNL     1       8.934  10.096  19.024  0.00  0.00    +0.000 OA
ENDBRANCH  18  25
ENDBRANCH  15  21
ENDBRANCH   1  15
TORSDOF 4
ENDMDL
MODEL 6
REMARK VINA RESULT:      -7.1      3.108      3.877
REMARK  Name = 
REMARK  5 active torsions:
REMARK  status: ('A' for Active; 'I' for Inactive)
REMARK    1  A    between atoms: C_1  and  O_2
REMARK    2  A    between atoms: O_2  and  C_3
REMARK    3  A    between atoms: C_6  and  S_7
REMARK    4  A    between atoms: S_7  and  N_10
REMARK    5  A    between atoms: C_13  and  C_14
REMARK                            x       y       z     vdW  Elec       q    Type
REMARK                         _______ _______ _______ _____ _____    ______ ____
ROOT
ATOM      1  N   UNL     1       6.100   4.447  18.949  0.00  0.00    +0.000 N 
ATOM      2  C   UNL     1       4.764   4.838  18.671  0.00  0.00    +0.000 A 
ATOM      3  N   UNL     1       4.338   6.000  19.097  0.00  0.00    +0.000 NA
ATOM      4  C   UNL     1       3.010   6.165  18.718  0.00  0.00    +0.000 A 
ATOM      5  C   UNL     1       2.451   5.075  18.076  0.00  0.00    +0.000 A 
ATOM      6  S   UNL     1       3.610   3.818  17.936  0.00  0.00    +0.000 S 
ATOM      7  H   UNL     1       6.435   5.100  19.661  0.00  0.00    +0.000 HD
ENDROOT
BRANCH   4   8
ATOM      8  C   UNL     1       2.290   7.408  18.968  0.00  0.00    +0.000 A 
ATOM      9  C   UNL     1       2.089   8.324  17.923  0.00  0.00    +0.000 A 
ATOM     10  C   UNL     1       1.384   9.513  18.144  0.00  0.00    +0.000 A 
ATOM     11  C   UNL     1       0.884   9.798  19.413  0.00  0.00    +0.000 A 
ATOM     12 CL   UNL     1       0.029  11.264  19.690  0.00  0.00    +0.000 Cl
ATOM     13  C   UNL     1       1.077   8.902  20.460  0.00  0.00    +0.000 A 
ATOM     14  C   UNL     1       1.777   7.711  20.239  0.00  0.00    +0.000 A 
ENDBRANCH   4   8
BRANCH   1  15
ATOM     15  S   UNL     1       7.087   4.734  17.597  0.00  0.00    +0.000 S 
ATOM     16  O   UNL     1       6.200   4.715  16.454  0.00  0.00    +0.000 OA
ATOM     17  O   UNL     1       8.294   3.939  17.640  0.00  0.00    +0.000 OA
BRANCH  15  21
ATOM     18  C   UNL     1       8.273   9.091  18.317  0.00  0.00    +0.000 A 
ATOM     19  C   UNL     1       7.487   8.745  17.212  0.00  0.00    +0.000 A 
ATOM     20  C   UNL     1       7.131   7.414  16.979  0.00  0.00    +0.000 A 
ATOM     21  C   UNL     1       7.593   6.423  17.849  0.00  0.00    +0.000 A 
ATOM     22  C   UNL     1       8.394   6.754  18.946  0.00  0.00    +0.000 A 
ATOM     23  C   UNL     1       8.731   8.092  19.177  0.00  0.00    +0.000 A 
BRANCH  18  25
ATOM     24  C   UNL     1       9.622  10.768  19.306  0.00  0.00    +0.000 C 
ATOM     25  O   UNL     1       8.552  10.425  18.430  0.00  0.00    +0.000 OA
ENDBRANCH  18  25
ENDBRANCH  15  21
ENDBRANCH   1  15
TORSDOF 4
ENDMDL
MODEL 7
REMARK VINA RESULT:      -7.0      1.836      2.477
REMARK  Name = 
REMARK  5 active torsions:
REMARK  status: ('A' for Active; 'I' for Inactive)
REMARK    1  A    between atoms: C_1  and  O_2
REMARK    2  A    between atoms: O_2  and  C_3
REMARK    3  A    between atoms: C_6  and  S_7
REMARK    4  A    between atoms: S_7  and  N_10
REMARK    5  A    between atoms: C_13  and  C_14
REMARK                            x       y       z     vdW  Elec       q    Type
REMARK                         _______ _______ _______ _____ _____    ______ ____
ROOT
ATOM      1  N   UNL     1       2.708   4.967  18.228  0.00  0.00    +0.000 N 
ATOM      2  C   UNL     1       2.522   6.367  18.373  0.00  0.00    +0.000 A 
ATOM      3  N   UNL     1       1.742   6.811  19.326  0.00  0.00    +0.000 NA
ATOM      4  C   UNL     1       1.704   8.200  19.274  0.00  0.00    +0.000 A 
ATOM      5  C   UNL     1       2.406   8.760  18.222  0.00  0.00    +0.000 A 
ATOM      6  S   UNL     1       3.136   7.525  17.280  0.00  0.00    +0.000 S 
ATOM      7  H   UNL     1       1.982   4.533  18.800  0.00  0.00    +0.000 HD
ENDROOT
BRANCH   4   8
ATOM      8  C   UNL     1       0.991   8.986  20.273  0.00  0.00    +0.000 A 
ATOM      9  C   UNL     1       0.193  10.069  19.875  0.00  0.00    +0.000 A 
ATOM     10  C   UNL     1      -0.511  10.823  20.822  0.00  0.00    +0.000 A 
ATOM     11  C   UNL     1      -0.414  10.502  22.174  0.00  0.00    +0.000 A 
ATOM     12 CL   UNL     1      -1.268  11.434  23.341  0.00  0.00    +0.000 Cl
ATOM     13  C   UNL     1       0.375   9.433  22.587  0.00  0.00    +0.000 A 
ATOM     14  C   UNL     1       1.075   8.677  21.641  0.00  0.00    +0.000 A 
ENDBRANCH   4   8
BRANCH   1  15
ATOM     15  S   UNL     1       4.171   4.494  18.951  0.00  0.00    +0.000 S 
ATOM     16  O   UNL     1       4.048   3.072  19.188  0.00  0.00    +0.000 OA
ATOM     17  O   UNL     1       4.569   5.411  19.995  0.00  0.00    +0.000 OA
BRANCH  15  21
ATOM     18  C   UNL     1       7.087   5.154  15.491  0.00  0.00    +0.000 A 
ATOM     19  C   UNL     1       6.035   4.239  15.366  0.00  0.00    +0.000 A 
ATOM     20  C   UNL     1       5.148   4.023  16.424  0.00  0.00    +0.000 A 
ATOM     21  C   UNL     1       5.338   4.713  17.624  0.00  0.00    +0.000 A 
ATOM     22  C   UNL     1       6.394   5.617  17.766  0.00  0.00    +0.000 A 
ATOM     23  C   UNL     1       7.267   5.836  16.695  0.00  0.00    +0.000 A 
BRANCH  18  25
ATOM     24  C   UNL     1       7.317   4.827  13.157  0.00  0.00    +0.000 C 
ATOM     25  O   UNL     1       7.883   5.271  14.386  0.00  0.00    +0.000 OA
ENDBRANCH  18  25
ENDBRANCH  15  21
ENDBRANCH   1  15
TORSDOF 4
ENDMDL
MODEL 8
REMARK VINA RESULT:      -6.7      4.707      6.875
REMARK  Name = 
REMARK  5 active torsions:
REMARK  status: ('A' for Active; 'I' for Inactive)
REMARK    1  A    between atoms: C_1  and  O_2
REMARK    2  A    between atoms: O_2  and  C_3
REMARK    3  A    between atoms: C_6  and  S_7
REMARK    4  A    between atoms: S_7  and  N_10
REMARK    5  A    between atoms: C_13  and  C_14
REMARK                            x       y       z     vdW  Elec       q    Type
REMARK                         _______ _______ _______ _____ _____    ______ ____
ROOT
ATOM      1  N   UNL     1       1.057  10.647  20.694  0.00  0.00    +0.000 N 
ATOM      2  C   UNL     1      -0.221  11.008  20.192  0.00  0.00    +0.000 A 
ATOM      3  N   UNL     1      -0.535  10.693  18.961  0.00  0.00    +0.000 NA
ATOM      4  C   UNL     1      -1.820  11.148  18.688  0.00  0.00    +0.000 A 
ATOM      5  C   UNL     1      -2.410  11.868  19.712  0.00  0.00    +0.000 A 
ATOM      6  S   UNL     1      -1.339  11.972  21.048  0.00  0.00    +0.000 S 
ATOM      7  H   UNL     1       1.607  10.378  19.876  0.00  0.00    +0.000 HD
ENDROOT
BRANCH   4   8
ATOM      8  C   UNL     1      -2.483  10.860  17.422  0.00  0.00    +0.000 A 
ATOM      9  C   UNL     1      -1.928   9.923  16.537  0.00  0.00    +0.000 A 
ATOM     10  C   UNL     1      -2.563   9.622  15.326  0.00  0.00    +0.000 A 
ATOM     11  C   UNL     1      -3.752  10.264  14.989  0.00  0.00    +0.000 A 
ATOM     12 CL   UNL     1      -4.528   9.906  13.496  0.00  0.00    +0.000 Cl
ATOM     13  C   UNL     1      -4.316  11.198  15.853  0.00  0.00    +0.000 A 
ATOM     14  C   UNL     1      -3.684  11.495  17.066  0.00  0.00    +0.000 A 
ENDBRANCH   4   8
BRANCH   1  15
ATOM     15  S   UNL     1       0.941   9.231  21.624  0.00  0.00    +0.000 S 
ATOM     16  O   UNL     1      -0.476   8.969  21.763  0.00  0.00    +0.000 OA
ATOM     17  O   UNL     1       1.825   9.272  22.768  0.00  0.00    +0.000 OA
BRANCH  15  21
ATOM     18  C   UNL     1       2.521   6.042  18.753  0.00  0.00    +0.000 A 
ATOM     19  C   UNL     1       2.111   5.692  20.045  0.00  0.00    +0.000 A 
ATOM     20  C   UNL     1       1.639   6.663  20.931  0.00  0.00    +0.000 A 
ATOM     21  C   UNL     1       1.605   7.999  20.524  0.00  0.00    +0.000 A 
ATOM     22  C   UNL     1       2.028   8.364  19.243  0.00  0.00    +0.000 A 
ATOM     23  C   UNL     1       2.485   7.381  18.359  0.00  0.00    +0.000 A 
BRANCH  18  25
ATOM     24  C   UNL     1       3.403   3.846  18.693  0.00  0.00    +0.000 C 
ATOM     25  O   UNL     1       2.963   5.001  17.985  0.00  0.00    +0.000 OA
ENDBRANCH  18  25
ENDBRANCH  15  21
ENDBRANCH   1  15
TORSDOF 4
ENDMDL
MODEL 9
REMARK VINA RESULT:      -6.6      4.737      6.846
REMARK  Name = 
REMARK  5 active torsions:
REMARK  status: ('A' for Active; 'I' for Inactive)
REMARK    1  A    between atoms: C_1  and  O_2
REMARK    2  A    between atoms: O_2  and  C_3
REMARK    3  A    between atoms: C_6  and  S_7
REMARK    4  A    between atoms: S_7  and  N_10
REMARK    5  A    between atoms: C_13  and  C_14
REMARK                            x       y       z     vdW  Elec       q    Type
REMARK                         _______ _______ _______ _____ _____    ______ ____
ROOT
ATOM      1  N   UNL     1       1.039  10.669  20.682  0.00  0.00    +0.000 N 
ATOM      2  C   UNL     1      -0.235  11.023  20.164  0.00  0.00    +0.000 A 
ATOM      3  N   UNL     1      -0.542  10.680  18.939  0.00  0.00    +0.000 NA
ATOM      4  C   UNL     1      -1.824  11.134  18.647  0.00  0.00    +0.000 A 
ATOM      5  C   UNL     1      -2.419  11.877  19.651  0.00  0.00    +0.000 A 
ATOM      6  S   UNL     1      -1.356  12.009  20.991  0.00  0.00    +0.000 S 
ATOM      7  H   UNL     1       1.593  10.381  19.873  0.00  0.00    +0.000 HD
ENDROOT
BRANCH   4   8
ATOM      8  C   UNL     1      -2.481  10.818  17.384  0.00  0.00    +0.000 A 
ATOM      9  C   UNL     1      -3.655  11.493  17.017  0.00  0.00    +0.000 A 
ATOM     10  C   UNL     1      -4.286  11.214  15.799  0.00  0.00    +0.000 A 
ATOM     11  C   UNL     1      -3.753  10.251  14.946  0.00  0.00    +0.000 A 
ATOM     12 CL   UNL     1      -4.534   9.896  13.455  0.00  0.00    +0.000 Cl
ATOM     13  C   UNL     1      -2.591   9.569  15.296  0.00  0.00    +0.000 A 
ATOM     14  C   UNL     1      -1.956   9.852  16.510  0.00  0.00    +0.000 A 
ENDBRANCH   4   8
BRANCH   1  15
ATOM     15  S   UNL     1       0.913   9.275  21.643  0.00  0.00    +0.000 S 
ATOM     16  O   UNL     1      -0.506   9.044  21.814  0.00  0.00    +0.000 OA
ATOM     17  O   UNL     1       1.820   9.320  22.768  0.00  0.00    +0.000 OA
BRANCH  15  21
ATOM     18  C   UNL     1       2.624   6.044  18.898  0.00  0.00    +0.000 A 
ATOM     19  C   UNL     1       2.552   7.374  18.467  0.00  0.00    +0.000 A 
ATOM     20  C   UNL     1       2.018   8.364  19.296  0.00  0.00    +0.000 A 
ATOM     21  C   UNL     1       1.530   8.008  20.556  0.00  0.00    +0.000 A 
ATOM     22  C   UNL     1       1.582   6.680  20.990  0.00  0.00    +0.000 A 
ATOM     23  C   UNL     1       2.131   5.700  20.157  0.00  0.00    +0.000 A 
BRANCH  18  25
ATOM     24  C   UNL     1       3.037   3.789  18.303  0.00  0.00    +0.000 C 
ATOM     25  O   UNL     1       3.165   5.173  17.992  0.00  0.00    +0.000 OA
ENDBRANCH  18  25
ENDBRANCH  15  21
ENDBRANCH   1  15
TORSDOF 4
ENDMDL
