MODEL 1
REMARK VINA RESULT:      -8.3      0.000      0.000
REMARK  Name = 
REMARK  8 active torsions:
REMARK  status: ('A' for Active; 'I' for Inactive)
REMARK    1  A    between atoms: C_1  and  C_2
REMARK    2  A    between atoms: C_5  and  N_6
REMARK    3  A    between atoms: C_8  and  C_9
REMARK    4  A    between atoms: C_9  and  O_10
REMARK    5  A    between atoms: C_11  and  C_12
REMARK    6  A    between atoms: N_14  and  C_15
REMARK    7  A    between atoms: C_15  and  C_16
REMARK    8  A    between atoms: C_24  and  C_25
REMARK                            x       y       z     vdW  Elec       q    Type
REMARK                         _______ _______ _______ _____ _____    ______ ____
ROOT
ATOM      1  N   UNL     1       8.210   8.721  18.142  0.00  0.00    +0.000 N 
ATOM      2  N   UNL     1       8.647   7.720  18.955  0.00  0.00    +0.000 NA
ATOM      3  C   UNL     1       7.892   6.681  18.568  0.00  0.00    +0.000 A 
ATOM      4  C   UNL     1       7.080   7.061  17.474  0.00  0.00    +0.000 A 
ATOM      5  N   UNL     1       7.286   8.365  17.205  0.00  0.00    +0.000 NA
ENDROOT
BRANCH   1  10
ATOM      6  C   UNL     1      10.157  14.106  18.548  0.00  0.00    +0.000 C 
ATOM      7  C   UNL     1       9.632  12.696  18.499  0.00  0.00    +0.000 A 
ATOM      8  C   UNL     1       8.583  12.385  17.620  0.00  0.00    +0.000 A 
ATOM      9  C   UNL     1       8.103  11.079  17.509  0.00  0.00    +0.000 A 
ATOM     10  C   UNL     1       8.655  10.061  18.295  0.00  0.00    +0.000 A 
ATOM     11  C   UNL     1       9.682  10.367  19.201  0.00  0.00    +0.000 A 
ATOM     12  C   UNL     1      10.189  11.675  19.297  0.00  0.00    +0.000 A 
ATOM     13  C   UNL     1      11.343  11.953  20.224  0.00  0.00    +0.000 C 
ENDBRANCH   1  10
BRANCH   4  14
ATOM     14  C   UNL     1       6.162   6.215  16.710  0.00  0.00    +0.000 C 
ATOM     15  O   UNL     1       6.276   6.051  15.499  0.00  0.00    +0.000 OA
ATOM     16  N   UNL     1       5.160   5.646  17.456  0.00  0.00    +0.000 N 
ATOM     17  H   UNL     1       5.150   5.833  18.455  0.00  0.00    +0.000 HD
BRANCH  16  18
ATOM     18  C   UNL     1       4.113   4.838  16.877  0.00  0.00    +0.000 C 
BRANCH  18  19
ATOM     19  C   UNL     1       3.044   4.478  17.880  0.00  0.00    +0.000 A 
ATOM     20  C   UNL     1       3.031   5.075  19.139  0.00  0.00    +0.000 A 
ATOM     21  C   UNL     1       2.052   4.695  20.053  0.00  0.00    +0.000 A 
ATOM     22  C   UNL     1       1.109   3.743  19.684  0.00  0.00    +0.000 A 
ATOM     23  C   UNL     1       1.177   3.218  18.406  0.00  0.00    +0.000 A 
ATOM     24  N   UNL     1       2.114   3.566  17.496  0.00  0.00    +0.000 NA
ENDBRANCH  18  19
ENDBRANCH  16  18
ENDBRANCH   4  14
BRANCH   3  25
ATOM     25  C   UNL     1       7.987   5.357  19.248  0.00  0.00    +0.000 C 
BRANCH  25  26
ATOM     26  O   UNL     1       8.132   5.488  20.666  0.00  0.00    +0.000 OA
ATOM     27  H   UNL     1       7.464   4.884  21.044  0.00  0.00    +0.000 HD
ENDBRANCH  25  26
ENDBRANCH   3  25
TORSDOF 6
ENDMDL
MODEL 2
REMARK VINA RESULT:      -8.2      1.049      1.229
REMARK  Name = 
REMARK  8 active torsions:
REMARK  status: ('A' for Active; 'I' for Inactive)
REMARK    1  A    between atoms: C_1  and  C_2
REMARK    2  A    between atoms: C_5  and  N_6
REMARK    3  A    between atoms: C_8  and  C_9
REMARK    4  A    between atoms: C_9  and  O_10
REMARK    5  A    between atoms: C_11  and  C_12
REMARK    6  A    between atoms: N_14  and  C_15
REMARK    7  A    between atoms: C_15  and  C_16
REMARK    8  A    between atoms: C_24  and  C_25
REMARK                            x       y       z     vdW  Elec       q    Type
REMARK                         _______ _______ _______ _____ _____    ______ ____
ROOT
ATOM      1  N   UNL     1       8.178   8.745  18.088  0.00  0.00    +0.000 N 
ATOM      2  N   UNL     1       8.585   7.715  18.881  0.00  0.00    +0.000 NA
ATOM      3  C   UNL     1       7.796   6.708  18.474  0.00  0.00    +0.000 A 
ATOM      4  C   UNL     1       6.996   7.134  17.390  0.00  0.00    +0.000 A 
ATOM      5  N   UNL     1       7.243   8.437  17.146  0.00  0.00    +0.000 NA
ENDROOT
BRANCH   1  10
ATOM      6  C   UNL     1      10.286  14.061  18.587  0.00  0.00    +0.000 C 
ATOM      7  C   UNL     1       9.721  12.667  18.515  0.00  0.00    +0.000 A 
ATOM      8  C   UNL     1       8.621  12.416  17.681  0.00  0.00    +0.000 A 
ATOM      9  C   UNL     1       8.102  11.127  17.548  0.00  0.00    +0.000 A 
ATOM     10  C   UNL     1       8.667  10.067  18.266  0.00  0.00    +0.000 A 
ATOM     11  C   UNL     1       9.746  10.313  19.128  0.00  0.00    +0.000 A 
ATOM     12  C   UNL     1      10.292  11.603  19.245  0.00  0.00    +0.000 A 
ATOM     13  C   UNL     1      11.498  11.818  20.120  0.00  0.00    +0.000 C 
ENDBRANCH   1  10
BRANCH   4  14
ATOM     14  C   UNL     1       6.050   6.334  16.611  0.00  0.00    +0.000 C 
ATOM     15  O   UNL     1       5.559   6.737  15.561  0.00  0.00    +0.000 OA
ATOM     16  N   UNL     1       5.748   5.114  17.164  0.00  0.00    +0.000 N 
ATOM     17  H   UNL     1       6.210   4.862  18.034  0.00  0.00    +0.000 HD
BRANCH  16  18
ATOM     18  C   UNL     1       4.783   4.210  16.586  0.00  0.00    +0.000 C 
BRANCH  18  19
ATOM     19  C   UNL     1       3.867   3.608  17.625  0.00  0.00    +0.000 A 
ATOM     20  C   UNL     1       2.519   3.398  17.337  0.00  0.00    +0.000 A 
ATOM     21  C   UNL     1       1.694   2.875  18.328  0.00  0.00    +0.000 A 
ATOM     22  C   UNL     1       2.234   2.565  19.571  0.00  0.00    +0.000 A 
ATOM     23  C   UNL     1       3.587   2.781  19.767  0.00  0.00    +0.000 A 
ATOM     24  N   UNL     1       4.414   3.287  18.825  0.00  0.00    +0.000 NA
ENDBRANCH  18  19
ENDBRANCH  16  18
ENDBRANCH   4  14
BRANCH   3  25
ATOM     25  C   UNL     1       7.850   5.369  19.129  0.00  0.00    +0.000 C 
BRANCH  25  26
ATOM     26  O   UNL     1       6.657   5.077  19.862  0.00  0.00    +0.000 OA
ATOM     27  H   UNL     1       6.430   4.159  19.619  0.00  0.00    +0.000 HD
ENDBRANCH  25  26
ENDBRANCH   3  25
TORSDOF 6
ENDMDL
MODEL 3
REMARK VINA RESULT:      -8.2      0.774      1.020
REMARK  Name = 
REMARK  8 active torsions:
REMARK  status: ('A' for Active; 'I' for Inactive)
REMARK    1  A    between atoms: C_1  and  C_2
REMARK    2  A    between atoms: C_5  and  N_6
REMARK    3  A    between atoms: C_8  and  C_9
REMARK    4  A    between atoms: C_9  and  O_10
REMARK    5  A    between atoms: C_11  and  C_12
REMARK    6  A    between atoms: N_14  and  C_15
REMARK    7  A    between atoms: C_15  and  C_16
REMARK    8  A    between atoms: C_24  and  C_25
REMARK                            x       y       z     vdW  Elec       q    Type
REMARK                         _______ _______ _______ _____ _____    ______ ____
ROOT
ATOM      1  N   UNL     1       8.241   8.512  18.165  0.00  0.00    +0.000 N 
ATOM      2  N   UNL     1       8.543   7.565  19.096  0.00  0.00    +0.000 NA
ATOM      3  C   UNL     1       7.894   6.486  18.633  0.00  0.00    +0.000 A 
ATOM      4  C   UNL     1       7.289   6.788  17.391  0.00  0.00    +0.000 A 
ATOM      5  N   UNL     1       7.513   8.084  17.096  0.00  0.00    +0.000 NA
ENDROOT
BRANCH   1  10
ATOM      6  C   UNL     1       9.947  13.975  18.614  0.00  0.00    +0.000 C 
ATOM      7  C   UNL     1       9.481  12.545  18.553  0.00  0.00    +0.000 A 
ATOM      8  C   UNL     1       8.509  12.181  17.609  0.00  0.00    +0.000 A 
ATOM      9  C   UNL     1       8.088  10.855  17.487  0.00  0.00    +0.000 A 
ATOM     10  C   UNL     1       8.624   9.871  18.326  0.00  0.00    +0.000 A 
ATOM     11  C   UNL     1       9.572  10.230  19.295  0.00  0.00    +0.000 A 
ATOM     12  C   UNL     1      10.021  11.558  19.404  0.00  0.00    +0.000 A 
ATOM     13  C   UNL     1      11.096  11.895  20.404  0.00  0.00    +0.000 C 
ENDBRANCH   1  10
BRANCH   4  14
ATOM     14  C   UNL     1       6.544   5.880  16.518  0.00  0.00    +0.000 C 
ATOM     15  O   UNL     1       6.858   5.692  15.347  0.00  0.00    +0.000 OA
ATOM     16  N   UNL     1       5.462   5.281  17.113  0.00  0.00    +0.000 N 
ATOM     17  H   UNL     1       5.283   5.492  18.091  0.00  0.00    +0.000 HD
BRANCH  16  18
ATOM     18  C   UNL     1       4.559   4.408  16.400  0.00  0.00    +0.000 C 
BRANCH  18  19
ATOM     19  C   UNL     1       3.512   3.803  17.304  0.00  0.00    +0.000 A 
ATOM     20  C   UNL     1       3.676   2.512  17.805  0.00  0.00    +0.000 A 
ATOM     21  C   UNL     1       2.676   1.971  18.607  0.00  0.00    +0.000 A 
ATOM     22  C   UNL     1       1.549   2.731  18.898  0.00  0.00    +0.000 A 
ATOM     23  C   UNL     1       1.475   4.013  18.382  0.00  0.00    +0.000 A 
ATOM     24  N   UNL     1       2.429   4.567  17.601  0.00  0.00    +0.000 NA
ENDBRANCH  18  19
ENDBRANCH  16  18
ENDBRANCH   4  14
BRANCH   3  25
ATOM     25  C   UNL     1       7.891   5.200  19.388  0.00  0.00    +0.000 C 
BRANCH  25  26
ATOM     26  O   UNL     1       8.271   5.376  20.756  0.00  0.00    +0.000 OA
ATOM     27  H   UNL     1       7.431   5.372  21.254  0.00  0.00    +0.000 HD
ENDBRANCH  25  26
ENDBRANCH   3  25
TORSDOF 6
ENDMDL
MODEL 4
REMARK VINA RESULT:      -8.0      4.805      7.132
REMARK  Name = 
REMARK  8 active torsions:
REMARK  status: ('A' for Active; 'I' for Inactive)
REMARK    1  A    between atoms: C_1  and  C_2
REMARK    2  A    between atoms: C_5  and  N_6
REMARK    3  A    between atoms: C_8  and  C_9
REMARK    4  A    between atoms: C_9  and  O_10
REMARK    5  A    between atoms: C_11  and  C_12
REMARK    6  A    between atoms: N_14  and  C_15
REMARK    7  A    between atoms: C_15  and  C_16
REMARK    8  A    between atoms: C_24  and  C_25
REMARK                            x       y       z     vdW  Elec       q    Type
REMARK                         _______ _______ _______ _____ _____    ______ ____
ROOT
ATOM      1  N   UNL     1       2.609   6.605  19.390  0.00  0.00    +0.000 N 
ATOM      2  N   UNL     1       2.054   5.364  19.480  0.00  0.00    +0.000 NA
ATOM      3  C   UNL     1       3.024   4.577  18.989  0.00  0.00    +0.000 A 
ATOM      4  C   UNL     1       4.168   5.353  18.697  0.00  0.00    +0.000 A 
ATOM      5  N   UNL     1       3.900   6.648  18.954  0.00  0.00    +0.000 NA
ENDROOT
BRANCH   1  10
ATOM      6  C   UNL     1      -0.153  11.484  20.619  0.00  0.00    +0.000 C 
ATOM      7  C   UNL     1       0.522  10.174  20.312  0.00  0.00    +0.000 A 
ATOM      8  C   UNL     1       0.994   9.934  19.012  0.00  0.00    +0.000 A 
ATOM      9  C   UNL     1       1.670   8.753  18.702  0.00  0.00    +0.000 A 
ATOM     10  C   UNL     1       1.870   7.781  19.688  0.00  0.00    +0.000 A 
ATOM     11  C   UNL     1       1.374   7.996  20.983  0.00  0.00    +0.000 A 
ATOM     12  C   UNL     1       0.717   9.196  21.309  0.00  0.00    +0.000 A 
ATOM     13  C   UNL     1       0.265   9.428  22.727  0.00  0.00    +0.000 C 
ENDBRANCH   1  10
BRANCH   4  14
ATOM     14  C   UNL     1       5.465   4.881  18.208  0.00  0.00    +0.000 C 
ATOM     15  O   UNL     1       6.141   4.066  18.828  0.00  0.00    +0.000 OA
ATOM     16  N   UNL     1       5.862   5.440  17.019  0.00  0.00    +0.000 N 
ATOM     17  H   UNL     1       5.232   6.102  16.574  0.00  0.00    +0.000 HD
BRANCH  16  18
ATOM     18  C   UNL     1       7.140   5.159  16.409  0.00  0.00    +0.000 C 
BRANCH  18  19
ATOM     19  C   UNL     1       7.015   4.824  14.942  0.00  0.00    +0.000 A 
ATOM     20  C   UNL     1       6.065   3.899  14.511  0.00  0.00    +0.000 A 
ATOM     21  C   UNL     1       5.999   3.586  13.156  0.00  0.00    +0.000 A 
ATOM     22  C   UNL     1       6.870   4.209  12.270  0.00  0.00    +0.000 A 
ATOM     23  C   UNL     1       7.766   5.133  12.776  0.00  0.00    +0.000 A 
ATOM     24  N   UNL     1       7.855   5.459  14.085  0.00  0.00    +0.000 NA
ENDBRANCH  18  19
ENDBRANCH  16  18
ENDBRANCH   4  14
BRANCH   3  25
ATOM     25  C   UNL     1       2.824   3.107  18.834  0.00  0.00    +0.000 C 
BRANCH  25  26
ATOM     26  O   UNL     1       2.779   2.432  20.096  0.00  0.00    +0.000 OA
ATOM     27  H   UNL     1       1.944   2.727  20.509  0.00  0.00    +0.000 HD
ENDBRANCH  25  26
ENDBRANCH   3  25
TORSDOF 6
ENDMDL
MODEL 5
REMARK VINA RESULT:      -7.9      4.968      6.986
REMARK  Name = 
REMARK  8 active torsions:
REMARK  status: ('A' for Active; 'I' for Inactive)
REMARK    1  A    between atoms: C_1  and  C_2
REMARK    2  A    between atoms: C_5  and  N_6
REMARK    3  A    between atoms: C_8  and  C_9
REMARK    4  A    between atoms: C_9  and  O_10
REMARK    5  A    between atoms: C_11  and  C_12
REMARK    6  A    between atoms: N_14  and  C_15
REMARK    7  A    between atoms: C_15  and  C_16
REMARK    8  A    between atoms: C_24  and  C_25
REMARK                            x       y       z     vdW  Elec       q    Type
REMARK                         _______ _______ _______ _____ _____    ______ ____
ROOT
ATOM      1  N   UNL     1       3.057   6.451  19.155  0.00  0.00    +0.000 N 
ATOM      2  N   UNL     1       2.769   5.192  19.589  0.00  0.00    +0.000 NA
ATOM      3  C   UNL     1       3.774   4.470  19.071  0.00  0.00    +0.000 A 
ATOM      4  C   UNL     1       4.686   5.325  18.411  0.00  0.00    +0.000 A 
ATOM      5  N   UNL     1       4.224   6.590  18.467  0.00  0.00    +0.000 NA
ENDROOT
BRANCH   1  10
ATOM      6  C   UNL     1      -0.325  11.002  20.049  0.00  0.00    +0.000 C 
ATOM      7  C   UNL     1       0.515   9.773  19.828  0.00  0.00    +0.000 A 
ATOM      8  C   UNL     1       1.092   9.554  18.568  0.00  0.00    +0.000 A 
ATOM      9  C   UNL     1       1.919   8.453  18.339  0.00  0.00    +0.000 A 
ATOM     10  C   UNL     1       2.168   7.539  19.368  0.00  0.00    +0.000 A 
ATOM     11  C   UNL     1       1.571   7.730  20.623  0.00  0.00    +0.000 A 
ATOM     12  C   UNL     1       0.760   8.853  20.869  0.00  0.00    +0.000 A 
ATOM     13  C   UNL     1       0.197   9.069  22.249  0.00  0.00    +0.000 C 
ENDBRANCH   1  10
BRANCH   4  14
ATOM     14  C   UNL     1       5.949   4.956  17.769  0.00  0.00    +0.000 C 
ATOM     15  O   UNL     1       6.839   4.359  18.367  0.00  0.00    +0.000 OA
ATOM     16  N   UNL     1       6.056   5.351  16.458  0.00  0.00    +0.000 N 
ATOM     17  H   UNL     1       5.264   5.834  16.044  0.00  0.00    +0.000 HD
BRANCH  16  18
ATOM     18  C   UNL     1       7.250   5.145  15.674  0.00  0.00    +0.000 C 
BRANCH  18  19
ATOM     19  C   UNL     1       6.945   4.631  14.287  0.00  0.00    +0.000 A 
ATOM     20  C   UNL     1       7.728   5.024  13.203  0.00  0.00    +0.000 A 
ATOM     21  C   UNL     1       7.398   4.560  11.933  0.00  0.00    +0.000 A 
ATOM     22  C   UNL     1       6.308   3.711  11.779  0.00  0.00    +0.000 A 
ATOM     23  C   UNL     1       5.598   3.349  12.910  0.00  0.00    +0.000 A 
ATOM     24  N   UNL     1       5.893   3.782  14.156  0.00  0.00    +0.000 NA
ENDBRANCH  18  19
ENDBRANCH  16  18
ENDBRANCH   4  14
BRANCH   3  25
ATOM     25  C   UNL     1       3.833   2.990  19.241  0.00  0.00    +0.000 C 
BRANCH  25  26
ATOM     26  O   UNL     1       5.028   2.570  19.908  0.00  0.00    +0.000 OA
ATOM     27  H   UNL     1       5.305   1.757  19.441  0.00  0.00    +0.000 HD
ENDBRANCH  25  26
ENDBRANCH   3  25
TORSDOF 6
ENDMDL
MODEL 6
REMARK VINA RESULT:      -7.8      0.877      1.676
REMARK  Name = 
REMARK  8 active torsions:
REMARK  status: ('A' for Active; 'I' for Inactive)
REMARK    1  A    between atoms: C_1  and  C_2
REMARK    2  A    between atoms: C_5  and  N_6
REMARK    3  A    between atoms: C_8  and  C_9
REMARK    4  A    between atoms: C_9  and  O_10
REMARK    5  A    between atoms: C_11  and  C_12
REMARK    6  A    between atoms: N_14  and  C_15
REMARK    7  A    between atoms: C_15  and  C_16
REMARK    8  A    between atoms: C_24  and  C_25
REMARK                            x       y       z     vdW  Elec       q    Type
REMARK                         _______ _______ _______ _____ _____    ______ ____
ROOT
ATOM      1  N   UNL     1       8.183   8.568  18.133  0.00  0.00    +0.000 N 
ATOM      2  N   UNL     1       8.546   7.555  18.967  0.00  0.00    +0.000 NA
ATOM      3  C   UNL     1       7.791   6.535  18.529  0.00  0.00    +0.000 A 
ATOM      4  C   UNL     1       7.058   6.938  17.389  0.00  0.00    +0.000 A 
ATOM      5  N   UNL     1       7.311   8.238  17.139  0.00  0.00    +0.000 NA
ENDROOT
BRANCH   1  10
ATOM      6  C   UNL     1       9.936  13.947  19.109  0.00  0.00    +0.000 C 
ATOM      7  C   UNL     1       9.490  12.544  18.795  0.00  0.00    +0.000 A 
ATOM      8  C   UNL     1      10.123  11.465  19.432  0.00  0.00    +0.000 A 
ATOM      9  C   UNL     1       9.703  10.152  19.206  0.00  0.00    +0.000 A 
ATOM     10  C   UNL     1       8.651   9.897  18.320  0.00  0.00    +0.000 A 
ATOM     11  C   UNL     1       8.033  10.965  17.653  0.00  0.00    +0.000 A 
ATOM     12  C   UNL     1       8.432  12.292  17.898  0.00  0.00    +0.000 A 
ATOM     13  C   UNL     1       7.697  13.420  17.224  0.00  0.00    +0.000 C 
ENDBRANCH   1  10
BRANCH   4  14
ATOM     14  C   UNL     1       6.168   6.118  16.566  0.00  0.00    +0.000 C 
ATOM     15  O   UNL     1       6.060   6.281  15.355  0.00  0.00    +0.000 OA
ATOM     16  N   UNL     1       5.457   5.174  17.265  0.00  0.00    +0.000 N 
ATOM     17  H   UNL     1       5.618   5.107  18.266  0.00  0.00    +0.000 HD
BRANCH  16  18
ATOM     18  C   UNL     1       4.475   4.316  16.646  0.00  0.00    +0.000 C 
BRANCH  18  19
ATOM     19  C   UNL     1       3.492   3.754  17.646  0.00  0.00    +0.000 A 
ATOM     20  C   UNL     1       2.163   4.172  17.637  0.00  0.00    +0.000 A 
ATOM     21  C   UNL     1       1.291   3.661  18.594  0.00  0.00    +0.000 A 
ATOM     22  C   UNL     1       1.763   2.741  19.524  0.00  0.00    +0.000 A 
ATOM     23  C   UNL     1       3.091   2.360  19.449  0.00  0.00    +0.000 A 
ATOM     24  N   UNL     1       3.962   2.838  18.532  0.00  0.00    +0.000 NA
ENDBRANCH  18  19
ENDBRANCH  16  18
ENDBRANCH   4  14
BRANCH   3  25
ATOM     25  C   UNL     1       7.813   5.207  19.207  0.00  0.00    +0.000 C 
BRANCH  25  26
ATOM     26  O   UNL     1       8.088   5.320  20.607  0.00  0.00    +0.000 OA
ATOM     27  H   UNL     1       7.292   4.967  21.049  0.00  0.00    +0.000 HD
ENDBRANCH  25  26
ENDBRANCH   3  25
TORSDOF 6
ENDMDL
MODEL 7
REMARK VINA RESULT:      -7.7      1.404      8.551
REMARK  Name = 
REMARK  8 active torsions:
REMARK  status: ('A' for Active; 'I' for Inactive)
REMARK    1  A    between atoms: C_1  and  C_2
REMARK    2  A    between atoms: C_5  and  N_6
REMARK    3  A    between atoms: C_8  and  C_9
REMARK    4  A    between atoms: C_9  and  O_10
REMARK    5  A    between atoms: C_11  and  C_12
REMARK    6  A    between atoms: N_14  and  C_15
REMARK    7  A    between atoms: C_15  and  C_16
REMARK    8  A    between atoms: C_24  and  C_25
REMARK                            x       y       z     vdW  Elec       q    Type
REMARK                         _______ _______ _______ _____ _____    ______ ____
ROOT
ATOM      1  N   UNL     1       5.230   4.972  18.773  0.00  0.00    +0.000 N 
ATOM      2  N   UNL     1       6.188   4.828  19.730  0.00  0.00    +0.000 NA
ATOM      3  C   UNL     1       7.177   5.609  19.269  0.00  0.00    +0.000 A 
ATOM      4  C   UNL     1       6.757   6.268  18.090  0.00  0.00    +0.000 A 
ATOM      5  N   UNL     1       5.512   5.858  17.776  0.00  0.00    +0.000 NA
ENDROOT
BRANCH   1  10
ATOM      6  C   UNL     1       0.259   2.101  18.790  0.00  0.00    +0.000 C 
ATOM      7  C   UNL     1       1.587   2.809  18.817  0.00  0.00    +0.000 A 
ATOM      8  C   UNL     1       2.225   3.116  17.605  0.00  0.00    +0.000 A 
ATOM      9  C   UNL     1       3.432   3.816  17.587  0.00  0.00    +0.000 A 
ATOM     10  C   UNL     1       4.032   4.207  18.789  0.00  0.00    +0.000 A 
ATOM     11  C   UNL     1       3.420   3.878  20.008  0.00  0.00    +0.000 A 
ATOM     12  C   UNL     1       2.189   3.197  20.032  0.00  0.00    +0.000 A 
ATOM     13  C   UNL     1       1.521   2.926  21.354  0.00  0.00    +0.000 C 
ENDBRANCH   1  10
BRANCH   4  14
ATOM     14  C   UNL     1       7.502   7.254  17.307  0.00  0.00    +0.000 C 
ATOM     15  O   UNL     1       7.920   7.015  16.179  0.00  0.00    +0.000 OA
ATOM     16  N   UNL     1       7.707   8.451  17.948  0.00  0.00    +0.000 N 
ATOM     17  H   UNL     1       7.317   8.561  18.880  0.00  0.00    +0.000 HD
BRANCH  16  18
ATOM     18  C   UNL     1       8.480   9.525  17.372  0.00  0.00    +0.000 C 
BRANCH  18  19
ATOM     19  C   UNL     1       8.875  10.561  18.397  0.00  0.00    +0.000 A 
ATOM     20  C   UNL     1       9.286  10.170  19.671  0.00  0.00    +0.000 A 
ATOM     21  C   UNL     1       9.609  11.151  20.603  0.00  0.00    +0.000 A 
ATOM     22  C   UNL     1       9.527  12.491  20.240  0.00  0.00    +0.000 A 
ATOM     23  C   UNL     1       9.134  12.793  18.948  0.00  0.00    +0.000 A 
ATOM     24  N   UNL     1       8.814  11.864  18.020  0.00  0.00    +0.000 NA
ENDBRANCH  18  19
ENDBRANCH  16  18
ENDBRANCH   4  14
BRANCH   3  25
ATOM     25  C   UNL     1       8.483   5.708  19.983  0.00  0.00    +0.000 C 
BRANCH  25  26
ATOM     26  O   UNL     1       8.447   5.073  21.265  0.00  0.00    +0.000 OA
ATOM     27  H   UNL     1       8.056   5.739  21.864  0.00  0.00    +0.000 HD
ENDBRANCH  25  26
ENDBRANCH   3  25
TORSDOF 6
ENDMDL
MODEL 8
REMARK VINA RESULT:      -7.7      6.026      8.423
REMARK  Name = 
REMARK  8 active torsions:
REMARK  status: ('A' for Active; 'I' for Inactive)
REMARK    1  A    between atoms: C_1  and  C_2
REMARK    2  A    between atoms: C_5  and  N_6
REMARK    3  A    between atoms: C_8  and  C_9
REMARK    4  A    between atoms: C_9  and  O_10
REMARK    5  A    between atoms: C_11  and  C_12
REMARK    6  A    between atoms: N_14  and  C_15
REMARK    7  A    between atoms: C_15  and  C_16
REMARK    8  A    between atoms: C_24  and  C_25
REMARK                            x       y       z     vdW  Elec       q    Type
REMARK                         _______ _______ _______ _____ _____    ______ ____
ROOT
ATOM      1  N   UNL     1       2.517   7.404  18.757  0.00  0.00    +0.000 N 
ATOM      2  N   UNL     1       2.187   7.187  20.060  0.00  0.00    +0.000 NA
ATOM      3  C   UNL     1       1.524   8.308  20.383  0.00  0.00    +0.000 A 
ATOM      4  C   UNL     1       1.398   9.134  19.242  0.00  0.00    +0.000 A 
ATOM      5  N   UNL     1       2.034   8.553  18.205  0.00  0.00    +0.000 NA
ENDROOT
BRANCH   1  10
ATOM      6  C   UNL     1       5.740   3.824  15.635  0.00  0.00    +0.000 C 
ATOM      7  C   UNL     1       4.918   4.739  16.503  0.00  0.00    +0.000 A 
ATOM      8  C   UNL     1       5.081   6.127  16.383  0.00  0.00    +0.000 A 
ATOM      9  C   UNL     1       4.301   7.009  17.134  0.00  0.00    +0.000 A 
ATOM     10  C   UNL     1       3.353   6.510  18.035  0.00  0.00    +0.000 A 
ATOM     11  C   UNL     1       3.205   5.124  18.187  0.00  0.00    +0.000 A 
ATOM     12  C   UNL     1       3.967   4.231  17.413  0.00  0.00    +0.000 A 
ATOM     13  C   UNL     1       3.729   2.750  17.546  0.00  0.00    +0.000 C 
ENDBRANCH   1  10
BRANCH   4  14
ATOM     14  C   UNL     1       0.691  10.411  19.140  0.00  0.00    +0.000 C 
ATOM     15  O   UNL     1       1.277  11.471  18.942  0.00  0.00    +0.000 OA
ATOM     16  N   UNL     1      -0.669  10.322  19.303  0.00  0.00    +0.000 N 
ATOM     17  H   UNL     1      -1.068   9.399  19.455  0.00  0.00    +0.000 HD
BRANCH  16  18
ATOM     18  C   UNL     1      -1.535  11.477  19.309  0.00  0.00    +0.000 C 
BRANCH  18  19
ATOM     19  C   UNL     1      -2.577  11.419  18.218  0.00  0.00    +0.000 A 
ATOM     20  C   UNL     1      -3.911  11.706  18.504  0.00  0.00    +0.000 A 
ATOM     21  C   UNL     1      -4.852  11.610  17.483  0.00  0.00    +0.000 A 
ATOM     22  C   UNL     1      -4.439  11.244  16.207  0.00  0.00    +0.000 A 
ATOM     23  C   UNL     1      -3.092  11.000  16.002  0.00  0.00    +0.000 A 
ATOM     24  N   UNL     1      -2.154  11.085  16.972  0.00  0.00    +0.000 NA
ENDBRANCH  18  19
ENDBRANCH  16  18
ENDBRANCH   4  14
BRANCH   3  25
ATOM     25  C   UNL     1       1.021   8.540  21.767  0.00  0.00    +0.000 C 
BRANCH  25  26
ATOM     26  O   UNL     1       1.958   9.267  22.568  0.00  0.00    +0.000 OA
ATOM     27  H   UNL     1       2.811   8.810  22.435  0.00  0.00    +0.000 HD
ENDBRANCH  25  26
ENDBRANCH   3  25
TORSDOF 6
ENDMDL
MODEL 9
REMARK VINA RESULT:      -7.7      4.741      7.168
REMARK  Name = 
REMARK  8 active torsions:
REMARK  status: ('A' for Active; 'I' for Inactive)
REMARK    1  A    between atoms: C_1  and  C_2
REMARK    2  A    between atoms: C_5  and  N_6
REMARK    3  A    between atoms: C_8  and  C_9
REMARK    4  A    between atoms: C_9  and  O_10
REMARK    5  A    between atoms: C_11  and  C_12
REMARK    6  A    between atoms: N_14  and  C_15
REMARK    7  A    between atoms: C_15  and  C_16
REMARK    8  A    between atoms: C_24  and  C_25
REMARK                            x       y       z     vdW  Elec       q    Type
REMARK                         _______ _______ _______ _____ _____    ______ ____
ROOT
ATOM      1  N   UNL     1       2.592   6.509  19.714  0.00  0.00    +0.000 N 
ATOM      2  N   UNL     1       2.074   5.257  19.851  0.00  0.00    +0.000 NA
ATOM      3  C   UNL     1       3.037   4.486  19.321  0.00  0.00    +0.000 A 
ATOM      4  C   UNL     1       4.144   5.286  18.956  0.00  0.00    +0.000 A 
ATOM      5  N   UNL     1       3.856   6.578  19.208  0.00  0.00    +0.000 NA
ENDROOT
BRANCH   1  10
ATOM      6  C   UNL     1      -0.665  11.074  20.939  0.00  0.00    +0.000 C 
ATOM      7  C   UNL     1       0.236   9.913  20.613  0.00  0.00    +0.000 A 
ATOM      8  C   UNL     1       0.371   8.869  21.540  0.00  0.00    +0.000 A 
ATOM      9  C   UNL     1       1.157   7.751  21.253  0.00  0.00    +0.000 A 
ATOM     10  C   UNL     1       1.839   7.671  20.034  0.00  0.00    +0.000 A 
ATOM     11  C   UNL     1       1.738   8.724  19.113  0.00  0.00    +0.000 A 
ATOM     12  C   UNL     1       0.925   9.839  19.384  0.00  0.00    +0.000 A 
ATOM     13  C   UNL     1       0.778  10.917  18.343  0.00  0.00    +0.000 C 
ENDBRANCH   1  10
BRANCH   4  14
ATOM     14  C   UNL     1       5.424   4.839  18.406  0.00  0.00    +0.000 C 
ATOM     15  O   UNL     1       6.092   3.956  18.936  0.00  0.00    +0.000 OA
ATOM     16  N   UNL     1       5.816   5.500  17.269  0.00  0.00    +0.000 N 
ATOM     17  H   UNL     1       5.194   6.213  16.898  0.00  0.00    +0.000 HD
BRANCH  16  18
ATOM     18  C   UNL     1       7.080   5.255  16.617  0.00  0.00    +0.000 C 
BRANCH  18  19
ATOM     19  C   UNL     1       6.913   4.881  15.163  0.00  0.00    +0.000 A 
ATOM     20  C   UNL     1       5.899   4.007  14.774  0.00  0.00    +0.000 A 
ATOM     21  C   UNL     1       5.794   3.655  13.432  0.00  0.00    +0.000 A 
ATOM     22  C   UNL     1       6.691   4.191  12.515  0.00  0.00    +0.000 A 
ATOM     23  C   UNL     1       7.653   5.070  12.980  0.00  0.00    +0.000 A 
ATOM     24  N   UNL     1       7.781   5.432  14.276  0.00  0.00    +0.000 NA
ENDBRANCH  18  19
ENDBRANCH  16  18
ENDBRANCH   4  14
BRANCH   3  25
ATOM     25  C   UNL     1       2.867   3.009  19.199  0.00  0.00    +0.000 C 
BRANCH  25  26
ATOM     26  O   UNL     1       3.735   2.291  20.081  0.00  0.00    +0.000 OA
ATOM     27  H   UNL     1       3.834   1.409  19.674  0.00  0.00    +0.000 HD
ENDBRANCH  25  26
ENDBRANCH   3  25
TORSDOF 6
ENDMDL
