MODEL 1
REMARK VINA RESULT:      -7.5      0.000      0.000
REMARK  Name = 
REMARK  5 active torsions:
REMARK  status: ('A' for Active; 'I' for Inactive)
REMARK    1  A    between atoms: C_2  and  O_3
REMARK    2  A    between atoms: C_2  and  C_4
REMARK    3  A    between atoms: C_5  and  O_6
REMARK    4  A    between atoms: C_7  and  C_8
REMARK    5  A    between atoms: C_19  and  O_20
REMARK                            x       y       z     vdW  Elec       q    Type
REMARK                         _______ _______ _______ _____ _____    ______ ____
ROOT
ATOM      1  C   UNL     1       6.586   5.762  17.401  0.00  0.00    +0.000 A 
ATOM      2  C   UNL     1       5.712   5.290  18.390  0.00  0.00    +0.000 A 
ATOM      3  C   UNL     1       4.766   4.326  18.047  0.00  0.00    +0.000 A 
ATOM      4  N   UNL     1       4.705   3.818  16.787  0.00  0.00    +0.000 NA
ATOM      5  C   UNL     1       5.570   4.245  15.847  0.00  0.00    +0.000 A 
ATOM      6  C   UNL     1       5.476   3.703  14.567  0.00  0.00    +0.000 A 
ATOM      7  C   UNL     1       6.318   4.095  13.522  0.00  0.00    +0.000 A 
ATOM      8  C   UNL     1       7.304   5.030  13.774  0.00  0.00    +0.000 A 
ATOM      9  C   UNL     1       7.453   5.563  15.048  0.00  0.00    +0.000 A 
ATOM     10  C   UNL     1       6.560   5.217  16.097  0.00  0.00    +0.000 A 
ENDROOT
BRANCH   3  11
ATOM     11  C   UNL     1       3.791   3.759  19.019  0.00  0.00    +0.000 A 
ATOM     12  C   UNL     1       2.483   4.270  19.141  0.00  0.00    +0.000 A 
ATOM     13  C   UNL     1       1.613   3.837  20.146  0.00  0.00    +0.000 A 
ATOM     14  C   UNL     1       2.023   2.849  21.031  0.00  0.00    +0.000 A 
ATOM     15 CL   UNL     1       0.978   2.356  22.304  0.00  0.00    +0.000 Cl
ATOM     16  C   UNL     1       3.282   2.270  20.896  0.00  0.00    +0.000 A 
ATOM     17  C   UNL     1       4.156   2.719  19.894  0.00  0.00    +0.000 A 
ENDBRANCH   3  11
BRANCH   1  19
ATOM     18  O   UNL     1       7.690   7.818  17.089  0.00  0.00    +0.000 OA
ATOM     19  C   UNL     1       7.519   6.840  17.801  0.00  0.00    +0.000 C 
BRANCH  19  20
ATOM     20  O   UNL     1       8.265   6.587  18.894  0.00  0.00    +0.000 OA
ATOM     21  H   UNL     1       8.857   7.308  19.183  0.00  0.00    +0.000 HD
ENDBRANCH  19  20
ENDBRANCH   1  19
BRANCH   2  22
ATOM     22  O   UNL     1       5.780   5.751  19.684  0.00  0.00    +0.000 OA
ATOM     23  H   UNL     1       4.913   6.127  19.951  0.00  0.00    +0.000 HD
ENDBRANCH   2  22
BRANCH   8  24
ATOM     24  O   UNL     1       8.149   5.471  12.804  0.00  0.00    +0.000 OA
ATOM     25  H   UNL     1       8.027   6.427  12.681  0.00  0.00    +0.000 HD
ENDBRANCH   8  24
TORSDOF 5
ENDMDL
MODEL 2
REMARK VINA RESULT:      -7.5      4.022      5.286
REMARK  Name = 
REMARK  5 active torsions:
REMARK  status: ('A' for Active; 'I' for Inactive)
REMARK    1  A    between atoms: C_2  and  O_3
REMARK    2  A    between atoms: C_2  and  C_4
REMARK    3  A    between atoms: C_5  and  O_6
REMARK    4  A    between atoms: C_7  and  C_8
REMARK    5  A    between atoms: C_19  and  O_20
REMARK                            x       y       z     vdW  Elec       q    Type
REMARK                         _______ _______ _______ _____ _____    ______ ____
ROOT
ATOM      1  C   UNL     1       3.074   4.432  18.803  0.00  0.00    +0.000 A 
ATOM      2  C   UNL     1       2.356   5.456  19.437  0.00  0.00    +0.000 A 
ATOM      3  C   UNL     1       2.568   6.774  19.039  0.00  0.00    +0.000 A 
ATOM      4  N   UNL     1       3.429   7.073  18.029  0.00  0.00    +0.000 NA
ATOM      5  C   UNL     1       4.091   6.087  17.394  0.00  0.00    +0.000 A 
ATOM      6  C   UNL     1       4.965   6.431  16.366  0.00  0.00    +0.000 A 
ATOM      7  C   UNL     1       5.709   5.479  15.662  0.00  0.00    +0.000 A 
ATOM      8  C   UNL     1       5.545   4.142  15.972  0.00  0.00    +0.000 A 
ATOM      9  C   UNL     1       4.653   3.758  16.964  0.00  0.00    +0.000 A 
ATOM     10  C   UNL     1       3.944   4.724  17.727  0.00  0.00    +0.000 A 
ENDROOT
BRANCH   3  11
ATOM     11  C   UNL     1       1.859   7.933  19.647  0.00  0.00    +0.000 A 
ATOM     12  C   UNL     1       1.518   7.959  21.014  0.00  0.00    +0.000 A 
ATOM     13  C   UNL     1       0.730   8.978  21.558  0.00  0.00    +0.000 A 
ATOM     14  C   UNL     1       0.298  10.019  20.747  0.00  0.00    +0.000 A 
ATOM     15 CL   UNL     1      -0.720  11.243  21.398  0.00  0.00    +0.000 Cl
ATOM     16  C   UNL     1       0.676  10.064  19.408  0.00  0.00    +0.000 A 
ATOM     17  C   UNL     1       1.455   9.031  18.865  0.00  0.00    +0.000 A 
ENDBRANCH   3  11
BRANCH   1  19
ATOM     18  O   UNL     1       1.974   2.352  18.873  0.00  0.00    +0.000 OA
ATOM     19  C   UNL     1       2.866   3.060  19.317  0.00  0.00    +0.000 C 
BRANCH  19  20
ATOM     20  O   UNL     1       3.604   2.724  20.392  0.00  0.00    +0.000 OA
ATOM     21  H   UNL     1       3.189   2.883  21.262  0.00  0.00    +0.000 HD
ENDBRANCH  19  20
ENDBRANCH   1  19
BRANCH   2  22
ATOM     22  O   UNL     1       1.444   5.180  20.429  0.00  0.00    +0.000 OA
ATOM     23  H   UNL     1       0.532   5.220  20.066  0.00  0.00    +0.000 HD
ENDBRANCH   2  22
BRANCH   8  24
ATOM     24  O   UNL     1       6.245   3.162  15.340  0.00  0.00    +0.000 OA
ATOM     25  H   UNL     1       6.404   3.424  14.418  0.00  0.00    +0.000 HD
ENDBRANCH   8  24
TORSDOF 5
ENDMDL
MODEL 3
REMARK VINA RESULT:      -7.5      4.075      5.273
REMARK  Name = 
REMARK  5 active torsions:
REMARK  status: ('A' for Active; 'I' for Inactive)
REMARK    1  A    between atoms: C_2  and  O_3
REMARK    2  A    between atoms: C_2  and  C_4
REMARK    3  A    between atoms: C_5  and  O_6
REMARK    4  A    between atoms: C_7  and  C_8
REMARK    5  A    between atoms: C_19  and  O_20
REMARK                            x       y       z     vdW  Elec       q    Type
REMARK                         _______ _______ _______ _____ _____    ______ ____
ROOT
ATOM      1  C   UNL     1       3.061   4.431  18.811  0.00  0.00    +0.000 A 
ATOM      2  C   UNL     1       2.338   5.454  19.441  0.00  0.00    +0.000 A 
ATOM      3  C   UNL     1       2.541   6.770  19.034  0.00  0.00    +0.000 A 
ATOM      4  N   UNL     1       3.396   7.069  18.019  0.00  0.00    +0.000 NA
ATOM      5  C   UNL     1       4.062   6.083  17.388  0.00  0.00    +0.000 A 
ATOM      6  C   UNL     1       4.930   6.426  16.355  0.00  0.00    +0.000 A 
ATOM      7  C   UNL     1       5.677   5.475  15.654  0.00  0.00    +0.000 A 
ATOM      8  C   UNL     1       5.524   4.139  15.973  0.00  0.00    +0.000 A 
ATOM      9  C   UNL     1       4.638   3.755  16.971  0.00  0.00    +0.000 A 
ATOM     10  C   UNL     1       3.925   4.721  17.730  0.00  0.00    +0.000 A 
ENDROOT
BRANCH   3  11
ATOM     11  C   UNL     1       1.826   7.929  19.637  0.00  0.00    +0.000 A 
ATOM     12  C   UNL     1       1.432   9.040  18.865  0.00  0.00    +0.000 A 
ATOM     13  C   UNL     1       0.890  10.188  19.450  0.00  0.00    +0.000 A 
ATOM     14  C   UNL     1       0.692  10.233  20.824  0.00  0.00    +0.000 A 
ATOM     15 CL   UNL     1       0.080  11.664  21.553  0.00  0.00    +0.000 Cl
ATOM     16  C   UNL     1       1.003   9.126  21.609  0.00  0.00    +0.000 A 
ATOM     17  C   UNL     1       1.560   7.982  21.018  0.00  0.00    +0.000 A 
ENDBRANCH   3  11
BRANCH   1  19
ATOM     18  O   UNL     1       1.972   2.346  18.902  0.00  0.00    +0.000 OA
ATOM     19  C   UNL     1       2.864   3.061  19.335  0.00  0.00    +0.000 C 
BRANCH  19  20
ATOM     20  O   UNL     1       3.612   2.734  20.406  0.00  0.00    +0.000 OA
ATOM     21  H   UNL     1       4.414   3.273  20.548  0.00  0.00    +0.000 HD
ENDBRANCH  19  20
ENDBRANCH   1  19
BRANCH   2  22
ATOM     22  O   UNL     1       1.432   5.178  20.438  0.00  0.00    +0.000 OA
ATOM     23  H   UNL     1       0.680   5.808  20.391  0.00  0.00    +0.000 HD
ENDBRANCH   2  22
BRANCH   8  24
ATOM     24  O   UNL     1       6.227   3.160  15.345  0.00  0.00    +0.000 OA
ATOM     25  H   UNL     1       5.808   2.958  14.492  0.00  0.00    +0.000 HD
ENDBRANCH   8  24
TORSDOF 5
ENDMDL
MODEL 4
REMARK VINA RESULT:      -7.3      4.103      5.664
REMARK  Name = 
REMARK  5 active torsions:
REMARK  status: ('A' for Active; 'I' for Inactive)
REMARK    1  A    between atoms: C_2  and  O_3
REMARK    2  A    between atoms: C_2  and  C_4
REMARK    3  A    between atoms: C_5  and  O_6
REMARK    4  A    between atoms: C_7  and  C_8
REMARK    5  A    between atoms: C_19  and  O_20
REMARK                            x       y       z     vdW  Elec       q    Type
REMARK                         _______ _______ _______ _____ _____    ______ ____
ROOT
ATOM      1  C   UNL     1       4.290   5.339  17.582  0.00  0.00    +0.000 A 
ATOM      2  C   UNL     1       3.760   6.609  17.852  0.00  0.00    +0.000 A 
ATOM      3  C   UNL     1       2.593   6.705  18.605  0.00  0.00    +0.000 A 
ATOM      4  N   UNL     1       1.987   5.596  19.107  0.00  0.00    +0.000 NA
ATOM      5  C   UNL     1       2.517   4.379  18.881  0.00  0.00    +0.000 A 
ATOM      6  C   UNL     1       1.869   3.266  19.410  0.00  0.00    +0.000 A 
ATOM      7  C   UNL     1       2.333   1.962  19.213  0.00  0.00    +0.000 A 
ATOM      8  C   UNL     1       3.499   1.770  18.497  0.00  0.00    +0.000 A 
ATOM      9  C   UNL     1       4.195   2.858  17.988  0.00  0.00    +0.000 A 
ATOM     10  C   UNL     1       3.693   4.180  18.128  0.00  0.00    +0.000 A 
ENDROOT
BRANCH   3  11
ATOM     11  C   UNL     1       1.948   8.003  18.946  0.00  0.00    +0.000 A 
ATOM     12  C   UNL     1       1.603   8.334  20.272  0.00  0.00    +0.000 A 
ATOM     13  C   UNL     1       0.872   9.485  20.579  0.00  0.00    +0.000 A 
ATOM     14  C   UNL     1       0.502  10.355  19.562  0.00  0.00    +0.000 A 
ATOM     15 CL   UNL     1      -0.448  11.741  19.927  0.00  0.00    +0.000 Cl
ATOM     16  C   UNL     1       0.887  10.098  18.249  0.00  0.00    +0.000 A 
ATOM     17  C   UNL     1       1.609   8.933  17.946  0.00  0.00    +0.000 A 
ENDBRANCH   3  11
BRANCH   1  19
ATOM     18  O   UNL     1       6.612   5.325  17.192  0.00  0.00    +0.000 OA
ATOM     19  C   UNL     1       5.488   5.292  16.714  0.00  0.00    +0.000 C 
BRANCH  19  20
ATOM     20  O   UNL     1       5.250   5.375  15.390  0.00  0.00    +0.000 OA
ATOM     21  H   UNL     1       5.461   4.578  14.867  0.00  0.00    +0.000 HD
ENDBRANCH  19  20
ENDBRANCH   1  19
BRANCH   2  22
ATOM     22  O   UNL     1       4.376   7.751  17.396  0.00  0.00    +0.000 OA
ATOM     23  H   UNL     1       3.798   8.208  16.747  0.00  0.00    +0.000 HD
ENDBRANCH   2  22
BRANCH   8  24
ATOM     24  O   UNL     1       4.003   0.531  18.252  0.00  0.00    +0.000 OA
ATOM     25  H   UNL     1       3.590   0.167  17.451  0.00  0.00    +0.000 HD
ENDBRANCH   8  24
TORSDOF 5
ENDMDL
MODEL 5
REMARK VINA RESULT:      -7.2      6.151      8.523
REMARK  Name = 
REMARK  5 active torsions:
REMARK  status: ('A' for Active; 'I' for Inactive)
REMARK    1  A    between atoms: C_2  and  O_3
REMARK    2  A    between atoms: C_2  and  C_4
REMARK    3  A    between atoms: C_5  and  O_6
REMARK    4  A    between atoms: C_7  and  C_8
REMARK    5  A    between atoms: C_19  and  O_20
REMARK                            x       y       z     vdW  Elec       q    Type
REMARK                         _______ _______ _______ _____ _____    ______ ____
ROOT
ATOM      1  C   UNL     1       0.887  10.600  19.258  0.00  0.00    +0.000 A 
ATOM      2  C   UNL     1       1.553   9.625  18.502  0.00  0.00    +0.000 A 
ATOM      3  C   UNL     1       1.852   8.401  19.096  0.00  0.00    +0.000 A 
ATOM      4  N   UNL     1       1.477   8.131  20.375  0.00  0.00    +0.000 NA
ATOM      5  C   UNL     1       0.804   9.053  21.089  0.00  0.00    +0.000 A 
ATOM      6  C   UNL     1       0.437   8.741  22.396  0.00  0.00    +0.000 A 
ATOM      7  C   UNL     1      -0.247   9.639  23.219  0.00  0.00    +0.000 A 
ATOM      8  C   UNL     1      -0.607  10.872  22.707  0.00  0.00    +0.000 A 
ATOM      9  C   UNL     1      -0.295  11.203  21.396  0.00  0.00    +0.000 A 
ATOM     10  C   UNL     1       0.458  10.320  20.576  0.00  0.00    +0.000 A 
ENDROOT
BRANCH   3  11
ATOM     11  C   UNL     1       2.557   7.300  18.383  0.00  0.00    +0.000 A 
ATOM     12  C   UNL     1       2.063   5.981  18.385  0.00  0.00    +0.000 A 
ATOM     13  C   UNL     1       2.792   4.920  17.840  0.00  0.00    +0.000 A 
ATOM     14  C   UNL     1       4.020   5.166  17.242  0.00  0.00    +0.000 A 
ATOM     15 CL   UNL     1       4.947   3.857  16.622  0.00  0.00    +0.000 Cl
ATOM     16  C   UNL     1       4.507   6.468  17.157  0.00  0.00    +0.000 A 
ATOM     17  C   UNL     1       3.777   7.526  17.719  0.00  0.00    +0.000 A 
ENDBRANCH   3  11
BRANCH   1  19
ATOM     18  O   UNL     1       1.358  12.876  18.878  0.00  0.00    +0.000 OA
ATOM     19  C   UNL     1       0.663  11.908  18.602  0.00  0.00    +0.000 C 
BRANCH  19  20
ATOM     20  O   UNL     1      -0.436  11.991  17.828  0.00  0.00    +0.000 OA
ATOM     21  H   UNL     1      -0.399  11.508  16.980  0.00  0.00    +0.000 HD
ENDBRANCH  19  20
ENDBRANCH   1  19
BRANCH   2  22
ATOM     22  O   UNL     1       1.903   9.853  17.192  0.00  0.00    +0.000 OA
ATOM     23  H   UNL     1       2.869   9.717  17.075  0.00  0.00    +0.000 HD
ENDBRANCH   2  22
BRANCH   8  24
ATOM     24  O   UNL     1      -1.261  11.802  23.453  0.00  0.00    +0.000 OA
ATOM     25  H   UNL     1      -1.207  12.665  23.011  0.00  0.00    +0.000 HD
ENDBRANCH   8  24
TORSDOF 5
ENDMDL
MODEL 6
REMARK VINA RESULT:      -7.2      4.058      7.272
REMARK  Name = 
REMARK  5 active torsions:
REMARK  status: ('A' for Active; 'I' for Inactive)
REMARK    1  A    between atoms: C_2  and  O_3
REMARK    2  A    between atoms: C_2  and  C_4
REMARK    3  A    between atoms: C_5  and  O_6
REMARK    4  A    between atoms: C_7  and  C_8
REMARK    5  A    between atoms: C_19  and  O_20
REMARK                            x       y       z     vdW  Elec       q    Type
REMARK                         _______ _______ _______ _____ _____    ______ ____
ROOT
ATOM      1  C   UNL     1       2.263   5.117  20.184  0.00  0.00    +0.000 A 
ATOM      2  C   UNL     1       3.228   4.739  19.241  0.00  0.00    +0.000 A 
ATOM      3  C   UNL     1       3.686   5.687  18.329  0.00  0.00    +0.000 A 
ATOM      4  N   UNL     1       3.239   6.970  18.366  0.00  0.00    +0.000 NA
ATOM      5  C   UNL     1       2.339   7.344  19.296  0.00  0.00    +0.000 A 
ATOM      6  C   UNL     1       1.904   8.666  19.302  0.00  0.00    +0.000 A 
ATOM      7  C   UNL     1       0.959   9.142  20.217  0.00  0.00    +0.000 A 
ATOM      8  C   UNL     1       0.465   8.278  21.176  0.00  0.00    +0.000 A 
ATOM      9  C   UNL     1       0.907   6.962  21.226  0.00  0.00    +0.000 A 
ATOM     10  C   UNL     1       1.816   6.456  20.259  0.00  0.00    +0.000 A 
ENDROOT
BRANCH   3  11
ATOM     11  C   UNL     1       4.707   5.389  17.287  0.00  0.00    +0.000 A 
ATOM     12  C   UNL     1       5.972   6.010  17.290  0.00  0.00    +0.000 A 
ATOM     13  C   UNL     1       6.878   5.842  16.239  0.00  0.00    +0.000 A 
ATOM     14  C   UNL     1       6.551   5.011  15.176  0.00  0.00    +0.000 A 
ATOM     15 CL   UNL     1       7.638   4.847  13.854  0.00  0.00    +0.000 Cl
ATOM     16  C   UNL     1       5.341   4.324  15.174  0.00  0.00    +0.000 A 
ATOM     17  C   UNL     1       4.429   4.508  16.226  0.00  0.00    +0.000 A 
ENDBRANCH   3  11
BRANCH   1  19
ATOM     18  O   UNL     1       2.410   3.676  22.040  0.00  0.00    +0.000 OA
ATOM     19  C   UNL     1       1.756   4.051  21.078  0.00  0.00    +0.000 C 
BRANCH  19  20
ATOM     20  O   UNL     1       0.633   3.432  20.666  0.00  0.00    +0.000 OA
ATOM     21  H   UNL     1       0.760   2.576  20.212  0.00  0.00    +0.000 HD
ENDBRANCH  19  20
ENDBRANCH   1  19
BRANCH   2  22
ATOM     22  O   UNL     1       3.734   3.460  19.210  0.00  0.00    +0.000 OA
ATOM     23  H   UNL     1       4.313   3.310  19.989  0.00  0.00    +0.000 HD
ENDBRANCH   2  22
BRANCH   8  24
ATOM     24  O   UNL     1      -0.465   8.665  22.089  0.00  0.00    +0.000 OA
ATOM     25  H   UNL     1      -0.213   9.527  22.460  0.00  0.00    +0.000 HD
ENDBRANCH   8  24
TORSDOF 5
ENDMDL
MODEL 7
REMARK VINA RESULT:      -7.1      4.146      5.660
REMARK  Name = 
REMARK  5 active torsions:
REMARK  status: ('A' for Active; 'I' for Inactive)
REMARK    1  A    between atoms: C_2  and  O_3
REMARK    2  A    between atoms: C_2  and  C_4
REMARK    3  A    between atoms: C_5  and  O_6
REMARK    4  A    between atoms: C_7  and  C_8
REMARK    5  A    between atoms: C_19  and  O_20
REMARK                            x       y       z     vdW  Elec       q    Type
REMARK                         _______ _______ _______ _____ _____    ______ ____
ROOT
ATOM      1  C   UNL     1       4.275   5.357  17.601  0.00  0.00    +0.000 A 
ATOM      2  C   UNL     1       3.731   6.622  17.865  0.00  0.00    +0.000 A 
ATOM      3  C   UNL     1       2.554   6.708  18.604  0.00  0.00    +0.000 A 
ATOM      4  N   UNL     1       1.952   5.593  19.098  0.00  0.00    +0.000 NA
ATOM      5  C   UNL     1       2.494   4.380  18.877  0.00  0.00    +0.000 A 
ATOM      6  C   UNL     1       1.849   3.261  19.397  0.00  0.00    +0.000 A 
ATOM      7  C   UNL     1       2.326   1.961  19.205  0.00  0.00    +0.000 A 
ATOM      8  C   UNL     1       3.503   1.780  18.503  0.00  0.00    +0.000 A 
ATOM      9  C   UNL     1       4.196   2.875  18.003  0.00  0.00    +0.000 A 
ATOM     10  C   UNL     1       3.681   4.192  18.139  0.00  0.00    +0.000 A 
ENDROOT
BRANCH   3  11
ATOM     11  C   UNL     1       1.894   7.999  18.938  0.00  0.00    +0.000 A 
ATOM     12  C   UNL     1       1.654   8.984  17.959  0.00  0.00    +0.000 A 
ATOM     13  C   UNL     1       1.165  10.251  18.292  0.00  0.00    +0.000 A 
ATOM     14  C   UNL     1       0.868  10.547  19.615  0.00  0.00    +0.000 A 
ATOM     15 CL   UNL     1       0.322  12.122  20.037  0.00  0.00    +0.000 Cl
ATOM     16  C   UNL     1       1.024   9.575  20.600  0.00  0.00    +0.000 A 
ATOM     17  C   UNL     1       1.528   8.310  20.261  0.00  0.00    +0.000 A 
ENDBRANCH   3  11
BRANCH   1  19
ATOM     18  O   UNL     1       6.602   5.371  17.238  0.00  0.00    +0.000 OA
ATOM     19  C   UNL     1       5.484   5.320  16.747  0.00  0.00    +0.000 C 
BRANCH  19  20
ATOM     20  O   UNL     1       5.261   5.392  15.420  0.00  0.00    +0.000 OA
ATOM     21  H   UNL     1       5.025   4.553  14.980  0.00  0.00    +0.000 HD
ENDBRANCH  19  20
ENDBRANCH   1  19
BRANCH   2  22
ATOM     22  O   UNL     1       4.344   7.770  17.418  0.00  0.00    +0.000 OA
ATOM     23  H   UNL     1       4.124   7.919  16.472  0.00  0.00    +0.000 HD
ENDBRANCH   2  22
BRANCH   8  24
ATOM     24  O   UNL     1       4.020   0.545  18.264  0.00  0.00    +0.000 OA
ATOM     25  H   UNL     1       3.827  -0.036  19.018  0.00  0.00    +0.000 HD
ENDBRANCH   8  24
TORSDOF 5
ENDMDL
MODEL 8
REMARK VINA RESULT:      -7.1      6.176      8.583
REMARK  Name = 
REMARK  5 active torsions:
REMARK  status: ('A' for Active; 'I' for Inactive)
REMARK    1  A    between atoms: C_2  and  O_3
REMARK    2  A    between atoms: C_2  and  C_4
REMARK    3  A    between atoms: C_5  and  O_6
REMARK    4  A    between atoms: C_7  and  C_8
REMARK    5  A    between atoms: C_19  and  O_20
REMARK                            x       y       z     vdW  Elec       q    Type
REMARK                         _______ _______ _______ _____ _____    ______ ____
ROOT
ATOM      1  C   UNL     1       0.702  10.466  19.239  0.00  0.00    +0.000 A 
ATOM      2  C   UNL     1       1.446   9.492  18.558  0.00  0.00    +0.000 A 
ATOM      3  C   UNL     1       1.838   8.344  19.243  0.00  0.00    +0.000 A 
ATOM      4  N   UNL     1       1.479   8.142  20.539  0.00  0.00    +0.000 NA
ATOM      5  C   UNL     1       0.732   9.059  21.182  0.00  0.00    +0.000 A 
ATOM      6  C   UNL     1       0.385   8.819  22.509  0.00  0.00    +0.000 A 
ATOM      7  C   UNL     1      -0.372   9.720  23.263  0.00  0.00    +0.000 A 
ATOM      8  C   UNL     1      -0.826  10.878  22.660  0.00  0.00    +0.000 A 
ATOM      9  C   UNL     1      -0.534  11.133  21.327  0.00  0.00    +0.000 A 
ATOM     10  C   UNL     1       0.290  10.253  20.575  0.00  0.00    +0.000 A 
ENDROOT
BRANCH   3  11
ATOM     11  C   UNL     1       2.630   7.252  18.615  0.00  0.00    +0.000 A 
ATOM     12  C   UNL     1       3.777   7.519  17.839  0.00  0.00    +0.000 A 
ATOM     13  C   UNL     1       4.440   6.511  17.133  0.00  0.00    +0.000 A 
ATOM     14  C   UNL     1       3.991   5.201  17.220  0.00  0.00    +0.000 A 
ATOM     15 CL   UNL     1       4.768   3.968  16.307  0.00  0.00    +0.000 Cl
ATOM     16  C   UNL     1       2.905   4.888  18.034  0.00  0.00    +0.000 A 
ATOM     17  C   UNL     1       2.235   5.906  18.729  0.00  0.00    +0.000 A 
ENDBRANCH   3  11
BRANCH   1  19
ATOM     18  O   UNL     1       1.028  12.722  18.650  0.00  0.00    +0.000 OA
ATOM     19  C   UNL     1       0.379  11.699  18.487  0.00  0.00    +0.000 C 
BRANCH  19  20
ATOM     20  O   UNL     1      -0.753  11.657  17.758  0.00  0.00    +0.000 OA
ATOM     21  H   UNL     1      -1.254  10.819  17.795  0.00  0.00    +0.000 HD
ENDBRANCH  19  20
ENDBRANCH   1  19
BRANCH   2  22
ATOM     22  O   UNL     1       1.784   9.648  17.234  0.00  0.00    +0.000 OA
ATOM     23  H   UNL     1       1.113  10.203  16.781  0.00  0.00    +0.000 HD
ENDBRANCH   2  22
BRANCH   8  24
ATOM     24  O   UNL     1      -1.555  11.808  23.334  0.00  0.00    +0.000 OA
ATOM     25  H   UNL     1      -2.495  11.699  23.116  0.00  0.00    +0.000 HD
ENDBRANCH   8  24
TORSDOF 5
ENDMDL
MODEL 9
REMARK VINA RESULT:      -7.0      0.348      1.063
REMARK  Name = 
REMARK  5 active torsions:
REMARK  status: ('A' for Active; 'I' for Inactive)
REMARK    1  A    between atoms: C_2  and  O_3
REMARK    2  A    between atoms: C_2  and  C_4
REMARK    3  A    between atoms: C_5  and  O_6
REMARK    4  A    between atoms: C_7  and  C_8
REMARK    5  A    between atoms: C_19  and  O_20
REMARK                            x       y       z     vdW  Elec       q    Type
REMARK                         _______ _______ _______ _____ _____    ______ ____
ROOT
ATOM      1  C   UNL     1       6.660   5.848  17.528  0.00  0.00    +0.000 A 
ATOM      2  C   UNL     1       5.854   5.433  18.597  0.00  0.00    +0.000 A 
ATOM      3  C   UNL     1       4.874   4.470  18.366  0.00  0.00    +0.000 A 
ATOM      4  N   UNL     1       4.716   3.908  17.138  0.00  0.00    +0.000 NA
ATOM      5  C   UNL     1       5.516   4.279  16.120  0.00  0.00    +0.000 A 
ATOM      6  C   UNL     1       5.324   3.683  14.876  0.00  0.00    +0.000 A 
ATOM      7  C   UNL     1       6.092   4.017  13.757  0.00  0.00    +0.000 A 
ATOM      8  C   UNL     1       7.105   4.947  13.896  0.00  0.00    +0.000 A 
ATOM      9  C   UNL     1       7.352   5.533  15.130  0.00  0.00    +0.000 A 
ATOM     10  C   UNL     1       6.533   5.247  16.255  0.00  0.00    +0.000 A 
ENDROOT
BRANCH   3  11
ATOM     11  C   UNL     1       3.965   3.961  19.430  0.00  0.00    +0.000 A 
ATOM     12  C   UNL     1       4.193   2.728  20.073  0.00  0.00    +0.000 A 
ATOM     13  C   UNL     1       3.270   2.181  20.968  0.00  0.00    +0.000 A 
ATOM     14  C   UNL     1       2.109   2.881  21.271  0.00  0.00    +0.000 A 
ATOM     15 CL   UNL     1       0.943   2.186  22.326  0.00  0.00    +0.000 Cl
ATOM     16  C   UNL     1       1.884   4.135  20.711  0.00  0.00    +0.000 A 
ATOM     17  C   UNL     1       2.809   4.672  19.802  0.00  0.00    +0.000 A 
ENDBRANCH   3  11
BRANCH   1  19
ATOM     18  O   UNL     1       7.794   7.849  17.025  0.00  0.00    +0.000 OA
ATOM     19  C   UNL     1       7.632   6.928  17.812  0.00  0.00    +0.000 C 
BRANCH  19  20
ATOM     20  O   UNL     1       8.420   6.734  18.887  0.00  0.00    +0.000 OA
ATOM     21  H   UNL     1       8.493   5.813  19.203  0.00  0.00    +0.000 HD
ENDBRANCH  19  20
ENDBRANCH   1  19
BRANCH   2  22
ATOM     22  O   UNL     1       6.021   5.949  19.861  0.00  0.00    +0.000 OA
ATOM     23  H   UNL     1       6.869   6.442  19.911  0.00  0.00    +0.000 HD
ENDBRANCH   2  22
BRANCH   8  24
ATOM     24  O   UNL     1       7.883   5.331  12.849  0.00  0.00    +0.000 OA
ATOM     25  H   UNL     1       8.818   5.206  13.080  0.00  0.00    +0.000 HD
ENDBRANCH   8  24
TORSDOF 5
ENDMDL
