MODEL 1
REMARK VINA RESULT:      -8.1      0.000      0.000
REMARK  Name = 
REMARK  10 active torsions:
REMARK  status: ('A' for Active; 'I' for Inactive)
REMARK    1  A    between atoms: C_1  and  C_2
REMARK    2  A    between atoms: C_2  and  O_3
REMARK    3  A    between atoms: O_3  and  C_4
REMARK    4  A    between atoms: C_7  and  S_8
REMARK    5  A    between atoms: S_8  and  N_11
REMARK    6  A    between atoms: N_11  and  C_12
REMARK    7  A    between atoms: C_12  and  C_13
REMARK    8  A    between atoms: C_13  and  C_14
REMARK    9  A    between atoms: C_19  and  C_20
REMARK   10  A    between atoms: C_24  and  C_25
REMARK                            x       y       z     vdW  Elec       q    Type
REMARK                         _______ _______ _______ _____ _____    ______ ____
ROOT
ATOM      1  C   UNL     1       3.012   8.007  17.886  0.00  0.00    +0.000 C 
ENDROOT
BRANCH   1   2
ATOM      2  C   UNL     1       3.545   6.629  18.125  0.00  0.00    +0.000 A 
ATOM      3  C   UNL     1       3.379   5.915  19.259  0.00  0.00    +0.000 A 
ATOM      4  S   UNL     1       4.186   4.346  19.229  0.00  0.00    +0.000 S 
ATOM      5  C   UNL     1       4.750   4.717  17.637  0.00  0.00    +0.000 A 
ATOM      6  N   UNL     1       5.478   4.100  16.760  0.00  0.00    +0.000 NA
ATOM      7  C   UNL     1       5.490   5.013  15.717  0.00  0.00    +0.000 A 
ATOM      8  N   UNL     1       4.827   6.170  15.967  0.00  0.00    +0.000 NA
ATOM      9  N   UNL     1       4.330   5.942  17.204  0.00  0.00    +0.000 N 
BRANCH   7  10
ATOM     10  C   UNL     1       6.132   4.669  14.444  0.00  0.00    +0.000 A 
ATOM     11  C   UNL     1       7.258   5.354  13.976  0.00  0.00    +0.000 A 
ATOM     12  C   UNL     1       7.804   5.052  12.724  0.00  0.00    +0.000 A 
ATOM     13  C   UNL     1       7.225   4.068  11.920  0.00  0.00    +0.000 A 
ATOM     14  C   UNL     1       6.109   3.358  12.370  0.00  0.00    +0.000 A 
ATOM     15  C   UNL     1       5.452   2.319  11.508  0.00  0.00    +0.000 C 
ATOM     16  C   UNL     1       5.582   3.655  13.636  0.00  0.00    +0.000 A 
ENDBRANCH   7  10
ENDBRANCH   1   2
BRANCH   1  17
ATOM     17  C   UNL     1       1.810   8.380  18.759  0.00  0.00    +0.000 C 
BRANCH  17  18
ATOM     18  N   UNL     1       1.424   9.778  18.554  0.00  0.00    +0.000 NA
ATOM     19  H   UNL     1       2.101  10.404  18.116  0.00  0.00    +0.000 HD
BRANCH  18  20
ATOM     20  S   UNL     1       0.535  10.539  19.770  0.00  0.00    +0.000 S 
ATOM     21  O   UNL     1       1.162  11.805  20.065  0.00  0.00    +0.000 OA
ATOM     22  O   UNL     1       0.289   9.547  20.790  0.00  0.00    +0.000 OA
BRANCH  20  26
ATOM     23  C   UNL     1      -3.528  11.261  17.794  0.00  0.00    +0.000 A 
ATOM     24  C   UNL     1      -2.635  10.328  17.257  0.00  0.00    +0.000 A 
ATOM     25  C   UNL     1      -1.386  10.124  17.847  0.00  0.00    +0.000 A 
ATOM     26  C   UNL     1      -1.021  10.876  18.966  0.00  0.00    +0.000 A 
ATOM     27  C   UNL     1      -1.905  11.820  19.502  0.00  0.00    +0.000 A 
ATOM     28  C   UNL     1      -3.152  12.022  18.901  0.00  0.00    +0.000 A 
BRANCH  23  29
ATOM     29  O   UNL     1      -4.729  11.341  17.146  0.00  0.00    +0.000 OA
BRANCH  29  31
ATOM     30  C   UNL     1      -6.692  10.770  18.365  0.00  0.00    +0.000 C 
ATOM     31  C   UNL     1      -5.813  11.911  17.880  0.00  0.00    +0.000 C 
ENDBRANCH  29  31
ENDBRANCH  23  29
ENDBRANCH  20  26
ENDBRANCH  18  20
ENDBRANCH  17  18
ENDBRANCH   1  17
TORSDOF 8
ENDMDL
MODEL 2
REMARK VINA RESULT:      -8.0      4.740     10.549
REMARK  Name = 
REMARK  10 active torsions:
REMARK  status: ('A' for Active; 'I' for Inactive)
REMARK    1  A    between atoms: C_1  and  C_2
REMARK    2  A    between atoms: C_2  and  O_3
REMARK    3  A    between atoms: O_3  and  C_4
REMARK    4  A    between atoms: C_7  and  S_8
REMARK    5  A    between atoms: S_8  and  N_11
REMARK    6  A    between atoms: N_11  and  C_12
REMARK    7  A    between atoms: C_12  and  C_13
REMARK    8  A    between atoms: C_13  and  C_14
REMARK    9  A    between atoms: C_19  and  C_20
REMARK   10  A    between atoms: C_24  and  C_25
REMARK                            x       y       z     vdW  Elec       q    Type
REMARK                         _______ _______ _______ _____ _____    ______ ____
ROOT
ATOM      1  C   UNL     1       2.159   5.754  20.727  0.00  0.00    +0.000 C 
ENDROOT
BRANCH   1   2
ATOM      2  C   UNL     1       2.067   6.942  19.822  0.00  0.00    +0.000 A 
ATOM      3  C   UNL     1       2.534   6.997  18.556  0.00  0.00    +0.000 A 
ATOM      4  S   UNL     1       2.310   8.570  17.788  0.00  0.00    +0.000 S 
ATOM      5  C   UNL     1       1.578   9.130  19.252  0.00  0.00    +0.000 A 
ATOM      6  N   UNL     1       1.067  10.254  19.645  0.00  0.00    +0.000 NA
ATOM      7  C   UNL     1       0.666   9.942  20.935  0.00  0.00    +0.000 A 
ATOM      8  N   UNL     1       0.963   8.679  21.332  0.00  0.00    +0.000 NA
ATOM      9  N   UNL     1       1.525   8.163  20.215  0.00  0.00    +0.000 N 
BRANCH   7  10
ATOM     10  C   UNL     1      -0.075  10.923  21.734  0.00  0.00    +0.000 A 
ATOM     11  C   UNL     1      -1.075  10.538  22.634  0.00  0.00    +0.000 A 
ATOM     12  C   UNL     1      -1.815  11.502  23.327  0.00  0.00    +0.000 A 
ATOM     13  C   UNL     1      -1.572  12.862  23.122  0.00  0.00    +0.000 A 
ATOM     14  C   UNL     1      -0.569  13.272  22.240  0.00  0.00    +0.000 A 
ATOM     15  C   UNL     1      -0.314  14.729  21.981  0.00  0.00    +0.000 C 
ATOM     16  C   UNL     1       0.181  12.297  21.565  0.00  0.00    +0.000 A 
ENDBRANCH   7  10
ENDBRANCH   1   2
BRANCH   1  17
ATOM     17  C   UNL     1       1.208   4.608  20.365  0.00  0.00    +0.000 C 
BRANCH  17  18
ATOM     18  N   UNL     1       1.401   4.183  18.976  0.00  0.00    +0.000 NA
ATOM     19  H   UNL     1       0.578   4.118  18.376  0.00  0.00    +0.000 HD
BRANCH  18  20
ATOM     20  S   UNL     1       2.520   2.957  18.673  0.00  0.00    +0.000 S 
ATOM     21  O   UNL     1       2.085   2.224  17.509  0.00  0.00    +0.000 OA
ATOM     22  O   UNL     1       2.779   2.308  19.938  0.00  0.00    +0.000 OA
BRANCH  20  26
ATOM     23  C   UNL     1       6.383   5.134  17.548  0.00  0.00    +0.000 A 
ATOM     24  C   UNL     1       6.064   4.905  18.890  0.00  0.00    +0.000 A 
ATOM     25  C   UNL     1       4.874   4.261  19.235  0.00  0.00    +0.000 A 
ATOM     26  C   UNL     1       3.988   3.866  18.229  0.00  0.00    +0.000 A 
ATOM     27  C   UNL     1       4.295   4.101  16.884  0.00  0.00    +0.000 A 
ATOM     28  C   UNL     1       5.487   4.754  16.549  0.00  0.00    +0.000 A 
BRANCH  23  29
ATOM     29  O   UNL     1       7.590   5.742  17.343  0.00  0.00    +0.000 OA
BRANCH  29  31
ATOM     30  C   UNL     1       7.724   8.108  17.578  0.00  0.00    +0.000 C 
ATOM     31  C   UNL     1       7.951   6.771  18.265  0.00  0.00    +0.000 C 
ENDBRANCH  29  31
ENDBRANCH  23  29
ENDBRANCH  20  26
ENDBRANCH  18  20
ENDBRANCH  17  18
ENDBRANCH   1  17
TORSDOF 8
ENDMDL
MODEL 3
REMARK VINA RESULT:      -7.8      4.645      9.859
REMARK  Name = 
REMARK  10 active torsions:
REMARK  status: ('A' for Active; 'I' for Inactive)
REMARK    1  A    between atoms: C_1  and  C_2
REMARK    2  A    between atoms: C_2  and  O_3
REMARK    3  A    between atoms: O_3  and  C_4
REMARK    4  A    between atoms: C_7  and  S_8
REMARK    5  A    between atoms: S_8  and  N_11
REMARK    6  A    between atoms: N_11  and  C_12
REMARK    7  A    between atoms: C_12  and  C_13
REMARK    8  A    between atoms: C_13  and  C_14
REMARK    9  A    between atoms: C_19  and  C_20
REMARK   10  A    between atoms: C_24  and  C_25
REMARK                            x       y       z     vdW  Elec       q    Type
REMARK                         _______ _______ _______ _____ _____    ______ ____
ROOT
ATOM      1  C   UNL     1       5.253   3.827  19.249  0.00  0.00    +0.000 C 
ENDROOT
BRANCH   1   2
ATOM      2  C   UNL     1       3.926   3.771  19.940  0.00  0.00    +0.000 A 
ATOM      3  C   UNL     1       3.378   2.667  20.489  0.00  0.00    +0.000 A 
ATOM      4  S   UNL     1       1.775   2.940  21.175  0.00  0.00    +0.000 S 
ATOM      5  C   UNL     1       1.892   4.592  20.675  0.00  0.00    +0.000 A 
ATOM      6  N   UNL     1       1.119   5.628  20.759  0.00  0.00    +0.000 NA
ATOM      7  C   UNL     1       1.892   6.603  20.148  0.00  0.00    +0.000 A 
ATOM      8  N   UNL     1       3.082   6.165  19.665  0.00  0.00    +0.000 NA
ATOM      9  N   UNL     1       3.073   4.867  20.046  0.00  0.00    +0.000 N 
BRANCH   7  10
ATOM     10  C   UNL     1       1.432   7.994  20.115  0.00  0.00    +0.000 A 
ATOM     11  C   UNL     1       1.678   8.828  19.019  0.00  0.00    +0.000 A 
ATOM     12  C   UNL     1       1.291  10.172  19.048  0.00  0.00    +0.000 A 
ATOM     13  C   UNL     1       0.662  10.702  20.177  0.00  0.00    +0.000 A 
ATOM     14  C   UNL     1       0.390   9.887  21.279  0.00  0.00    +0.000 A 
ATOM     15  C   UNL     1      -0.257  10.445  22.514  0.00  0.00    +0.000 C 
ATOM     16  C   UNL     1       0.764   8.535  21.231  0.00  0.00    +0.000 A 
ENDBRANCH   7  10
ENDBRANCH   1   2
BRANCH   1  17
ATOM     17  C   UNL     1       5.166   3.973  17.726  0.00  0.00    +0.000 C 
BRANCH  17  18
ATOM     18  N   UNL     1       5.723   5.254  17.287  0.00  0.00    +0.000 NA
ATOM     19  H   UNL     1       5.078   5.965  16.942  0.00  0.00    +0.000 HD
BRANCH  18  20
ATOM     20  S   UNL     1       7.177   5.232  16.431  0.00  0.00    +0.000 S 
ATOM     21  O   UNL     1       8.047   4.257  17.041  0.00  0.00    +0.000 OA
ATOM     22  O   UNL     1       7.574   6.609  16.250  0.00  0.00    +0.000 OA
BRANCH  20  26
ATOM     23  C   UNL     1       5.816   3.771  12.315  0.00  0.00    +0.000 A 
ATOM     24  C   UNL     1       5.002   3.589  13.436  0.00  0.00    +0.000 A 
ATOM     25  C   UNL     1       5.426   4.014  14.697  0.00  0.00    +0.000 A 
ATOM     26  C   UNL     1       6.685   4.604  14.837  0.00  0.00    +0.000 A 
ATOM     27  C   UNL     1       7.512   4.780  13.721  0.00  0.00    +0.000 A 
ATOM     28  C   UNL     1       7.080   4.345  12.463  0.00  0.00    +0.000 A 
BRANCH  23  29
ATOM     29  O   UNL     1       5.272   3.343  11.137  0.00  0.00    +0.000 OA
BRANCH  29  31
ATOM     30  C   UNL     1       3.266   3.926   9.995  0.00  0.00    +0.000 C 
ATOM     31  C   UNL     1       3.863   3.113  11.131  0.00  0.00    +0.000 C 
ENDBRANCH  29  31
ENDBRANCH  23  29
ENDBRANCH  20  26
ENDBRANCH  18  20
ENDBRANCH  17  18
ENDBRANCH   1  17
TORSDOF 8
ENDMDL
MODEL 4
REMARK VINA RESULT:      -7.8      4.657      9.942
REMARK  Name = 
REMARK  10 active torsions:
REMARK  status: ('A' for Active; 'I' for Inactive)
REMARK    1  A    between atoms: C_1  and  C_2
REMARK    2  A    between atoms: C_2  and  O_3
REMARK    3  A    between atoms: O_3  and  C_4
REMARK    4  A    between atoms: C_7  and  S_8
REMARK    5  A    between atoms: S_8  and  N_11
REMARK    6  A    between atoms: N_11  and  C_12
REMARK    7  A    between atoms: C_12  and  C_13
REMARK    8  A    between atoms: C_13  and  C_14
REMARK    9  A    between atoms: C_19  and  C_20
REMARK   10  A    between atoms: C_24  and  C_25
REMARK                            x       y       z     vdW  Elec       q    Type
REMARK                         _______ _______ _______ _____ _____    ______ ____
ROOT
ATOM      1  C   UNL     1       5.243   3.571  19.271  0.00  0.00    +0.000 C 
ENDROOT
BRANCH   1   2
ATOM      2  C   UNL     1       3.950   3.675  20.018  0.00  0.00    +0.000 A 
ATOM      3  C   UNL     1       3.385   2.685  20.741  0.00  0.00    +0.000 A 
ATOM      4  S   UNL     1       1.830   3.126  21.448  0.00  0.00    +0.000 S 
ATOM      5  C   UNL     1       1.988   4.684  20.713  0.00  0.00    +0.000 A 
ATOM      6  N   UNL     1       1.262   5.756  20.681  0.00  0.00    +0.000 NA
ATOM      7  C   UNL     1       2.043   6.599  19.906  0.00  0.00    +0.000 A 
ATOM      8  N   UNL     1       3.190   6.043  19.441  0.00  0.00    +0.000 NA
ATOM      9  N   UNL     1       3.148   4.813  20.002  0.00  0.00    +0.000 N 
BRANCH   7  10
ATOM     10  C   UNL     1       1.638   7.992  19.694  0.00  0.00    +0.000 A 
ATOM     11  C   UNL     1       1.835   8.641  18.471  0.00  0.00    +0.000 A 
ATOM     12  C   UNL     1       1.506   9.993  18.323  0.00  0.00    +0.000 A 
ATOM     13  C   UNL     1       0.983  10.715  19.398  0.00  0.00    +0.000 A 
ATOM     14  C   UNL     1       0.762  10.086  20.626  0.00  0.00    +0.000 A 
ATOM     15  C   UNL     1       0.231  10.852  21.804  0.00  0.00    +0.000 C 
ATOM     16  C   UNL     1       1.077   8.725  20.758  0.00  0.00    +0.000 A 
ENDBRANCH   7  10
ENDBRANCH   1   2
BRANCH   1  17
ATOM     17  C   UNL     1       5.996   4.898  19.124  0.00  0.00    +0.000 C 
BRANCH  17  18
ATOM     18  N   UNL     1       5.897   5.411  17.756  0.00  0.00    +0.000 NA
ATOM     19  H   UNL     1       5.042   5.220  17.233  0.00  0.00    +0.000 HD
BRANCH  18  20
ATOM     20  S   UNL     1       7.275   5.342  16.785  0.00  0.00    +0.000 S 
ATOM     21  O   UNL     1       8.160   4.338  17.323  0.00  0.00    +0.000 OA
ATOM     22  O   UNL     1       7.702   6.706  16.570  0.00  0.00    +0.000 OA
BRANCH  20  26
ATOM     23  C   UNL     1       5.757   3.645  12.817  0.00  0.00    +0.000 A 
ATOM     24  C   UNL     1       6.868   4.492  12.846  0.00  0.00    +0.000 A 
ATOM     25  C   UNL     1       7.318   5.029  14.054  0.00  0.00    +0.000 A 
ATOM     26  C   UNL     1       6.636   4.733  15.237  0.00  0.00    +0.000 A 
ATOM     27  C   UNL     1       5.516   3.893  15.215  0.00  0.00    +0.000 A 
ATOM     28  C   UNL     1       5.068   3.366  13.998  0.00  0.00    +0.000 A 
BRANCH  23  29
ATOM     29  O   UNL     1       5.439   3.160  11.580  0.00  0.00    +0.000 OA
BRANCH  29  31
ATOM     30  C   UNL     1       7.143   1.556  11.138  0.00  0.00    +0.000 C 
ATOM     31  C   UNL     1       5.655   1.764  11.367  0.00  0.00    +0.000 C 
ENDBRANCH  29  31
ENDBRANCH  23  29
ENDBRANCH  20  26
ENDBRANCH  18  20
ENDBRANCH  17  18
ENDBRANCH   1  17
TORSDOF 8
ENDMDL
MODEL 5
REMARK VINA RESULT:      -7.8      1.683      2.426
REMARK  Name = 
REMARK  10 active torsions:
REMARK  status: ('A' for Active; 'I' for Inactive)
REMARK    1  A    between atoms: C_1  and  C_2
REMARK    2  A    between atoms: C_2  and  O_3
REMARK    3  A    between atoms: O_3  and  C_4
REMARK    4  A    between atoms: C_7  and  S_8
REMARK    5  A    between atoms: S_8  and  N_11
REMARK    6  A    between atoms: N_11  and  C_12
REMARK    7  A    between atoms: C_12  and  C_13
REMARK    8  A    between atoms: C_13  and  C_14
REMARK    9  A    between atoms: C_19  and  C_20
REMARK   10  A    between atoms: C_24  and  C_25
REMARK                            x       y       z     vdW  Elec       q    Type
REMARK                         _______ _______ _______ _____ _____    ______ ____
ROOT
ATOM      1  C   UNL     1       1.677   6.707  20.673  0.00  0.00    +0.000 C 
ENDROOT
BRANCH   1   2
ATOM      2  C   UNL     1       1.810   5.302  20.174  0.00  0.00    +0.000 A 
ATOM      3  C   UNL     1       1.072   4.252  20.593  0.00  0.00    +0.000 A 
ATOM      4  S   UNL     1       1.526   2.723  19.837  0.00  0.00    +0.000 S 
ATOM      5  C   UNL     1       2.747   3.573  18.956  0.00  0.00    +0.000 A 
ATOM      6  N   UNL     1       3.647   3.236  18.087  0.00  0.00    +0.000 NA
ATOM      7  C   UNL     1       4.247   4.457  17.818  0.00  0.00    +0.000 A 
ATOM      8  N   UNL     1       3.758   5.500  18.536  0.00  0.00    +0.000 NA
ATOM      9  N   UNL     1       2.767   4.909  19.242  0.00  0.00    +0.000 N 
BRANCH   7  10
ATOM     10  C   UNL     1       5.279   4.559  16.783  0.00  0.00    +0.000 A 
ATOM     11  C   UNL     1       6.482   5.238  17.004  0.00  0.00    +0.000 A 
ATOM     12  C   UNL     1       7.416   5.381  15.972  0.00  0.00    +0.000 A 
ATOM     13  C   UNL     1       7.156   4.856  14.705  0.00  0.00    +0.000 A 
ATOM     14  C   UNL     1       5.969   4.160  14.462  0.00  0.00    +0.000 A 
ATOM     15  C   UNL     1       5.655   3.615  13.099  0.00  0.00    +0.000 C 
ATOM     16  C   UNL     1       5.048   4.004  15.509  0.00  0.00    +0.000 A 
ENDBRANCH   7  10
ENDBRANCH   1   2
BRANCH   1  17
ATOM     17  C   UNL     1       1.999   7.781  19.629  0.00  0.00    +0.000 C 
BRANCH  17  18
ATOM     18  N   UNL     1       1.184   8.980  19.838  0.00  0.00    +0.000 NA
ATOM     19  H   UNL     1       0.264   8.865  20.264  0.00  0.00    +0.000 HD
BRANCH  18  20
ATOM     20  S   UNL     1       1.197  10.164  18.637  0.00  0.00    +0.000 S 
ATOM     21  O   UNL     1       1.694   9.570  17.419  0.00  0.00    +0.000 OA
ATOM     22  O   UNL     1       1.800  11.341  19.219  0.00  0.00    +0.000 OA
BRANCH  20  26
ATOM     23  C   UNL     1      -3.206  11.189  17.937  0.00  0.00    +0.000 A 
ATOM     24  C   UNL     1      -2.462  11.880  18.898  0.00  0.00    +0.000 A 
ATOM     25  C   UNL     1      -1.124  11.552  19.128  0.00  0.00    +0.000 A 
ATOM     26  C   UNL     1      -0.536  10.509  18.407  0.00  0.00    +0.000 A 
ATOM     27  C   UNL     1      -1.278   9.805  17.451  0.00  0.00    +0.000 A 
ATOM     28  C   UNL     1      -2.620  10.136  17.232  0.00  0.00    +0.000 A 
BRANCH  23  29
ATOM     29  O   UNL     1      -4.492  11.627  17.785  0.00  0.00    +0.000 OA
BRANCH  29  31
ATOM     30  C   UNL     1      -6.351  10.478  18.729  0.00  0.00    +0.000 C 
ATOM     31  C   UNL     1      -5.325  11.578  18.944  0.00  0.00    +0.000 C 
ENDBRANCH  29  31
ENDBRANCH  23  29
ENDBRANCH  20  26
ENDBRANCH  18  20
ENDBRANCH  17  18
ENDBRANCH   1  17
TORSDOF 8
ENDMDL
MODEL 6
REMARK VINA RESULT:      -7.7      4.470     10.335
REMARK  Name = 
REMARK  10 active torsions:
REMARK  status: ('A' for Active; 'I' for Inactive)
REMARK    1  A    between atoms: C_1  and  C_2
REMARK    2  A    between atoms: C_2  and  O_3
REMARK    3  A    between atoms: O_3  and  C_4
REMARK    4  A    between atoms: C_7  and  S_8
REMARK    5  A    between atoms: S_8  and  N_11
REMARK    6  A    between atoms: N_11  and  C_12
REMARK    7  A    between atoms: C_12  and  C_13
REMARK    8  A    between atoms: C_13  and  C_14
REMARK    9  A    between atoms: C_19  and  C_20
REMARK   10  A    between atoms: C_24  and  C_25
REMARK                            x       y       z     vdW  Elec       q    Type
REMARK                         _______ _______ _______ _____ _____    ______ ____
ROOT
ATOM      1  C   UNL     1       2.389   5.652  20.666  0.00  0.00    +0.000 C 
ENDROOT
BRANCH   1   2
ATOM      2  C   UNL     1       2.283   6.824  19.740  0.00  0.00    +0.000 A 
ATOM      3  C   UNL     1       2.881   6.922  18.534  0.00  0.00    +0.000 A 
ATOM      4  S   UNL     1       2.591   8.463  17.725  0.00  0.00    +0.000 S 
ATOM      5  C   UNL     1       1.647   8.951  19.091  0.00  0.00    +0.000 A 
ATOM      6  N   UNL     1       0.987  10.019  19.410  0.00  0.00    +0.000 NA
ATOM      7  C   UNL     1       0.476   9.671  20.650  0.00  0.00    +0.000 A 
ATOM      8  N   UNL     1       0.850   8.445  21.095  0.00  0.00    +0.000 NA
ATOM      9  N   UNL     1       1.582   7.985  20.055  0.00  0.00    +0.000 N 
BRANCH   7  10
ATOM     10  C   UNL     1      -0.443  10.575  21.348  0.00  0.00    +0.000 A 
ATOM     11  C   UNL     1      -0.690  10.461  22.721  0.00  0.00    +0.000 A 
ATOM     12  C   UNL     1      -1.629  11.291  23.344  0.00  0.00    +0.000 A 
ATOM     13  C   UNL     1      -2.338  12.238  22.602  0.00  0.00    +0.000 A 
ATOM     14  C   UNL     1      -2.099  12.382  21.233  0.00  0.00    +0.000 A 
ATOM     15  C   UNL     1      -2.873  13.372  20.411  0.00  0.00    +0.000 C 
ATOM     16  C   UNL     1      -1.141  11.559  20.621  0.00  0.00    +0.000 A 
ENDBRANCH   7  10
ENDBRANCH   1   2
BRANCH   1  17
ATOM     17  C   UNL     1       1.185   4.705  20.627  0.00  0.00    +0.000 C 
BRANCH  17  18
ATOM     18  N   UNL     1       1.202   3.882  19.416  0.00  0.00    +0.000 NA
ATOM     19  H   UNL     1       0.308   3.651  18.981  0.00  0.00    +0.000 HD
BRANCH  18  20
ATOM     20  S   UNL     1       2.305   2.608  19.341  0.00  0.00    +0.000 S 
ATOM     21  O   UNL     1       1.756   1.583  18.486  0.00  0.00    +0.000 OA
ATOM     22  O   UNL     1       2.721   2.336  20.697  0.00  0.00    +0.000 OA
BRANCH  20  26
ATOM     23  C   UNL     1       5.786   4.646  17.182  0.00  0.00    +0.000 A 
ATOM     24  C   UNL     1       4.626   4.299  16.484  0.00  0.00    +0.000 A 
ATOM     25  C   UNL     1       3.572   3.656  17.137  0.00  0.00    +0.000 A 
ATOM     26  C   UNL     1       3.692   3.338  18.493  0.00  0.00    +0.000 A 
ATOM     27  C   UNL     1       4.856   3.672  19.196  0.00  0.00    +0.000 A 
ATOM     28  C   UNL     1       5.909   4.310  18.532  0.00  0.00    +0.000 A 
BRANCH  23  29
ATOM     29  O   UNL     1       6.728   5.299  16.438  0.00  0.00    +0.000 OA
BRANCH  29  31
ATOM     30  C   UNL     1       6.661   7.512  17.314  0.00  0.00    +0.000 C 
ATOM     31  C   UNL     1       7.518   6.273  17.122  0.00  0.00    +0.000 C 
ENDBRANCH  29  31
ENDBRANCH  23  29
ENDBRANCH  20  26
ENDBRANCH  18  20
ENDBRANCH  17  18
ENDBRANCH   1  17
TORSDOF 8
ENDMDL
MODEL 7
REMARK VINA RESULT:      -7.7      2.938      3.595
REMARK  Name = 
REMARK  10 active torsions:
REMARK  status: ('A' for Active; 'I' for Inactive)
REMARK    1  A    between atoms: C_1  and  C_2
REMARK    2  A    between atoms: C_2  and  O_3
REMARK    3  A    between atoms: O_3  and  C_4
REMARK    4  A    between atoms: C_7  and  S_8
REMARK    5  A    between atoms: S_8  and  N_11
REMARK    6  A    between atoms: N_11  and  C_12
REMARK    7  A    between atoms: C_12  and  C_13
REMARK    8  A    between atoms: C_13  and  C_14
REMARK    9  A    between atoms: C_19  and  C_20
REMARK   10  A    between atoms: C_24  and  C_25
REMARK                            x       y       z     vdW  Elec       q    Type
REMARK                         _______ _______ _______ _____ _____    ______ ____
ROOT
ATOM      1  C   UNL     1       1.865   5.899  21.026  0.00  0.00    +0.000 C 
ENDROOT
BRANCH   1   2
ATOM      2  C   UNL     1       1.744   4.739  20.087  0.00  0.00    +0.000 A 
ATOM      3  C   UNL     1       0.783   3.793  20.136  0.00  0.00    +0.000 A 
ATOM      4  S   UNL     1       0.968   2.534  18.914  0.00  0.00    +0.000 S 
ATOM      5  C   UNL     1       2.393   3.345  18.360  0.00  0.00    +0.000 A 
ATOM      6  N   UNL     1       3.262   3.126  17.424  0.00  0.00    +0.000 NA
ATOM      7  C   UNL     1       4.112   4.210  17.575  0.00  0.00    +0.000 A 
ATOM      8  N   UNL     1       3.797   5.041  18.600  0.00  0.00    +0.000 NA
ATOM      9  N   UNL     1       2.662   4.478  19.074  0.00  0.00    +0.000 N 
BRANCH   7  10
ATOM     10  C   UNL     1       5.211   4.422  16.628  0.00  0.00    +0.000 A 
ATOM     11  C   UNL     1       6.339   5.179  16.962  0.00  0.00    +0.000 A 
ATOM     12  C   UNL     1       7.336   5.424  16.012  0.00  0.00    +0.000 A 
ATOM     13  C   UNL     1       7.214   4.925  14.714  0.00  0.00    +0.000 A 
ATOM     14  C   UNL     1       6.105   4.154  14.358  0.00  0.00    +0.000 A 
ATOM     15  C   UNL     1       5.939   3.634  12.959  0.00  0.00    +0.000 C 
ATOM     16  C   UNL     1       5.120   3.896  15.324  0.00  0.00    +0.000 A 
ENDBRANCH   7  10
ENDBRANCH   1   2
BRANCH   1  17
ATOM     17  C   UNL     1       1.317   7.219  20.472  0.00  0.00    +0.000 C 
BRANCH  17  18
ATOM     18  N   UNL     1       1.669   8.342  21.344  0.00  0.00    +0.000 NA
ATOM     19  H   UNL     1       2.517   8.265  21.908  0.00  0.00    +0.000 HD
BRANCH  18  20
ATOM     20  S   UNL     1       0.421   9.130  22.161  0.00  0.00    +0.000 S 
ATOM     21  O   UNL     1       0.912   9.539  23.454  0.00  0.00    +0.000 OA
ATOM     22  O   UNL     1      -0.758   8.309  22.011  0.00  0.00    +0.000 OA
BRANCH  20  26
ATOM     23  C   UNL     1      -0.307  12.802  19.530  0.00  0.00    +0.000 A 
ATOM     24  C   UNL     1       0.708  11.893  19.213  0.00  0.00    +0.000 A 
ATOM     25  C   UNL     1       0.945  10.785  20.029  0.00  0.00    +0.000 A 
ATOM     26  C   UNL     1       0.176  10.599  21.181  0.00  0.00    +0.000 A 
ATOM     27  C   UNL     1      -0.834  11.510  21.511  0.00  0.00    +0.000 A 
ATOM     28  C   UNL     1      -1.060  12.622  20.691  0.00  0.00    +0.000 A 
BRANCH  23  29
ATOM     29  O   UNL     1      -0.459  13.824  18.635  0.00  0.00    +0.000 OA
BRANCH  29  31
ATOM     30  C   UNL     1      -0.416  16.204  18.638  0.00  0.00    +0.000 C 
ATOM     31  C   UNL     1       0.416  14.942  18.789  0.00  0.00    +0.000 C 
ENDBRANCH  29  31
ENDBRANCH  23  29
ENDBRANCH  20  26
ENDBRANCH  18  20
ENDBRANCH  17  18
ENDBRANCH   1  17
TORSDOF 8
ENDMDL
MODEL 8
REMARK VINA RESULT:      -7.7      2.188      2.810
REMARK  Name = 
REMARK  10 active torsions:
REMARK  status: ('A' for Active; 'I' for Inactive)
REMARK    1  A    between atoms: C_1  and  C_2
REMARK    2  A    between atoms: C_2  and  O_3
REMARK    3  A    between atoms: O_3  and  C_4
REMARK    4  A    between atoms: C_7  and  S_8
REMARK    5  A    between atoms: S_8  and  N_11
REMARK    6  A    between atoms: N_11  and  C_12
REMARK    7  A    between atoms: C_12  and  C_13
REMARK    8  A    between atoms: C_13  and  C_14
REMARK    9  A    between atoms: C_19  and  C_20
REMARK   10  A    between atoms: C_24  and  C_25
REMARK                            x       y       z     vdW  Elec       q    Type
REMARK                         _______ _______ _______ _____ _____    ______ ____
ROOT
ATOM      1  C   UNL     1       1.982   5.509  21.046  0.00  0.00    +0.000 C 
ENDROOT
BRANCH   1   2
ATOM      2  C   UNL     1       1.926   4.329  20.125  0.00  0.00    +0.000 A 
ATOM      3  C   UNL     1       1.048   3.308  20.218  0.00  0.00    +0.000 A 
ATOM      4  S   UNL     1       1.295   2.052  19.004  0.00  0.00    +0.000 S 
ATOM      5  C   UNL     1       2.628   2.969  18.392  0.00  0.00    +0.000 A 
ATOM      6  N   UNL     1       3.480   2.809  17.429  0.00  0.00    +0.000 NA
ATOM      7  C   UNL     1       4.243   3.961  17.538  0.00  0.00    +0.000 A 
ATOM      8  N   UNL     1       3.895   4.778  18.564  0.00  0.00    +0.000 NA
ATOM      9  N   UNL     1       2.827   4.130  19.083  0.00  0.00    +0.000 N 
BRANCH   7  10
ATOM     10  C   UNL     1       5.288   4.249  16.551  0.00  0.00    +0.000 A 
ATOM     11  C   UNL     1       6.392   5.051  16.857  0.00  0.00    +0.000 A 
ATOM     12  C   UNL     1       7.334   5.369  15.873  0.00  0.00    +0.000 A 
ATOM     13  C   UNL     1       7.180   4.895  14.568  0.00  0.00    +0.000 A 
ATOM     14  C   UNL     1       6.094   4.080  14.239  0.00  0.00    +0.000 A 
ATOM     15  C   UNL     1       5.892   3.587  12.836  0.00  0.00    +0.000 C 
ATOM     16  C   UNL     1       5.166   3.751  15.239  0.00  0.00    +0.000 A 
ENDBRANCH   7  10
ENDBRANCH   1   2
BRANCH   1  17
ATOM     17  C   UNL     1       1.011   6.638  20.686  0.00  0.00    +0.000 C 
BRANCH  17  18
ATOM     18  N   UNL     1       1.618   7.950  20.921  0.00  0.00    +0.000 NA
ATOM     19  H   UNL     1       2.602   7.981  21.192  0.00  0.00    +0.000 HD
BRANCH  18  20
ATOM     20  S   UNL     1       0.694   9.120  21.710  0.00  0.00    +0.000 S 
ATOM     21  O   UNL     1       1.589  10.025  22.386  0.00  0.00    +0.000 OA
ATOM     22  O   UNL     1      -0.360   8.418  22.406  0.00  0.00    +0.000 OA
BRANCH  20  26
ATOM     23  C   UNL     1      -1.347  11.252  18.214  0.00  0.00    +0.000 A 
ATOM     24  C   UNL     1      -0.348  10.303  17.979  0.00  0.00    +0.000 A 
ATOM     25  C   UNL     1       0.291   9.669  19.046  0.00  0.00    +0.000 A 
ATOM     26  C   UNL     1      -0.057  10.005  20.357  0.00  0.00    +0.000 A 
ATOM     27  C   UNL     1      -1.049  10.962  20.601  0.00  0.00    +0.000 A 
ATOM     28  C   UNL     1      -1.679  11.598  19.525  0.00  0.00    +0.000 A 
BRANCH  23  29
ATOM     29  O   UNL     1      -1.917  11.774  17.087  0.00  0.00    +0.000 OA
BRANCH  29  31
ATOM     30  C   UNL     1      -2.989  10.592  15.320  0.00  0.00    +0.000 C 
ATOM     31  C   UNL     1      -3.173  11.220  16.692  0.00  0.00    +0.000 C 
ENDBRANCH  29  31
ENDBRANCH  23  29
ENDBRANCH  20  26
ENDBRANCH  18  20
ENDBRANCH  17  18
ENDBRANCH   1  17
TORSDOF 8
ENDMDL
MODEL 9
REMARK VINA RESULT:      -7.6      3.327      4.152
REMARK  Name = 
REMARK  10 active torsions:
REMARK  status: ('A' for Active; 'I' for Inactive)
REMARK    1  A    between atoms: C_1  and  C_2
REMARK    2  A    between atoms: C_2  and  O_3
REMARK    3  A    between atoms: O_3  and  C_4
REMARK    4  A    between atoms: C_7  and  S_8
REMARK    5  A    between atoms: S_8  and  N_11
REMARK    6  A    between atoms: N_11  and  C_12
REMARK    7  A    between atoms: C_12  and  C_13
REMARK    8  A    between atoms: C_13  and  C_14
REMARK    9  A    between atoms: C_19  and  C_20
REMARK   10  A    between atoms: C_24  and  C_25
REMARK                            x       y       z     vdW  Elec       q    Type
REMARK                         _______ _______ _______ _____ _____    ______ ____
ROOT
ATOM      1  C   UNL     1       1.886   5.767  21.089  0.00  0.00    +0.000 C 
ENDROOT
BRANCH   1   2
ATOM      2  C   UNL     1       1.740   4.656  20.097  0.00  0.00    +0.000 A 
ATOM      3  C   UNL     1       0.764   3.724  20.108  0.00  0.00    +0.000 A 
ATOM      4  S   UNL     1       0.921   2.522  18.825  0.00  0.00    +0.000 S 
ATOM      5  C   UNL     1       2.354   3.336  18.300  0.00  0.00    +0.000 A 
ATOM      6  N   UNL     1       3.214   3.149  17.349  0.00  0.00    +0.000 NA
ATOM      7  C   UNL     1       4.083   4.211  17.545  0.00  0.00    +0.000 A 
ATOM      8  N   UNL     1       3.787   4.996  18.611  0.00  0.00    +0.000 NA
ATOM      9  N   UNL     1       2.647   4.429  19.066  0.00  0.00    +0.000 N 
BRANCH   7  10
ATOM     10  C   UNL     1       5.178   4.450  16.601  0.00  0.00    +0.000 A 
ATOM     11  C   UNL     1       6.268   5.265  16.926  0.00  0.00    +0.000 A 
ATOM     12  C   UNL     1       7.261   5.534  15.978  0.00  0.00    +0.000 A 
ATOM     13  C   UNL     1       7.173   5.000  14.691  0.00  0.00    +0.000 A 
ATOM     14  C   UNL     1       6.103   4.171  14.345  0.00  0.00    +0.000 A 
ATOM     15  C   UNL     1       5.972   3.612  12.958  0.00  0.00    +0.000 C 
ATOM     16  C   UNL     1       5.122   3.891  15.310  0.00  0.00    +0.000 A 
ENDBRANCH   7  10
ENDBRANCH   1   2
BRANCH   1  17
ATOM     17  C   UNL     1       1.558   7.157  20.533  0.00  0.00    +0.000 C 
BRANCH  17  18
ATOM     18  N   UNL     1       1.800   8.196  21.537  0.00  0.00    +0.000 NA
ATOM     19  H   UNL     1       2.432   7.980  22.309  0.00  0.00    +0.000 HD
BRANCH  18  20
ATOM     20  S   UNL     1       0.493   9.148  22.021  0.00  0.00    +0.000 S 
ATOM     21  O   UNL     1       0.743   9.612  23.363  0.00  0.00    +0.000 OA
ATOM     22  O   UNL     1      -0.704   8.420  21.670  0.00  0.00    +0.000 OA
BRANCH  20  26
ATOM     23  C   UNL     1       0.931  12.800  19.301  0.00  0.00    +0.000 A 
ATOM     24  C   UNL     1       0.359  12.927  20.570  0.00  0.00    +0.000 A 
ATOM     25  C   UNL     1       0.204  11.808  21.392  0.00  0.00    +0.000 A 
ATOM     26  C   UNL     1       0.604  10.552  20.928  0.00  0.00    +0.000 A 
ATOM     27  C   UNL     1       1.167  10.415  19.654  0.00  0.00    +0.000 A 
ATOM     28  C   UNL     1       1.312  11.541  18.835  0.00  0.00    +0.000 A 
BRANCH  23  29
ATOM     29  O   UNL     1       1.057  13.973  18.611  0.00  0.00    +0.000 OA
BRANCH  29  31
ATOM     30  C   UNL     1       2.895  15.486  18.623  0.00  0.00    +0.000 C 
ATOM     31  C   UNL     1       2.325  14.222  18.002  0.00  0.00    +0.000 C 
ENDBRANCH  29  31
ENDBRANCH  23  29
ENDBRANCH  20  26
ENDBRANCH  18  20
ENDBRANCH  17  18
ENDBRANCH   1  17
TORSDOF 8
ENDMDL
