MODEL 1
REMARK VINA RESULT:      -8.6      0.000      0.000
REMARK  Name = 
REMARK  4 active torsions:
REMARK  status: ('A' for Active; 'I' for Inactive)
REMARK    1  A    between atoms: C_1  and  N_2
REMARK    2  A    between atoms: N_2  and  S_3
REMARK    3  A    between atoms: S_3  and  C_6
REMARK    4  A    between atoms: C_11  and  C_12
REMARK                            x       y       z     vdW  Elec       q    Type
REMARK                         _______ _______ _______ _____ _____    ______ ____
ROOT
ATOM      1  C   UNL     1       5.574   5.338  17.271  0.00  0.00    +0.000 A 
ATOM      2  C   UNL     1       5.236   4.634  18.437  0.00  0.00    +0.000 A 
ATOM      3  C   UNL     1       4.214   5.094  19.281  0.00  0.00    +0.000 A 
ATOM      4  C   UNL     1       3.584   6.268  18.883  0.00  0.00    +0.000 A 
ATOM      5  O   UNL     1       2.589   6.942  19.532  0.00  0.00    +0.000 OA
ATOM      6  C   UNL     1       2.350   8.034  18.730  0.00  0.00    +0.000 A 
ATOM      7  N   UNL     1       3.092   8.082  17.637  0.00  0.00    +0.000 NA
ATOM      8  C   UNL     1       3.891   6.976  17.733  0.00  0.00    +0.000 A 
ATOM      9  C   UNL     1       4.909   6.517  16.893  0.00  0.00    +0.000 A 
ENDROOT
BRANCH   6  10
ATOM     10  C   UNL     1       1.362   9.005  19.196  0.00  0.00    +0.000 A 
ATOM     11  C   UNL     1       0.629   9.812  18.318  0.00  0.00    +0.000 A 
ATOM     12  C   UNL     1      -0.346  10.690  18.804  0.00  0.00    +0.000 A 
ATOM     13  C   UNL     1      -0.612  10.778  20.180  0.00  0.00    +0.000 A 
ATOM     14  C   UNL     1      -1.608  11.630  20.684  0.00  0.00    +0.000 A 
ATOM     15  C   UNL     1      -1.863  11.699  22.056  0.00  0.00    +0.000 A 
ATOM     16  C   UNL     1      -1.117  10.925  22.942  0.00  0.00    +0.000 A 
ATOM     17  C   UNL     1      -0.124  10.075  22.457  0.00  0.00    +0.000 A 
ATOM     18  C   UNL     1       0.134   9.987  21.078  0.00  0.00    +0.000 A 
ATOM     19  C   UNL     1       1.113   9.113  20.574  0.00  0.00    +0.000 A 
ENDBRANCH   6  10
BRANCH   1  20
ATOM     20  S   UNL     1       6.937   4.799  16.260  0.00  0.00    +0.000 S 
ATOM     21  O   UNL     1       7.915   4.175  17.117  0.00  0.00    +0.000 OA
ATOM     22  O   UNL     1       7.264   5.901  15.384  0.00  0.00    +0.000 OA
BRANCH  20  24
ATOM     23  C   UNL     1       6.238   3.781  13.861  0.00  0.00    +0.000 C 
ATOM     24  N   UNL     1       6.226   3.604  15.310  0.00  0.00    +0.000 NA
ATOM     25  H   UNL     1       6.398   2.664  15.661  0.00  0.00    +0.000 HD
ENDBRANCH  20  24
ENDBRANCH   1  20
TORSDOF 3
ENDMDL
MODEL 2
REMARK VINA RESULT:      -8.4      0.798      1.902
REMARK  Name = 
REMARK  4 active torsions:
REMARK  status: ('A' for Active; 'I' for Inactive)
REMARK    1  A    between atoms: C_1  and  N_2
REMARK    2  A    between atoms: N_2  and  S_3
REMARK    3  A    between atoms: S_3  and  C_6
REMARK    4  A    between atoms: C_11  and  C_12
REMARK                            x       y       z     vdW  Elec       q    Type
REMARK                         _______ _______ _______ _____ _____    ______ ____
ROOT
ATOM      1  C   UNL     1       5.695   5.264  17.331  0.00  0.00    +0.000 A 
ATOM      2  C   UNL     1       5.350   4.557  18.493  0.00  0.00    +0.000 A 
ATOM      3  C   UNL     1       4.291   4.988  19.306  0.00  0.00    +0.000 A 
ATOM      4  C   UNL     1       3.633   6.139  18.883  0.00  0.00    +0.000 A 
ATOM      5  O   UNL     1       2.599   6.784  19.500  0.00  0.00    +0.000 OA
ATOM      6  C   UNL     1       2.347   7.861  18.685  0.00  0.00    +0.000 A 
ATOM      7  N   UNL     1       3.116   7.927  17.611  0.00  0.00    +0.000 NA
ATOM      8  C   UNL     1       3.948   6.849  17.737  0.00  0.00    +0.000 A 
ATOM      9  C   UNL     1       5.002   6.418  16.927  0.00  0.00    +0.000 A 
ENDROOT
BRANCH   6  10
ATOM     10  C   UNL     1       1.315   8.802  19.117  0.00  0.00    +0.000 A 
ATOM     11  C   UNL     1       1.219   9.258  20.437  0.00  0.00    +0.000 A 
ATOM     12  C   UNL     1       0.249  10.201  20.796  0.00  0.00    +0.000 A 
ATOM     13  C   UNL     1      -0.645  10.711  19.841  0.00  0.00    +0.000 A 
ATOM     14  C   UNL     1      -1.604  11.680  20.175  0.00  0.00    +0.000 A 
ATOM     15  C   UNL     1      -2.481  12.182  19.209  0.00  0.00    +0.000 A 
ATOM     16  C   UNL     1      -2.415  11.711  17.899  0.00  0.00    +0.000 A 
ATOM     17  C   UNL     1      -1.469  10.748  17.553  0.00  0.00    +0.000 A 
ATOM     18  C   UNL     1      -0.573  10.245  18.512  0.00  0.00    +0.000 A 
ATOM     19  C   UNL     1       0.404   9.295  18.169  0.00  0.00    +0.000 A 
ENDBRANCH   6  10
BRANCH   1  20
ATOM     20  S   UNL     1       7.101   4.764  16.360  0.00  0.00    +0.000 S 
ATOM     21  O   UNL     1       8.082   4.188  17.249  0.00  0.00    +0.000 OA
ATOM     22  O   UNL     1       7.408   5.866  15.478  0.00  0.00    +0.000 OA
BRANCH  20  24
ATOM     23  C   UNL     1       6.062   3.853  14.043  0.00  0.00    +0.000 C 
ATOM     24  N   UNL     1       6.459   3.531  15.410  0.00  0.00    +0.000 NA
ATOM     25  H   UNL     1       6.922   2.636  15.557  0.00  0.00    +0.000 HD
ENDBRANCH  20  24
ENDBRANCH   1  20
TORSDOF 3
ENDMDL
MODEL 3
REMARK VINA RESULT:      -8.3      1.242      1.524
REMARK  Name = 
REMARK  4 active torsions:
REMARK  status: ('A' for Active; 'I' for Inactive)
REMARK    1  A    between atoms: C_1  and  N_2
REMARK    2  A    between atoms: N_2  and  S_3
REMARK    3  A    between atoms: S_3  and  C_6
REMARK    4  A    between atoms: C_11  and  C_12
REMARK                            x       y       z     vdW  Elec       q    Type
REMARK                         _______ _______ _______ _____ _____    ______ ____
ROOT
ATOM      1  C   UNL     1       4.998   5.351  17.472  0.00  0.00    +0.000 A 
ATOM      2  C   UNL     1       4.502   4.601  18.550  0.00  0.00    +0.000 A 
ATOM      3  C   UNL     1       3.474   5.104  19.361  0.00  0.00    +0.000 A 
ATOM      4  C   UNL     1       3.002   6.368  19.023  0.00  0.00    +0.000 A 
ATOM      5  O   UNL     1       2.037   7.097  19.659  0.00  0.00    +0.000 OA
ATOM      6  C   UNL     1       1.975   8.266  18.939  0.00  0.00    +0.000 A 
ATOM      7  N   UNL     1       2.797   8.316  17.905  0.00  0.00    +0.000 NA
ATOM      8  C   UNL     1       3.466   7.124  17.960  0.00  0.00    +0.000 A 
ATOM      9  C   UNL     1       4.490   6.621  17.152  0.00  0.00    +0.000 A 
ENDROOT
BRANCH   6  10
ATOM     10  C   UNL     1       1.063   9.302  19.419  0.00  0.00    +0.000 A 
ATOM     11  C   UNL     1       0.472  10.239  18.563  0.00  0.00    +0.000 A 
ATOM     12  C   UNL     1      -0.439  11.180  19.058  0.00  0.00    +0.000 A 
ATOM     13  C   UNL     1      -0.781  11.202  20.419  0.00  0.00    +0.000 A 
ATOM     14  C   UNL     1      -1.716  12.118  20.928  0.00  0.00    +0.000 A 
ATOM     15  C   UNL     1      -2.049  12.120  22.285  0.00  0.00    +0.000 A 
ATOM     16  C   UNL     1      -1.443  11.212  23.151  0.00  0.00    +0.000 A 
ATOM     17  C   UNL     1      -0.512  10.298  22.661  0.00  0.00    +0.000 A 
ATOM     18  C   UNL     1      -0.178  10.277  21.297  0.00  0.00    +0.000 A 
ATOM     19  C   UNL     1       0.738   9.342  20.785  0.00  0.00    +0.000 A 
ENDBRANCH   6  10
BRANCH   1  20
ATOM     20  S   UNL     1       6.368   4.744  16.511  0.00  0.00    +0.000 S 
ATOM     21  O   UNL     1       6.899   5.841  15.738  0.00  0.00    +0.000 OA
ATOM     22  O   UNL     1       5.932   3.508  15.903  0.00  0.00    +0.000 OA
BRANCH  20  24
ATOM     23  C   UNL     1       7.859   5.370  18.670  0.00  0.00    +0.000 C 
ATOM     24  N   UNL     1       7.490   4.343  17.701  0.00  0.00    +0.000 NA
ATOM     25  H   UNL     1       7.370   3.396  18.056  0.00  0.00    +0.000 HD
ENDBRANCH  20  24
ENDBRANCH   1  20
TORSDOF 3
ENDMDL
MODEL 4
REMARK VINA RESULT:      -8.3      0.948      1.706
REMARK  Name = 
REMARK  4 active torsions:
REMARK  status: ('A' for Active; 'I' for Inactive)
REMARK    1  A    between atoms: C_1  and  N_2
REMARK    2  A    between atoms: N_2  and  S_3
REMARK    3  A    between atoms: S_3  and  C_6
REMARK    4  A    between atoms: C_11  and  C_12
REMARK                            x       y       z     vdW  Elec       q    Type
REMARK                         _______ _______ _______ _____ _____    ______ ____
ROOT
ATOM      1  C   UNL     1       5.330   5.072  16.481  0.00  0.00    +0.000 A 
ATOM      2  C   UNL     1       4.601   4.020  17.054  0.00  0.00    +0.000 A 
ATOM      3  C   UNL     1       3.515   4.279  17.905  0.00  0.00    +0.000 A 
ATOM      4  C   UNL     1       3.231   5.623  18.129  0.00  0.00    +0.000 A 
ATOM      5  O   UNL     1       2.258   6.147  18.931  0.00  0.00    +0.000 OA
ATOM      6  C   UNL     1       2.427   7.507  18.812  0.00  0.00    +0.000 A 
ATOM      7  N   UNL     1       3.400   7.867  17.993  0.00  0.00    +0.000 NA
ATOM      8  C   UNL     1       3.929   6.679  17.568  0.00  0.00    +0.000 A 
ATOM      9  C   UNL     1       5.009   6.419  16.720  0.00  0.00    +0.000 A 
ENDROOT
BRANCH   6  10
ATOM     10  C   UNL     1       1.561   8.363  19.618  0.00  0.00    +0.000 A 
ATOM     11  C   UNL     1       1.323   8.125  20.977  0.00  0.00    +0.000 A 
ATOM     12  C   UNL     1       0.529   9.003  21.725  0.00  0.00    +0.000 A 
ATOM     13  C   UNL     1      -0.042  10.139  21.131  0.00  0.00    +0.000 A 
ATOM     14  C   UNL     1      -0.815  11.047  21.872  0.00  0.00    +0.000 A 
ATOM     15  C   UNL     1      -1.370  12.177  21.264  0.00  0.00    +0.000 A 
ATOM     16  C   UNL     1      -1.166  12.407  19.905  0.00  0.00    +0.000 A 
ATOM     17  C   UNL     1      -0.402  11.513  19.156  0.00  0.00    +0.000 A 
ATOM     18  C   UNL     1       0.172  10.380  19.758  0.00  0.00    +0.000 A 
ATOM     19  C   UNL     1       0.968   9.487  19.020  0.00  0.00    +0.000 A 
ENDBRANCH   6  10
BRANCH   1  20
ATOM     20  S   UNL     1       6.764   4.731  15.482  0.00  0.00    +0.000 S 
ATOM     21  O   UNL     1       7.825   4.287  16.354  0.00  0.00    +0.000 OA
ATOM     22  O   UNL     1       6.918   5.850  14.582  0.00  0.00    +0.000 OA
BRANCH  20  24
ATOM     23  C   UNL     1       6.047   3.622  13.129  0.00  0.00    +0.000 C 
ATOM     24  N   UNL     1       6.253   3.418  14.560  0.00  0.00    +0.000 NA
ATOM     25  H   UNL     1       6.687   2.541  14.842  0.00  0.00    +0.000 HD
ENDBRANCH  20  24
ENDBRANCH   1  20
TORSDOF 3
ENDMDL
MODEL 5
REMARK VINA RESULT:      -8.2      1.331      2.172
REMARK  Name = 
REMARK  4 active torsions:
REMARK  status: ('A' for Active; 'I' for Inactive)
REMARK    1  A    between atoms: C_1  and  N_2
REMARK    2  A    between atoms: N_2  and  S_3
REMARK    3  A    between atoms: S_3  and  C_6
REMARK    4  A    between atoms: C_11  and  C_12
REMARK                            x       y       z     vdW  Elec       q    Type
REMARK                         _______ _______ _______ _____ _____    ______ ____
ROOT
ATOM      1  C   UNL     1       5.248   5.054  16.420  0.00  0.00    +0.000 A 
ATOM      2  C   UNL     1       4.392   4.050  16.899  0.00  0.00    +0.000 A 
ATOM      3  C   UNL     1       3.265   4.376  17.668  0.00  0.00    +0.000 A 
ATOM      4  C   UNL     1       3.071   5.732  17.913  0.00  0.00    +0.000 A 
ATOM      5  O   UNL     1       2.081   6.314  18.652  0.00  0.00    +0.000 OA
ATOM      6  C   UNL     1       2.367   7.658  18.589  0.00  0.00    +0.000 A 
ATOM      7  N   UNL     1       3.429   7.958  17.863  0.00  0.00    +0.000 NA
ATOM      8  C   UNL     1       3.895   6.742  17.443  0.00  0.00    +0.000 A 
ATOM      9  C   UNL     1       5.016   6.416  16.676  0.00  0.00    +0.000 A 
ENDROOT
BRANCH   6  10
ATOM     10  C   UNL     1       1.508   8.562  19.352  0.00  0.00    +0.000 A 
ATOM     11  C   UNL     1       1.316   8.431  20.732  0.00  0.00    +0.000 A 
ATOM     12  C   UNL     1       0.528   9.352  21.432  0.00  0.00    +0.000 A 
ATOM     13  C   UNL     1      -0.083  10.426  20.767  0.00  0.00    +0.000 A 
ATOM     14  C   UNL     1      -0.851  11.378  21.457  0.00  0.00    +0.000 A 
ATOM     15  C   UNL     1      -1.446  12.445  20.778  0.00  0.00    +0.000 A 
ATOM     16  C   UNL     1      -1.288  12.567  19.399  0.00  0.00    +0.000 A 
ATOM     17  C   UNL     1      -0.530  11.629  18.701  0.00  0.00    +0.000 A 
ATOM     18  C   UNL     1       0.084  10.559  19.373  0.00  0.00    +0.000 A 
ATOM     19  C   UNL     1       0.875   9.623  18.684  0.00  0.00    +0.000 A 
ENDBRANCH   6  10
BRANCH   1  20
ATOM     20  S   UNL     1       6.727   4.622  15.528  0.00  0.00    +0.000 S 
ATOM     21  O   UNL     1       7.322   5.836  15.024  0.00  0.00    +0.000 OA
ATOM     22  O   UNL     1       6.383   3.513  14.669  0.00  0.00    +0.000 OA
BRANCH  20  24
ATOM     23  C   UNL     1       7.778   4.748  18.010  0.00  0.00    +0.000 C 
ATOM     24  N   UNL     1       7.716   4.015  16.749  0.00  0.00    +0.000 NA
ATOM     25  H   UNL     1       7.696   2.999  16.808  0.00  0.00    +0.000 HD
ENDBRANCH  20  24
ENDBRANCH   1  20
TORSDOF 3
ENDMDL
MODEL 6
REMARK VINA RESULT:      -8.2      6.162      8.202
REMARK  Name = 
REMARK  4 active torsions:
REMARK  status: ('A' for Active; 'I' for Inactive)
REMARK    1  A    between atoms: C_1  and  N_2
REMARK    2  A    between atoms: N_2  and  S_3
REMARK    3  A    between atoms: S_3  and  C_6
REMARK    4  A    between atoms: C_11  and  C_12
REMARK                            x       y       z     vdW  Elec       q    Type
REMARK                         _______ _______ _______ _____ _____    ______ ____
ROOT
ATOM      1  C   UNL     1       6.384   5.606  17.087  0.00  0.00    +0.000 A 
ATOM      2  C   UNL     1       7.070   5.012  18.158  0.00  0.00    +0.000 A 
ATOM      3  C   UNL     1       7.935   5.768  18.963  0.00  0.00    +0.000 A 
ATOM      4  C   UNL     1       8.057   7.111  18.624  0.00  0.00    +0.000 A 
ATOM      5  O   UNL     1       8.847   8.054  19.217  0.00  0.00    +0.000 OA
ATOM      6  C   UNL     1       8.609   9.194  18.487  0.00  0.00    +0.000 A 
ATOM      7  N   UNL     1       7.727   9.046  17.513  0.00  0.00    +0.000 NA
ATOM      8  C   UNL     1       7.384   7.724  17.579  0.00  0.00    +0.000 A 
ATOM      9  C   UNL     1       6.523   6.969  16.779  0.00  0.00    +0.000 A 
ENDROOT
BRANCH   6  10
ATOM     10  C   UNL     1       9.372  10.389  18.841  0.00  0.00    +0.000 A 
ATOM     11  C   UNL     1       9.607  10.765  20.169  0.00  0.00    +0.000 A 
ATOM     12  C   UNL     1      10.390  11.887  20.464  0.00  0.00    +0.000 A 
ATOM     13  C   UNL     1      10.958  12.657  19.436  0.00  0.00    +0.000 A 
ATOM     14  C   UNL     1      11.771  13.768  19.712  0.00  0.00    +0.000 A 
ATOM     15  C   UNL     1      12.333  14.518  18.675  0.00  0.00    +0.000 A 
ATOM     16  C   UNL     1      12.079  14.172  17.349  0.00  0.00    +0.000 A 
ATOM     17  C   UNL     1      11.272  13.073  17.060  0.00  0.00    +0.000 A 
ATOM     18  C   UNL     1      10.711  12.303  18.093  0.00  0.00    +0.000 A 
ATOM     19  C   UNL     1       9.920  11.175  17.815  0.00  0.00    +0.000 A 
ENDBRANCH   6  10
BRANCH   1  20
ATOM     20  S   UNL     1       5.366   4.615  16.014  0.00  0.00    +0.000 S 
ATOM     21  O   UNL     1       5.951   3.299  15.925  0.00  0.00    +0.000 OA
ATOM     22  O   UNL     1       5.090   5.420  14.846  0.00  0.00    +0.000 OA
BRANCH  20  24
ATOM     23  C   UNL     1       3.529   3.184  17.375  0.00  0.00    +0.000 C 
ATOM     24  N   UNL     1       3.932   4.500  16.888  0.00  0.00    +0.000 NA
ATOM     25  H   UNL     1       3.785   5.288  17.515  0.00  0.00    +0.000 HD
ENDBRANCH  20  24
ENDBRANCH   1  20
TORSDOF 3
ENDMDL
MODEL 7
REMARK VINA RESULT:      -8.2      2.129      3.198
REMARK  Name = 
REMARK  4 active torsions:
REMARK  status: ('A' for Active; 'I' for Inactive)
REMARK    1  A    between atoms: C_1  and  N_2
REMARK    2  A    between atoms: N_2  and  S_3
REMARK    3  A    between atoms: S_3  and  C_6
REMARK    4  A    between atoms: C_11  and  C_12
REMARK                            x       y       z     vdW  Elec       q    Type
REMARK                         _______ _______ _______ _____ _____    ______ ____
ROOT
ATOM      1  C   UNL     1       3.694   5.416  18.470  0.00  0.00    +0.000 A 
ATOM      2  C   UNL     1       3.749   6.411  17.482  0.00  0.00    +0.000 A 
ATOM      3  C   UNL     1       3.097   7.640  17.665  0.00  0.00    +0.000 A 
ATOM      4  C   UNL     1       2.410   7.787  18.865  0.00  0.00    +0.000 A 
ATOM      5  O   UNL     1       1.671   8.859  19.279  0.00  0.00    +0.000 OA
ATOM      6  C   UNL     1       1.197   8.479  20.512  0.00  0.00    +0.000 A 
ATOM      7  N   UNL     1       1.592   7.281  20.905  0.00  0.00    +0.000 NA
ATOM      8  C   UNL     1       2.348   6.825  19.859  0.00  0.00    +0.000 A 
ATOM      9  C   UNL     1       2.998   5.602  19.676  0.00  0.00    +0.000 A 
ENDROOT
BRANCH   6  10
ATOM     10  C   UNL     1       0.299   9.406  21.199  0.00  0.00    +0.000 A 
ATOM     11  C   UNL     1       0.001   9.291  22.562  0.00  0.00    +0.000 A 
ATOM     12  C   UNL     1      -0.820  10.233  23.193  0.00  0.00    +0.000 A 
ATOM     13  C   UNL     1      -1.360  11.312  22.474  0.00  0.00    +0.000 A 
ATOM     14  C   UNL     1      -2.160  12.283  23.096  0.00  0.00    +0.000 A 
ATOM     15  C   UNL     1      -2.683  13.354  22.365  0.00  0.00    +0.000 A 
ATOM     16  C   UNL     1      -2.419  13.460  21.001  0.00  0.00    +0.000 A 
ATOM     17  C   UNL     1      -1.627  12.502  20.370  0.00  0.00    +0.000 A 
ATOM     18  C   UNL     1      -1.085  11.427  21.095  0.00  0.00    +0.000 A 
ATOM     19  C   UNL     1      -0.262  10.471  20.477  0.00  0.00    +0.000 A 
ENDBRANCH   6  10
BRANCH   1  20
ATOM     20  S   UNL     1       4.442   3.826  18.185  0.00  0.00    +0.000 S 
ATOM     21  O   UNL     1       4.485   3.596  16.761  0.00  0.00    +0.000 OA
ATOM     22  O   UNL     1       3.814   2.903  19.101  0.00  0.00    +0.000 OA
BRANCH  20  24
ATOM     23  C   UNL     1       6.985   4.641  17.797  0.00  0.00    +0.000 C 
ATOM     24  N   UNL     1       6.017   4.071  18.729  0.00  0.00    +0.000 NA
ATOM     25  H   UNL     1       6.058   4.397  19.693  0.00  0.00    +0.000 HD
ENDBRANCH  20  24
ENDBRANCH   1  20
TORSDOF 3
ENDMDL
MODEL 8
REMARK VINA RESULT:      -8.1      1.679      2.529
REMARK  Name = 
REMARK  4 active torsions:
REMARK  status: ('A' for Active; 'I' for Inactive)
REMARK    1  A    between atoms: C_1  and  N_2
REMARK    2  A    between atoms: N_2  and  S_3
REMARK    3  A    between atoms: S_3  and  C_6
REMARK    4  A    between atoms: C_11  and  C_12
REMARK                            x       y       z     vdW  Elec       q    Type
REMARK                         _______ _______ _______ _____ _____    ______ ____
ROOT
ATOM      1  C   UNL     1       4.153   6.094  17.513  0.00  0.00    +0.000 A 
ATOM      2  C   UNL     1       3.998   5.151  18.541  0.00  0.00    +0.000 A 
ATOM      3  C   UNL     1       3.163   5.416  19.637  0.00  0.00    +0.000 A 
ATOM      4  C   UNL     1       2.523   6.651  19.624  0.00  0.00    +0.000 A 
ATOM      5  O   UNL     1       1.689   7.169  20.574  0.00  0.00    +0.000 OA
ATOM      6  C   UNL     1       1.359   8.411  20.085  0.00  0.00    +0.000 A 
ATOM      7  N   UNL     1       1.896   8.697  18.911  0.00  0.00    +0.000 NA
ATOM      8  C   UNL     1       2.651   7.594  18.618  0.00  0.00    +0.000 A 
ATOM      9  C   UNL     1       3.482   7.328  17.527  0.00  0.00    +0.000 A 
ENDROOT
BRANCH   6  10
ATOM     10  C   UNL     1       0.512   9.258  20.922  0.00  0.00    +0.000 A 
ATOM     11  C   UNL     1       0.394   9.071  22.304  0.00  0.00    +0.000 A 
ATOM     12  C   UNL     1      -0.386   9.940  23.076  0.00  0.00    +0.000 A 
ATOM     13  C   UNL     1      -1.063  11.017  22.482  0.00  0.00    +0.000 A 
ATOM     14  C   UNL     1      -1.825  11.917  23.244  0.00  0.00    +0.000 A 
ATOM     15  C   UNL     1      -2.487  12.988  22.636  0.00  0.00    +0.000 A 
ATOM     16  C   UNL     1      -2.402  13.164  21.257  0.00  0.00    +0.000 A 
ATOM     17  C   UNL     1      -1.651  12.278  20.487  0.00  0.00    +0.000 A 
ATOM     18  C   UNL     1      -0.971  11.205  21.087  0.00  0.00    +0.000 A 
ATOM     19  C   UNL     1      -0.187  10.321  20.326  0.00  0.00    +0.000 A 
ENDBRANCH   6  10
BRANCH   1  20
ATOM     20  S   UNL     1       5.290   5.787  16.178  0.00  0.00    +0.000 S 
ATOM     21  O   UNL     1       5.201   6.887  15.247  0.00  0.00    +0.000 OA
ATOM     22  O   UNL     1       5.095   4.414  15.776  0.00  0.00    +0.000 OA
BRANCH  20  24
ATOM     23  C   UNL     1       7.402   4.621  17.387  0.00  0.00    +0.000 C 
ATOM     24  N   UNL     1       6.783   5.870  16.954  0.00  0.00    +0.000 NA
ATOM     25  H   UNL     1       7.399   6.575  16.554  0.00  0.00    +0.000 HD
ENDBRANCH  20  24
ENDBRANCH   1  20
TORSDOF 3
ENDMDL
MODEL 9
REMARK VINA RESULT:      -8.0      1.392      1.657
REMARK  Name = 
REMARK  4 active torsions:
REMARK  status: ('A' for Active; 'I' for Inactive)
REMARK    1  A    between atoms: C_1  and  N_2
REMARK    2  A    between atoms: N_2  and  S_3
REMARK    3  A    between atoms: S_3  and  C_6
REMARK    4  A    between atoms: C_11  and  C_12
REMARK                            x       y       z     vdW  Elec       q    Type
REMARK                         _______ _______ _______ _____ _____    ______ ____
ROOT
ATOM      1  C   UNL     1       5.145   5.634  17.815  0.00  0.00    +0.000 A 
ATOM      2  C   UNL     1       4.700   4.978  18.973  0.00  0.00    +0.000 A 
ATOM      3  C   UNL     1       3.624   5.486  19.716  0.00  0.00    +0.000 A 
ATOM      4  C   UNL     1       3.053   6.657  19.229  0.00  0.00    +0.000 A 
ATOM      5  O   UNL     1       2.023   7.372  19.772  0.00  0.00    +0.000 OA
ATOM      6  C   UNL     1       1.873   8.439  18.917  0.00  0.00    +0.000 A 
ATOM      7  N   UNL     1       2.701   8.435  17.887  0.00  0.00    +0.000 NA
ATOM      8  C   UNL     1       3.466   7.318  18.085  0.00  0.00    +0.000 A 
ATOM      9  C   UNL     1       4.538   6.810  17.346  0.00  0.00    +0.000 A 
ENDROOT
BRANCH   6  10
ATOM     10  C   UNL     1       0.872   9.444  19.268  0.00  0.00    +0.000 A 
ATOM     11  C   UNL     1       0.095  10.099  18.305  0.00  0.00    +0.000 A 
ATOM     12  C   UNL     1      -0.891  11.016  18.690  0.00  0.00    +0.000 A 
ATOM     13  C   UNL     1      -1.123  11.295  20.046  0.00  0.00    +0.000 A 
ATOM     14  C   UNL     1      -2.128  12.188  20.452  0.00  0.00    +0.000 A 
ATOM     15  C   UNL     1      -2.348  12.448  21.807  0.00  0.00    +0.000 A 
ATOM     16  C   UNL     1      -1.559  11.826  22.772  0.00  0.00    +0.000 A 
ATOM     17  C   UNL     1      -0.557  10.939  22.384  0.00  0.00    +0.000 A 
ATOM     18  C   UNL     1      -0.333  10.658  21.026  0.00  0.00    +0.000 A 
ATOM     19  C   UNL     1       0.655   9.744  20.623  0.00  0.00    +0.000 A 
ENDBRANCH   6  10
BRANCH   1  20
ATOM     20  S   UNL     1       6.573   5.034  16.937  0.00  0.00    +0.000 S 
ATOM     21  O   UNL     1       6.122   4.396  15.724  0.00  0.00    +0.000 OA
ATOM     22  O   UNL     1       7.402   4.357  17.907  0.00  0.00    +0.000 OA
BRANCH  20  24
ATOM     23  C   UNL     1       7.742   7.375  17.596  0.00  0.00    +0.000 C 
ATOM     24  N   UNL     1       7.363   6.463  16.521  0.00  0.00    +0.000 NA
ATOM     25  H   UNL     1       8.032   6.340  15.764  0.00  0.00    +0.000 HD
ENDBRANCH  20  24
ENDBRANCH   1  20
TORSDOF 3
ENDMDL
