MODEL 1
REMARK VINA RESULT:      -7.8      0.000      0.000
REMARK  Name = 
REMARK  3 active torsions:
REMARK  status: ('A' for Active; 'I' for Inactive)
REMARK    1  A    between atoms: C_4  and  C_5
REMARK    2  A    between atoms: C_8  and  O_9
REMARK    3  A    between atoms: O_9  and  C_10
REMARK                            x       y       z     vdW  Elec       q    Type
REMARK                         _______ _______ _______ _____ _____    ______ ____
ROOT
ATOM      1  C   UNL     1       6.228   4.912  15.728  0.00  0.00    +0.000 A 
ATOM      2  C   UNL     1       4.988   5.533  15.909  0.00  0.00    +0.000 A 
ATOM      3  C   UNL     1       4.472   5.688  17.198  0.00  0.00    +0.000 A 
ATOM      4  C   UNL     1       5.189   5.231  18.307  0.00  0.00    +0.000 A 
ATOM      5  C   UNL     1       6.452   4.660  18.125  0.00  0.00    +0.000 A 
ATOM      6  C   UNL     1       6.954   4.466  16.836  0.00  0.00    +0.000 A 
ENDROOT
BRANCH   1  10
ATOM      7  O   UNL     1       6.939   3.079  11.497  0.00  0.00    +0.000 OA
ATOM      8  C   UNL     1       7.063   3.815  12.461  0.00  0.00    +0.000 A 
ATOM      9  N   UNL     1       6.428   3.680  13.634  0.00  0.00    +0.000 N 
ATOM     10  C   UNL     1       6.795   4.724  14.390  0.00  0.00    +0.000 A 
ATOM     11  N   UNL     1       7.640   5.511  13.809  0.00  0.00    +0.000 NA
ATOM     12  O   UNL     1       7.863   4.928  12.522  0.00  0.00    +0.000 OA
ATOM     13  H   UNL     1       5.728   2.978  13.805  0.00  0.00    +0.000 HD
ENDBRANCH   1  10
BRANCH   4  14
ATOM     14  O   UNL     1       4.592   5.452  19.526  0.00  0.00    +0.000 OA
BRANCH  14  15
ATOM     15  C   UNL     1       3.497   4.716  19.915  0.00  0.00    +0.000 A 
ATOM     16  C   UNL     1       2.335   5.449  20.166  0.00  0.00    +0.000 A 
ATOM     17  C   UNL     1       1.167   4.800  20.569  0.00  0.00    +0.000 A 
ATOM     18  C   UNL     1       1.158   3.414  20.720  0.00  0.00    +0.000 A 
ATOM     19  C   UNL     1       2.304   2.676  20.433  0.00  0.00    +0.000 A 
ATOM     20  C   UNL     1       3.463   3.321  20.002  0.00  0.00    +0.000 A 
ENDBRANCH  14  15
ENDBRANCH   4  14
TORSDOF 3
ENDMDL
MODEL 2
REMARK VINA RESULT:      -7.8      0.276      1.140
REMARK  Name = 
REMARK  3 active torsions:
REMARK  status: ('A' for Active; 'I' for Inactive)
REMARK    1  A    between atoms: C_4  and  C_5
REMARK    2  A    between atoms: C_8  and  O_9
REMARK    3  A    between atoms: O_9  and  C_10
REMARK                            x       y       z     vdW  Elec       q    Type
REMARK                         _______ _______ _______ _____ _____    ______ ____
ROOT
ATOM      1  C   UNL     1       6.180   4.840  15.923  0.00  0.00    +0.000 A 
ATOM      2  C   UNL     1       4.829   5.152  16.111  0.00  0.00    +0.000 A 
ATOM      3  C   UNL     1       4.320   5.273  17.407  0.00  0.00    +0.000 A 
ATOM      4  C   UNL     1       5.153   5.089  18.514  0.00  0.00    +0.000 A 
ATOM      5  C   UNL     1       6.513   4.832  18.320  0.00  0.00    +0.000 A 
ATOM      6  C   UNL     1       7.018   4.669  17.028  0.00  0.00    +0.000 A 
ENDROOT
BRANCH   1  10
ATOM      7  O   UNL     1       6.851   3.178  11.615  0.00  0.00    +0.000 OA
ATOM      8  C   UNL     1       6.992   3.867  12.611  0.00  0.00    +0.000 A 
ATOM      9  N   UNL     1       6.350   3.698  13.776  0.00  0.00    +0.000 N 
ATOM     10  C   UNL     1       6.745   4.695  14.579  0.00  0.00    +0.000 A 
ATOM     11  N   UNL     1       7.614   5.483  14.036  0.00  0.00    +0.000 NA
ATOM     12  O   UNL     1       7.824   4.952  12.724  0.00  0.00    +0.000 OA
ATOM     13  H   UNL     1       5.629   3.010  13.913  0.00  0.00    +0.000 HD
ENDBRANCH   1  10
BRANCH   4  14
ATOM     14  O   UNL     1       4.547   5.250  19.739  0.00  0.00    +0.000 OA
BRANCH  14  15
ATOM     15  C   UNL     1       3.364   4.609  20.026  0.00  0.00    +0.000 A 
ATOM     16  C   UNL     1       3.441   3.219  20.134  0.00  0.00    +0.000 A 
ATOM     17  C   UNL     1       2.298   2.471  20.421  0.00  0.00    +0.000 A 
ATOM     18  C   UNL     1       1.074   3.113  20.601  0.00  0.00    +0.000 A 
ATOM     19  C   UNL     1       1.000   4.503  20.533  0.00  0.00    +0.000 A 
ATOM     20  C   UNL     1       2.149   5.252  20.276  0.00  0.00    +0.000 A 
ENDBRANCH  14  15
ENDBRANCH   4  14
TORSDOF 3
ENDMDL
MODEL 3
REMARK VINA RESULT:      -7.7      1.447      1.767
REMARK  Name = 
REMARK  3 active torsions:
REMARK  status: ('A' for Active; 'I' for Inactive)
REMARK    1  A    between atoms: C_4  and  C_5
REMARK    2  A    between atoms: C_8  and  O_9
REMARK    3  A    between atoms: O_9  and  C_10
REMARK                            x       y       z     vdW  Elec       q    Type
REMARK                         _______ _______ _______ _____ _____    ______ ____
ROOT
ATOM      1  C   UNL     1       5.273   5.328  15.987  0.00  0.00    +0.000 A 
ATOM      2  C   UNL     1       4.564   4.237  16.502  0.00  0.00    +0.000 A 
ATOM      3  C   UNL     1       3.598   4.443  17.490  0.00  0.00    +0.000 A 
ATOM      4  C   UNL     1       3.331   5.731  17.962  0.00  0.00    +0.000 A 
ATOM      5  C   UNL     1       4.003   6.823  17.406  0.00  0.00    +0.000 A 
ATOM      6  C   UNL     1       4.999   6.619  16.447  0.00  0.00    +0.000 A 
ENDROOT
BRANCH   1  10
ATOM      7  O   UNL     1       7.255   4.052  11.960  0.00  0.00    +0.000 OA
ATOM      8  C   UNL     1       7.135   4.522  13.079  0.00  0.00    +0.000 A 
ATOM      9  N   UNL     1       6.032   4.460  13.840  0.00  0.00    +0.000 N 
ATOM     10  C   UNL     1       6.300   5.148  14.958  0.00  0.00    +0.000 A 
ATOM     11  N   UNL     1       7.499   5.629  14.995  0.00  0.00    +0.000 NA
ATOM     12  O   UNL     1       8.101   5.215  13.765  0.00  0.00    +0.000 OA
ATOM     13  H   UNL     1       5.165   4.065  13.520  0.00  0.00    +0.000 HD
ENDBRANCH   1  10
BRANCH   4  14
ATOM     14  O   UNL     1       2.349   5.815  18.921  0.00  0.00    +0.000 OA
BRANCH  14  15
ATOM     15  C   UNL     1       1.990   4.709  19.657  0.00  0.00    +0.000 A 
ATOM     16  C   UNL     1       2.519   4.646  20.948  0.00  0.00    +0.000 A 
ATOM     17  C   UNL     1       2.220   3.565  21.780  0.00  0.00    +0.000 A 
ATOM     18  C   UNL     1       1.390   2.544  21.321  0.00  0.00    +0.000 A 
ATOM     19  C   UNL     1       0.829   2.623  20.048  0.00  0.00    +0.000 A 
ATOM     20  C   UNL     1       1.103   3.718  19.228  0.00  0.00    +0.000 A 
ENDBRANCH  14  15
ENDBRANCH   4  14
TORSDOF 3
ENDMDL
MODEL 4
REMARK VINA RESULT:      -7.7      0.319      1.118
REMARK  Name = 
REMARK  3 active torsions:
REMARK  status: ('A' for Active; 'I' for Inactive)
REMARK    1  A    between atoms: C_4  and  C_5
REMARK    2  A    between atoms: C_8  and  O_9
REMARK    3  A    between atoms: O_9  and  C_10
REMARK                            x       y       z     vdW  Elec       q    Type
REMARK                         _______ _______ _______ _____ _____    ______ ____
ROOT
ATOM      1  C   UNL     1       6.229   4.736  15.781  0.00  0.00    +0.000 A 
ATOM      2  C   UNL     1       7.047   4.678  16.915  0.00  0.00    +0.000 A 
ATOM      3  C   UNL     1       6.478   4.785  18.186  0.00  0.00    +0.000 A 
ATOM      4  C   UNL     1       5.097   4.945  18.332  0.00  0.00    +0.000 A 
ATOM      5  C   UNL     1       4.279   4.948  17.200  0.00  0.00    +0.000 A 
ATOM      6  C   UNL     1       4.846   4.882  15.925  0.00  0.00    +0.000 A 
ENDROOT
BRANCH   1  10
ATOM      7  O   UNL     1       6.946   3.174  11.443  0.00  0.00    +0.000 OA
ATOM      8  C   UNL     1       7.064   3.852  12.451  0.00  0.00    +0.000 A 
ATOM      9  N   UNL     1       6.436   3.637  13.616  0.00  0.00    +0.000 N 
ATOM     10  C   UNL     1       6.792   4.637  14.433  0.00  0.00    +0.000 A 
ATOM     11  N   UNL     1       7.624   5.470  13.898  0.00  0.00    +0.000 NA
ATOM     12  O   UNL     1       7.849   4.970  12.577  0.00  0.00    +0.000 OA
ATOM     13  H   UNL     1       5.746   2.917  13.745  0.00  0.00    +0.000 HD
ENDBRANCH   1  10
BRANCH   4  14
ATOM     14  O   UNL     1       4.648   5.022  19.630  0.00  0.00    +0.000 OA
BRANCH  14  15
ATOM     15  C   UNL     1       3.489   4.385  20.011  0.00  0.00    +0.000 A 
ATOM     16  C   UNL     1       2.375   5.209  20.183  0.00  0.00    +0.000 A 
ATOM     17  C   UNL     1       1.149   4.665  20.570  0.00  0.00    +0.000 A 
ATOM     18  C   UNL     1       1.035   3.293  20.784  0.00  0.00    +0.000 A 
ATOM     19  C   UNL     1       2.134   2.462  20.575  0.00  0.00    +0.000 A 
ATOM     20  C   UNL     1       3.351   3.002  20.159  0.00  0.00    +0.000 A 
ENDBRANCH  14  15
ENDBRANCH   4  14
TORSDOF 3
ENDMDL
MODEL 5
REMARK VINA RESULT:      -7.7      0.481      1.574
REMARK  Name = 
REMARK  3 active torsions:
REMARK  status: ('A' for Active; 'I' for Inactive)
REMARK    1  A    between atoms: C_4  and  C_5
REMARK    2  A    between atoms: C_8  and  O_9
REMARK    3  A    between atoms: O_9  and  C_10
REMARK                            x       y       z     vdW  Elec       q    Type
REMARK                         _______ _______ _______ _____ _____    ______ ____
ROOT
ATOM      1  C   UNL     1       6.258   4.612  15.786  0.00  0.00    +0.000 A 
ATOM      2  C   UNL     1       7.093   4.776  16.897  0.00  0.00    +0.000 A 
ATOM      3  C   UNL     1       6.538   4.823  18.179  0.00  0.00    +0.000 A 
ATOM      4  C   UNL     1       5.158   4.702  18.358  0.00  0.00    +0.000 A 
ATOM      5  C   UNL     1       4.334   4.484  17.250  0.00  0.00    +0.000 A 
ATOM      6  C   UNL     1       4.878   4.478  15.963  0.00  0.00    +0.000 A 
ENDROOT
BRANCH   1  10
ATOM      7  O   UNL     1       6.942   3.208  11.389  0.00  0.00    +0.000 OA
ATOM      8  C   UNL     1       7.061   3.855  12.417  0.00  0.00    +0.000 A 
ATOM      9  N   UNL     1       6.455   3.588  13.583  0.00  0.00    +0.000 N 
ATOM     10  C   UNL     1       6.804   4.569  14.427  0.00  0.00    +0.000 A 
ATOM     11  N   UNL     1       7.610   5.436  13.908  0.00  0.00    +0.000 NA
ATOM     12  O   UNL     1       7.826   4.983  12.568  0.00  0.00    +0.000 OA
ATOM     13  H   UNL     1       5.782   2.850  13.698  0.00  0.00    +0.000 HD
ENDBRANCH   1  10
BRANCH   4  14
ATOM     14  O   UNL     1       4.727   4.745  19.663  0.00  0.00    +0.000 OA
BRANCH  14  15
ATOM     15  C   UNL     1       3.456   4.337  19.997  0.00  0.00    +0.000 A 
ATOM     16  C   UNL     1       3.305   2.970  20.239  0.00  0.00    +0.000 A 
ATOM     17  C   UNL     1       2.056   2.449  20.583  0.00  0.00    +0.000 A 
ATOM     18  C   UNL     1       0.955   3.297  20.688  0.00  0.00    +0.000 A 
ATOM     19  C   UNL     1       1.110   4.667  20.486  0.00  0.00    +0.000 A 
ATOM     20  C   UNL     1       2.364   5.191  20.172  0.00  0.00    +0.000 A 
ENDBRANCH  14  15
ENDBRANCH   4  14
TORSDOF 3
ENDMDL
MODEL 6
REMARK VINA RESULT:      -7.6      1.446      1.810
REMARK  Name = 
REMARK  3 active torsions:
REMARK  status: ('A' for Active; 'I' for Inactive)
REMARK    1  A    between atoms: C_4  and  C_5
REMARK    2  A    between atoms: C_8  and  O_9
REMARK    3  A    between atoms: O_9  and  C_10
REMARK                            x       y       z     vdW  Elec       q    Type
REMARK                         _______ _______ _______ _____ _____    ______ ____
ROOT
ATOM      1  C   UNL     1       5.216   5.353  16.039  0.00  0.00    +0.000 A 
ATOM      2  C   UNL     1       4.522   4.270  16.590  0.00  0.00    +0.000 A 
ATOM      3  C   UNL     1       3.561   4.492  17.578  0.00  0.00    +0.000 A 
ATOM      4  C   UNL     1       3.285   5.790  18.018  0.00  0.00    +0.000 A 
ATOM      5  C   UNL     1       3.941   6.873  17.427  0.00  0.00    +0.000 A 
ATOM      6  C   UNL     1       4.932   6.654  16.468  0.00  0.00    +0.000 A 
ENDROOT
BRANCH   1  10
ATOM      7  O   UNL     1       7.173   4.023  12.019  0.00  0.00    +0.000 OA
ATOM      8  C   UNL     1       7.061   4.506  13.133  0.00  0.00    +0.000 A 
ATOM      9  N   UNL     1       5.961   4.458  13.899  0.00  0.00    +0.000 N 
ATOM     10  C   UNL     1       6.237   5.157  15.008  0.00  0.00    +0.000 A 
ATOM     11  N   UNL     1       7.439   5.632  15.035  0.00  0.00    +0.000 NA
ATOM     12  O   UNL     1       8.033   5.201  13.806  0.00  0.00    +0.000 OA
ATOM     13  H   UNL     1       5.090   4.064  13.587  0.00  0.00    +0.000 HD
ENDBRANCH   1  10
BRANCH   4  14
ATOM     14  O   UNL     1       2.308   5.889  18.982  0.00  0.00    +0.000 OA
BRANCH  14  15
ATOM     15  C   UNL     1       2.020   4.822  19.801  0.00  0.00    +0.000 A 
ATOM     16  C   UNL     1       1.126   3.885  19.280  0.00  0.00    +0.000 A 
ATOM     17  C   UNL     1       0.764   2.764  20.030  0.00  0.00    +0.000 A 
ATOM     18  C   UNL     1       1.297   2.579  21.304  0.00  0.00    +0.000 A 
ATOM     19  C   UNL     1       2.219   3.491  21.813  0.00  0.00    +0.000 A 
ATOM     20  C   UNL     1       2.604   4.595  21.051  0.00  0.00    +0.000 A 
ENDBRANCH  14  15
ENDBRANCH   4  14
TORSDOF 3
ENDMDL
MODEL 7
REMARK VINA RESULT:      -7.5      0.951      1.056
REMARK  Name = 
REMARK  3 active torsions:
REMARK  status: ('A' for Active; 'I' for Inactive)
REMARK    1  A    between atoms: C_4  and  C_5
REMARK    2  A    between atoms: C_8  and  O_9
REMARK    3  A    between atoms: O_9  and  C_10
REMARK                            x       y       z     vdW  Elec       q    Type
REMARK                         _______ _______ _______ _____ _____    ______ ____
ROOT
ATOM      1  C   UNL     1       5.792   5.003  15.576  0.00  0.00    +0.000 A 
ATOM      2  C   UNL     1       5.240   6.258  15.856  0.00  0.00    +0.000 A 
ATOM      3  C   UNL     1       4.530   6.453  17.043  0.00  0.00    +0.000 A 
ATOM      4  C   UNL     1       4.372   5.405  17.954  0.00  0.00    +0.000 A 
ATOM      5  C   UNL     1       4.972   4.169  17.696  0.00  0.00    +0.000 A 
ATOM      6  C   UNL     1       5.648   3.957  16.492  0.00  0.00    +0.000 A 
ENDROOT
BRANCH   1  10
ATOM      7  O   UNL     1       7.011   3.044  11.521  0.00  0.00    +0.000 OA
ATOM      8  C   UNL     1       7.030   3.797  12.481  0.00  0.00    +0.000 A 
ATOM      9  N   UNL     1       6.229   3.716  13.553  0.00  0.00    +0.000 N 
ATOM     10  C   UNL     1       6.534   4.760  14.337  0.00  0.00    +0.000 A 
ATOM     11  N   UNL     1       7.488   5.496  13.870  0.00  0.00    +0.000 NA
ATOM     12  O   UNL     1       7.865   4.874  12.638  0.00  0.00    +0.000 OA
ATOM     13  H   UNL     1       5.481   3.050  13.633  0.00  0.00    +0.000 HD
ENDBRANCH   1  10
BRANCH   4  14
ATOM     14  O   UNL     1       3.670   5.717  19.095  0.00  0.00    +0.000 OA
BRANCH  14  15
ATOM     15  C   UNL     1       2.766   4.828  19.628  0.00  0.00    +0.000 A 
ATOM     16  C   UNL     1       1.834   4.304  18.730  0.00  0.00    +0.000 A 
ATOM     17  C   UNL     1       0.869   3.394  19.167  0.00  0.00    +0.000 A 
ATOM     18  C   UNL     1       0.837   3.004  20.505  0.00  0.00    +0.000 A 
ATOM     19  C   UNL     1       1.790   3.494  21.396  0.00  0.00    +0.000 A 
ATOM     20  C   UNL     1       2.772   4.380  20.952  0.00  0.00    +0.000 A 
ENDBRANCH  14  15
ENDBRANCH   4  14
TORSDOF 3
ENDMDL
MODEL 8
REMARK VINA RESULT:      -7.5      1.002      1.158
REMARK  Name = 
REMARK  3 active torsions:
REMARK  status: ('A' for Active; 'I' for Inactive)
REMARK    1  A    between atoms: C_4  and  C_5
REMARK    2  A    between atoms: C_8  and  O_9
REMARK    3  A    between atoms: O_9  and  C_10
REMARK                            x       y       z     vdW  Elec       q    Type
REMARK                         _______ _______ _______ _____ _____    ______ ____
ROOT
ATOM      1  C   UNL     1       5.702   5.053  15.736  0.00  0.00    +0.000 A 
ATOM      2  C   UNL     1       5.043   6.264  15.973  0.00  0.00    +0.000 A 
ATOM      3  C   UNL     1       4.286   6.425  17.135  0.00  0.00    +0.000 A 
ATOM      4  C   UNL     1       4.187   5.387  18.066  0.00  0.00    +0.000 A 
ATOM      5  C   UNL     1       4.891   4.199  17.851  0.00  0.00    +0.000 A 
ATOM      6  C   UNL     1       5.616   4.017  16.671  0.00  0.00    +0.000 A 
ENDROOT
BRANCH   1  10
ATOM      7  O   UNL     1       6.958   3.389  11.562  0.00  0.00    +0.000 OA
ATOM      8  C   UNL     1       7.002   4.026  12.601  0.00  0.00    +0.000 A 
ATOM      9  N   UNL     1       6.120   3.940  13.608  0.00  0.00    +0.000 N 
ATOM     10  C   UNL     1       6.496   4.845  14.523  0.00  0.00    +0.000 A 
ATOM     11  N   UNL     1       7.568   5.492  14.201  0.00  0.00    +0.000 NA
ATOM     12  O   UNL     1       7.952   4.959  12.930  0.00  0.00    +0.000 OA
ATOM     13  H   UNL     1       5.290   3.376  13.567  0.00  0.00    +0.000 HD
ENDBRANCH   1  10
BRANCH   4  14
ATOM     14  O   UNL     1       3.430   5.664  19.180  0.00  0.00    +0.000 OA
BRANCH  14  15
ATOM     15  C   UNL     1       2.603   4.708  19.722  0.00  0.00    +0.000 A 
ATOM     16  C   UNL     1       2.849   4.386  21.059  0.00  0.00    +0.000 A 
ATOM     17  C   UNL     1       2.068   3.426  21.707  0.00  0.00    +0.000 A 
ATOM     18  C   UNL     1       1.039   2.787  21.018  0.00  0.00    +0.000 A 
ATOM     19  C   UNL     1       0.766   3.134  19.696  0.00  0.00    +0.000 A 
ATOM     20  C   UNL     1       1.526   4.115  19.059  0.00  0.00    +0.000 A 
ENDBRANCH  14  15
ENDBRANCH   4  14
TORSDOF 3
ENDMDL
MODEL 9
REMARK VINA RESULT:      -7.5      0.945      1.421
REMARK  Name = 
REMARK  3 active torsions:
REMARK  status: ('A' for Active; 'I' for Inactive)
REMARK    1  A    between atoms: C_4  and  C_5
REMARK    2  A    between atoms: C_8  and  O_9
REMARK    3  A    between atoms: O_9  and  C_10
REMARK                            x       y       z     vdW  Elec       q    Type
REMARK                         _______ _______ _______ _____ _____    ______ ____
ROOT
ATOM      1  C   UNL     1       5.803   4.971  15.524  0.00  0.00    +0.000 A 
ATOM      2  C   UNL     1       5.733   3.999  16.528  0.00  0.00    +0.000 A 
ATOM      3  C   UNL     1       5.087   4.292  17.731  0.00  0.00    +0.000 A 
ATOM      4  C   UNL     1       4.507   5.547  17.936  0.00  0.00    +0.000 A 
ATOM      5  C   UNL     1       4.533   6.496  16.910  0.00  0.00    +0.000 A 
ATOM      6  C   UNL     1       5.213   6.223  15.721  0.00  0.00    +0.000 A 
ENDROOT
BRANCH   1  10
ATOM      7  O   UNL     1       6.911   2.847  11.520  0.00  0.00    +0.000 OA
ATOM      8  C   UNL     1       6.933   3.660  12.429  0.00  0.00    +0.000 A 
ATOM      9  N   UNL     1       6.210   3.590  13.557  0.00  0.00    +0.000 N 
ATOM     10  C   UNL     1       6.482   4.703  14.253  0.00  0.00    +0.000 A 
ATOM     11  N   UNL     1       7.344   5.475  13.679  0.00  0.00    +0.000 NA
ATOM     12  O   UNL     1       7.689   4.803  12.464  0.00  0.00    +0.000 OA
ATOM     13  H   UNL     1       5.522   2.877  13.728  0.00  0.00    +0.000 HD
ENDBRANCH   1  10
BRANCH   4  14
ATOM     14  O   UNL     1       3.884   5.717  19.151  0.00  0.00    +0.000 OA
BRANCH  14  15
ATOM     15  C   UNL     1       2.869   4.875  19.542  0.00  0.00    +0.000 A 
ATOM     16  C   UNL     1       2.065   4.379  18.512  0.00  0.00    +0.000 A 
ATOM     17  C   UNL     1       1.005   3.518  18.799  0.00  0.00    +0.000 A 
ATOM     18  C   UNL     1       0.746   3.149  20.118  0.00  0.00    +0.000 A 
ATOM     19  C   UNL     1       1.568   3.611  21.144  0.00  0.00    +0.000 A 
ATOM     20  C   UNL     1       2.647   4.447  20.854  0.00  0.00    +0.000 A 
ENDBRANCH  14  15
ENDBRANCH   4  14
TORSDOF 3
ENDMDL
