MODEL 1
REMARK VINA RESULT:      -7.5      0.000      0.000
REMARK  Name = 
REMARK  1 active torsions:
REMARK  status: ('A' for Active; 'I' for Inactive)
REMARK    1  A    between atoms: O_1  and  C_2
REMARK                            x       y       z     vdW  Elec       q    Type
REMARK                         _______ _______ _______ _____ _____    ______ ____
ROOT
ATOM      1  C   UNL     1       3.608   2.383  17.909  0.00  0.00    +0.000 A 
ATOM      2  C   UNL     1       2.715   1.775  18.789  0.00  0.00    +0.000 A 
ATOM      3  C   UNL     1       1.938   2.573  19.617  0.00  0.00    +0.000 A 
ATOM      4  C   UNL     1       2.066   3.964  19.564  0.00  0.00    +0.000 A 
ATOM      5 CL   UNL     1       1.049   4.884  20.623  0.00  0.00    +0.000 Cl
ATOM      6  C   UNL     1       2.986   4.586  18.684  0.00  0.00    +0.000 A 
ATOM      7  C   UNL     1       3.190   5.981  18.589  0.00  0.00    +0.000 A 
ATOM      8  C   UNL     1       4.125   6.508  17.702  0.00  0.00    +0.000 A 
ATOM      9  C   UNL     1       4.819   5.641  16.879  0.00  0.00    +0.000 A 
ATOM     10  N   UNL     1       5.707   6.162  15.918  0.00  0.00    +0.000 N 
ATOM     11  C   UNL     1       6.122   5.436  14.788  0.00  0.00    +0.000 A 
ATOM     12  C   UNL     1       5.198   4.710  14.044  0.00  0.00    +0.000 A 
ATOM     13  C   UNL     1       5.645   3.958  12.972  0.00  0.00    +0.000 A 
ATOM     14 CL   UNL     1       4.528   3.006  12.073  0.00  0.00    +0.000 Cl
ATOM     15  C   UNL     1       6.987   3.960  12.635  0.00  0.00    +0.000 A 
ATOM     16  C   UNL     1       7.830   4.750  13.393  0.00  0.00    +0.000 A 
ATOM     17  N   UNL     1       7.429   5.495  14.448  0.00  0.00    +0.000 NA
ATOM     18  N   UNL     1       4.635   4.309  16.958  0.00  0.00    +0.000 NA
ATOM     19  C   UNL     1       3.761   3.775  17.834  0.00  0.00    +0.000 A 
ATOM     20  H   UNL     1       6.525   6.573  16.352  0.00  0.00    +0.000 HD
ENDROOT
BRANCH   1  21
ATOM     21  O   UNL     1       4.367   1.584  17.083  0.00  0.00    +0.000 OA
ATOM     22  H   UNL     1       4.995   2.125  16.582  0.00  0.00    +0.000 HD
ENDBRANCH   1  21
TORSDOF 1
ENDMDL
MODEL 2
REMARK VINA RESULT:      -7.4      3.652      5.117
REMARK  Name = 
REMARK  1 active torsions:
REMARK  status: ('A' for Active; 'I' for Inactive)
REMARK    1  A    between atoms: O_1  and  C_2
REMARK                            x       y       z     vdW  Elec       q    Type
REMARK                         _______ _______ _______ _____ _____    ______ ____
ROOT
ATOM      1  C   UNL     1       1.976   8.938  18.345  0.00  0.00    +0.000 A 
ATOM      2  C   UNL     1       1.220  10.037  18.749  0.00  0.00    +0.000 A 
ATOM      3  C   UNL     1       0.540   9.979  19.957  0.00  0.00    +0.000 A 
ATOM      4  C   UNL     1       0.613   8.825  20.742  0.00  0.00    +0.000 A 
ATOM      5 CL   UNL     1      -0.258   8.842  22.240  0.00  0.00    +0.000 Cl
ATOM      6  C   UNL     1       1.364   7.698  20.327  0.00  0.00    +0.000 A 
ATOM      7  C   UNL     1       1.467   6.489  21.051  0.00  0.00    +0.000 A 
ATOM      8  C   UNL     1       2.220   5.424  20.563  0.00  0.00    +0.000 A 
ATOM      9  C   UNL     1       2.907   5.589  19.375  0.00  0.00    +0.000 A 
ATOM     10  N   UNL     1       3.740   4.554  18.909  0.00  0.00    +0.000 N 
ATOM     11  C   UNL     1       4.775   4.766  17.981  0.00  0.00    +0.000 A 
ATOM     12  C   UNL     1       5.628   5.856  18.119  0.00  0.00    +0.000 A 
ATOM     13  C   UNL     1       6.600   6.071  17.159  0.00  0.00    +0.000 A 
ATOM     14 CL   UNL     1       7.627   7.447  17.278  0.00  0.00    +0.000 Cl
ATOM     15  C   UNL     1       6.735   5.192  16.099  0.00  0.00    +0.000 A 
ATOM     16  C   UNL     1       5.883   4.105  16.065  0.00  0.00    +0.000 A 
ATOM     17  N   UNL     1       4.920   3.864  16.985  0.00  0.00    +0.000 NA
ATOM     18  N   UNL     1       2.818   6.736  18.673  0.00  0.00    +0.000 NA
ATOM     19  C   UNL     1       2.067   7.765  19.109  0.00  0.00    +0.000 A 
ATOM     20  H   UNL     1       3.202   3.750  18.609  0.00  0.00    +0.000 HD
ENDROOT
BRANCH   1  21
ATOM     21  O   UNL     1       2.658   9.009  17.151  0.00  0.00    +0.000 OA
ATOM     22  H   UNL     1       2.417   8.262  16.584  0.00  0.00    +0.000 HD
ENDBRANCH   1  21
TORSDOF 1
ENDMDL
MODEL 3
REMARK VINA RESULT:      -7.0      4.972      6.963
REMARK  Name = 
REMARK  1 active torsions:
REMARK  status: ('A' for Active; 'I' for Inactive)
REMARK    1  A    between atoms: O_1  and  C_2
REMARK                            x       y       z     vdW  Elec       q    Type
REMARK                         _______ _______ _______ _____ _____    ______ ____
ROOT
ATOM      1  C   UNL     1       0.915   9.377  21.899  0.00  0.00    +0.000 A 
ATOM      2  C   UNL     1       0.069  10.151  22.691  0.00  0.00    +0.000 A 
ATOM      3  C   UNL     1      -0.849  10.990  22.075  0.00  0.00    +0.000 A 
ATOM      4  C   UNL     1      -0.906  11.053  20.680  0.00  0.00    +0.000 A 
ATOM      5 CL   UNL     1      -2.090  12.117  19.993  0.00  0.00    +0.000 Cl
ATOM      6  C   UNL     1      -0.037  10.282  19.870  0.00  0.00    +0.000 A 
ATOM      7  C   UNL     1      -0.017  10.309  18.458  0.00  0.00    +0.000 A 
ATOM      8  C   UNL     1       0.881   9.523  17.739  0.00  0.00    +0.000 A 
ATOM      9  C   UNL     1       1.725   8.679  18.435  0.00  0.00    +0.000 A 
ATOM     10  N   UNL     1       2.581   7.817  17.723  0.00  0.00    +0.000 N 
ATOM     11  C   UNL     1       3.146   6.661  18.290  0.00  0.00    +0.000 A 
ATOM     12  C   UNL     1       2.366   5.807  19.064  0.00  0.00    +0.000 A 
ATOM     13  C   UNL     1       2.963   4.709  19.657  0.00  0.00    +0.000 A 
ATOM     14 CL   UNL     1       2.030   3.673  20.666  0.00  0.00    +0.000 Cl
ATOM     15  C   UNL     1       4.308   4.455  19.452  0.00  0.00    +0.000 A 
ATOM     16  C   UNL     1       4.998   5.322  18.626  0.00  0.00    +0.000 A 
ATOM     17  N   UNL     1       4.448   6.406  18.032  0.00  0.00    +0.000 NA
ATOM     18  N   UNL     1       1.719   8.643  19.782  0.00  0.00    +0.000 NA
ATOM     19  C   UNL     1       0.882   9.419  20.497  0.00  0.00    +0.000 A 
ATOM     20  H   UNL     1       3.314   8.330  17.247  0.00  0.00    +0.000 HD
ENDROOT
BRANCH   1  21
ATOM     21  O   UNL     1       1.814   8.538  22.519  0.00  0.00    +0.000 OA
ATOM     22  H   UNL     1       2.683   8.961  22.571  0.00  0.00    +0.000 HD
ENDBRANCH   1  21
TORSDOF 1
ENDMDL
MODEL 4
REMARK VINA RESULT:      -6.9      4.429      6.540
REMARK  Name = 
REMARK  1 active torsions:
REMARK  status: ('A' for Active; 'I' for Inactive)
REMARK    1  A    between atoms: O_1  and  C_2
REMARK                            x       y       z     vdW  Elec       q    Type
REMARK                         _______ _______ _______ _____ _____    ______ ____
ROOT
ATOM      1  C   UNL     1       1.039   8.756  21.387  0.00  0.00    +0.000 A 
ATOM      2  C   UNL     1       0.212   9.741  21.923  0.00  0.00    +0.000 A 
ATOM      3  C   UNL     1      -0.273  10.739  21.089  0.00  0.00    +0.000 A 
ATOM      4  C   UNL     1       0.080  10.748  19.736  0.00  0.00    +0.000 A 
ATOM      5 CL   UNL     1      -0.579  12.022  18.764  0.00  0.00    +0.000 Cl
ATOM      6  C   UNL     1       0.935   9.758  19.191  0.00  0.00    +0.000 A 
ATOM      7  C   UNL     1       1.355   9.713  17.843  0.00  0.00    +0.000 A 
ATOM      8  C   UNL     1       2.208   8.708  17.393  0.00  0.00    +0.000 A 
ATOM      9  C   UNL     1       2.601   7.725  18.282  0.00  0.00    +0.000 A 
ATOM     10  N   UNL     1       3.394   6.656  17.825  0.00  0.00    +0.000 N 
ATOM     11  C   UNL     1       3.490   5.429  18.505  0.00  0.00    +0.000 A 
ATOM     12  C   UNL     1       2.347   4.817  19.008  0.00  0.00    +0.000 A 
ATOM     13  C   UNL     1       2.478   3.640  19.724  0.00  0.00    +0.000 A 
ATOM     14 CL   UNL     1       1.083   2.896  20.405  0.00  0.00    +0.000 Cl
ATOM     15  C   UNL     1       3.727   3.073  19.903  0.00  0.00    +0.000 A 
ATOM     16  C   UNL     1       4.805   3.717  19.325  0.00  0.00    +0.000 A 
ATOM     17  N   UNL     1       4.714   4.869  18.622  0.00  0.00    +0.000 NA
ATOM     18  N   UNL     1       2.208   7.756  19.571  0.00  0.00    +0.000 NA
ATOM     19  C   UNL     1       1.412   8.738  20.035  0.00  0.00    +0.000 A 
ATOM     20  H   UNL     1       4.330   6.963  17.587  0.00  0.00    +0.000 HD
ENDROOT
BRANCH   1  21
ATOM     21  O   UNL     1       1.505   7.762  22.220  0.00  0.00    +0.000 OA
ATOM     22  H   UNL     1       1.995   8.150  22.959  0.00  0.00    +0.000 HD
ENDBRANCH   1  21
TORSDOF 1
ENDMDL
MODEL 5
REMARK VINA RESULT:      -6.6      4.182      7.072
REMARK  Name = 
REMARK  1 active torsions:
REMARK  status: ('A' for Active; 'I' for Inactive)
REMARK    1  A    between atoms: O_1  and  C_2
REMARK                            x       y       z     vdW  Elec       q    Type
REMARK                         _______ _______ _______ _____ _____    ______ ____
ROOT
ATOM      1  C   UNL     1       2.563   4.866  19.735  0.00  0.00    +0.000 A 
ATOM      2  C   UNL     1       3.272   3.692  19.981  0.00  0.00    +0.000 A 
ATOM      3  C   UNL     1       4.508   3.512  19.374  0.00  0.00    +0.000 A 
ATOM      4  C   UNL     1       5.016   4.499  18.525  0.00  0.00    +0.000 A 
ATOM      5 CL   UNL     1       6.570   4.200  17.820  0.00  0.00    +0.000 Cl
ATOM      6  C   UNL     1       4.291   5.687  18.258  0.00  0.00    +0.000 A 
ATOM      7  C   UNL     1       4.725   6.717  17.395  0.00  0.00    +0.000 A 
ATOM      8  C   UNL     1       3.942   7.849  17.180  0.00  0.00    +0.000 A 
ATOM      9  C   UNL     1       2.748   7.967  17.866  0.00  0.00    +0.000 A 
ATOM     10  N   UNL     1       1.983   9.141  17.725  0.00  0.00    +0.000 N 
ATOM     11  C   UNL     1       1.013   9.538  18.663  0.00  0.00    +0.000 A 
ATOM     12  C   UNL     1       1.285   9.467  20.025  0.00  0.00    +0.000 A 
ATOM     13  C   UNL     1       0.291   9.809  20.925  0.00  0.00    +0.000 A 
ATOM     14 CL   UNL     1       0.587   9.672  22.615  0.00  0.00    +0.000 Cl
ATOM     15  C   UNL     1      -0.939  10.244  20.466  0.00  0.00    +0.000 A 
ATOM     16  C   UNL     1      -1.110  10.336  19.098  0.00  0.00    +0.000 A 
ATOM     17  N   UNL     1      -0.162  10.008  18.190  0.00  0.00    +0.000 NA
ATOM     18  N   UNL     1       2.320   6.992  18.692  0.00  0.00    +0.000 NA
ATOM     19  C   UNL     1       3.045   5.874  18.887  0.00  0.00    +0.000 A 
ATOM     20  H   UNL     1       1.580   9.213  16.799  0.00  0.00    +0.000 HD
ENDROOT
BRANCH   1  21
ATOM     21  O   UNL     1       1.344   5.041  20.351  0.00  0.00    +0.000 OA
ATOM     22  H   UNL     1       1.382   5.794  20.957  0.00  0.00    +0.000 HD
ENDBRANCH   1  21
TORSDOF 1
ENDMDL
MODEL 6
REMARK VINA RESULT:      -6.6      4.203      7.077
REMARK  Name = 
REMARK  1 active torsions:
REMARK  status: ('A' for Active; 'I' for Inactive)
REMARK    1  A    between atoms: O_1  and  C_2
REMARK                            x       y       z     vdW  Elec       q    Type
REMARK                         _______ _______ _______ _____ _____    ______ ____
ROOT
ATOM      1  C   UNL     1       3.973   6.217  17.586  0.00  0.00    +0.000 A 
ATOM      2  C   UNL     1       4.578   5.368  16.662  0.00  0.00    +0.000 A 
ATOM      3  C   UNL     1       4.439   3.996  16.817  0.00  0.00    +0.000 A 
ATOM      4  C   UNL     1       3.708   3.488  17.894  0.00  0.00    +0.000 A 
ATOM      5 CL   UNL     1       3.574   1.763  18.005  0.00  0.00    +0.000 Cl
ATOM      6  C   UNL     1       3.105   4.346  18.847  0.00  0.00    +0.000 A 
ATOM      7  C   UNL     1       2.373   3.910  19.973  0.00  0.00    +0.000 A 
ATOM      8  C   UNL     1       1.823   4.825  20.867  0.00  0.00    +0.000 A 
ATOM      9  C   UNL     1       1.967   6.174  20.606  0.00  0.00    +0.000 A 
ATOM     10  N   UNL     1       1.347   7.113  21.453  0.00  0.00    +0.000 N 
ATOM     11  C   UNL     1       1.076   8.435  21.060  0.00  0.00    +0.000 A 
ATOM     12  C   UNL     1       0.535   8.696  19.805  0.00  0.00    +0.000 A 
ATOM     13  C   UNL     1       0.333  10.010  19.423  0.00  0.00    +0.000 A 
ATOM     14 CL   UNL     1      -0.280  10.357  17.853  0.00  0.00    +0.000 Cl
ATOM     15  C   UNL     1       0.638  11.040  20.295  0.00  0.00    +0.000 A 
ATOM     16  C   UNL     1       1.121  10.694  21.542  0.00  0.00    +0.000 A 
ATOM     17  N   UNL     1       1.333   9.420  21.948  0.00  0.00    +0.000 NA
ATOM     18  N   UNL     1       2.664   6.606  19.536  0.00  0.00    +0.000 NA
ATOM     19  C   UNL     1       3.234   5.738  18.678  0.00  0.00    +0.000 A 
ATOM     20  H   UNL     1       1.784   7.135  22.367  0.00  0.00    +0.000 HD
ENDROOT
BRANCH   1  21
ATOM     21  O   UNL     1       4.105   7.577  17.417  0.00  0.00    +0.000 OA
ATOM     22  H   UNL     1       4.455   7.771  16.536  0.00  0.00    +0.000 HD
ENDBRANCH   1  21
TORSDOF 1
ENDMDL
MODEL 7
REMARK VINA RESULT:      -6.4      5.570      7.556
REMARK  Name = 
REMARK  1 active torsions:
REMARK  status: ('A' for Active; 'I' for Inactive)
REMARK    1  A    between atoms: O_1  and  C_2
REMARK                            x       y       z     vdW  Elec       q    Type
REMARK                         _______ _______ _______ _____ _____    ______ ____
ROOT
ATOM      1  C   UNL     1      -0.105  10.473  18.599  0.00  0.00    +0.000 A 
ATOM      2  C   UNL     1      -0.585  11.774  18.456  0.00  0.00    +0.000 A 
ATOM      3  C   UNL     1      -0.629  12.600  19.570  0.00  0.00    +0.000 A 
ATOM      4  C   UNL     1      -0.204  12.118  20.812  0.00  0.00    +0.000 A 
ATOM      5 CL   UNL     1      -0.282  13.220  22.147  0.00  0.00    +0.000 Cl
ATOM      6  C   UNL     1       0.268  10.791  20.965  0.00  0.00    +0.000 A 
ATOM      7  C   UNL     1       0.691  10.224  22.188  0.00  0.00    +0.000 A 
ATOM      8  C   UNL     1       1.130   8.904  22.251  0.00  0.00    +0.000 A 
ATOM      9  C   UNL     1       1.189   8.170  21.081  0.00  0.00    +0.000 A 
ATOM     10  N   UNL     1       1.710   6.862  21.112  0.00  0.00    +0.000 N 
ATOM     11  C   UNL     1       2.198   6.207  19.967  0.00  0.00    +0.000 A 
ATOM     12  C   UNL     1       3.020   6.882  19.071  0.00  0.00    +0.000 A 
ATOM     13  C   UNL     1       3.438   6.230  17.924  0.00  0.00    +0.000 A 
ATOM     14 CL   UNL     1       4.407   7.066  16.773  0.00  0.00    +0.000 Cl
ATOM     15  C   UNL     1       3.065   4.917  17.698  0.00  0.00    +0.000 A 
ATOM     16  C   UNL     1       2.291   4.302  18.664  0.00  0.00    +0.000 A 
ATOM     17  N   UNL     1       1.863   4.909  19.795  0.00  0.00    +0.000 NA
ATOM     18  N   UNL     1       0.788   8.697  19.908  0.00  0.00    +0.000 NA
ATOM     19  C   UNL     1       0.327   9.960  19.830  0.00  0.00    +0.000 A 
ATOM     20  H   UNL     1       1.092   6.227  21.603  0.00  0.00    +0.000 HD
ENDROOT
BRANCH   1  21
ATOM     21  O   UNL     1      -0.053   9.664  17.485  0.00  0.00    +0.000 OA
ATOM     22  H   UNL     1      -0.041  10.204  16.682  0.00  0.00    +0.000 HD
ENDBRANCH   1  21
TORSDOF 1
ENDMDL
MODEL 8
REMARK VINA RESULT:      -6.3      4.348      6.333
REMARK  Name = 
REMARK  1 active torsions:
REMARK  status: ('A' for Active; 'I' for Inactive)
REMARK    1  A    between atoms: O_1  and  C_2
REMARK                            x       y       z     vdW  Elec       q    Type
REMARK                         _______ _______ _______ _____ _____    ______ ____
ROOT
ATOM      1  C   UNL     1       1.274   3.954  20.509  0.00  0.00    +0.000 A 
ATOM      2  C   UNL     1       1.360   2.713  21.136  0.00  0.00    +0.000 A 
ATOM      3  C   UNL     1       2.570   2.033  21.120  0.00  0.00    +0.000 A 
ATOM      4  C   UNL     1       3.675   2.594  20.473  0.00  0.00    +0.000 A 
ATOM      5 CL   UNL     1       5.149   1.684  20.511  0.00  0.00    +0.000 Cl
ATOM      6  C   UNL     1       3.588   3.847  19.817  0.00  0.00    +0.000 A 
ATOM      7  C   UNL     1       4.649   4.467  19.123  0.00  0.00    +0.000 A 
ATOM      8  C   UNL     1       4.473   5.698  18.496  0.00  0.00    +0.000 A 
ATOM      9  C   UNL     1       3.247   6.328  18.607  0.00  0.00    +0.000 A 
ATOM     10  N   UNL     1       3.076   7.610  18.052  0.00  0.00    +0.000 N 
ATOM     11  C   UNL     1       2.056   8.489  18.458  0.00  0.00    +0.000 A 
ATOM     12  C   UNL     1       1.776   8.660  19.810  0.00  0.00    +0.000 A 
ATOM     13  C   UNL     1       0.728   9.486  20.177  0.00  0.00    +0.000 A 
ATOM     14 CL   UNL     1       0.327   9.666  21.841  0.00  0.00    +0.000 Cl
ATOM     15  C   UNL     1      -0.002  10.151  19.209  0.00  0.00    +0.000 A 
ATOM     16  C   UNL     1       0.375   9.968  17.893  0.00  0.00    +0.000 A 
ATOM     17  N   UNL     1       1.391   9.167  17.497  0.00  0.00    +0.000 NA
ATOM     18  N   UNL     1       2.225   5.748  19.267  0.00  0.00    +0.000 NA
ATOM     19  C   UNL     1       2.364   4.542  19.850  0.00  0.00    +0.000 A 
ATOM     20  H   UNL     1       3.088   7.582  17.040  0.00  0.00    +0.000 HD
ENDROOT
BRANCH   1  21
ATOM     21  O   UNL     1       0.073   4.627  20.541  0.00  0.00    +0.000 OA
ATOM     22  H   UNL     1      -0.085   5.067  19.693  0.00  0.00    +0.000 HD
ENDBRANCH   1  21
TORSDOF 1
ENDMDL
MODEL 9
REMARK VINA RESULT:      -6.2      3.254      4.228
REMARK  Name = 
REMARK  1 active torsions:
REMARK  status: ('A' for Active; 'I' for Inactive)
REMARK    1  A    between atoms: O_1  and  C_2
REMARK                            x       y       z     vdW  Elec       q    Type
REMARK                         _______ _______ _______ _____ _____    ______ ____
ROOT
ATOM      1  C   UNL     1       2.664   4.749  20.269  0.00  0.00    +0.000 A 
ATOM      2  C   UNL     1       1.651   4.122  20.991  0.00  0.00    +0.000 A 
ATOM      3  C   UNL     1       0.943   3.087  20.397  0.00  0.00    +0.000 A 
ATOM      4  C   UNL     1       1.246   2.697  19.089  0.00  0.00    +0.000 A 
ATOM      5 CL   UNL     1       0.322   1.388  18.429  0.00  0.00    +0.000 Cl
ATOM      6  C   UNL     1       2.263   3.343  18.344  0.00  0.00    +0.000 A 
ATOM      7  C   UNL     1       2.612   3.023  17.013  0.00  0.00    +0.000 A 
ATOM      8  C   UNL     1       3.620   3.720  16.351  0.00  0.00    +0.000 A 
ATOM      9  C   UNL     1       4.308   4.702  17.038  0.00  0.00    +0.000 A 
ATOM     10  N   UNL     1       5.385   5.358  16.412  0.00  0.00    +0.000 N 
ATOM     11  C   UNL     1       6.387   6.037  17.128  0.00  0.00    +0.000 A 
ATOM     12  C   UNL     1       6.949   5.461  18.263  0.00  0.00    +0.000 A 
ATOM     13  C   UNL     1       7.890   6.178  18.981  0.00  0.00    +0.000 A 
ATOM     14 CL   UNL     1       8.555   5.509  20.420  0.00  0.00    +0.000 Cl
ATOM     15  C   UNL     1       8.283   7.433  18.550  0.00  0.00    +0.000 A 
ATOM     16  C   UNL     1       7.715   7.909  17.383  0.00  0.00    +0.000 A 
ATOM     17  N   UNL     1       6.791   7.238  16.658  0.00  0.00    +0.000 NA
ATOM     18  N   UNL     1       3.986   5.018  18.307  0.00  0.00    +0.000 NA
ATOM     19  C   UNL     1       2.992   4.382  18.955  0.00  0.00    +0.000 A 
ATOM     20  H   UNL     1       5.069   5.958  15.659  0.00  0.00    +0.000 HD
ENDROOT
BRANCH   1  21
ATOM     21  O   UNL     1       3.370   5.767  20.871  0.00  0.00    +0.000 OA
ATOM     22  H   UNL     1       3.372   6.552  20.304  0.00  0.00    +0.000 HD
ENDBRANCH   1  21
TORSDOF 1
ENDMDL
