MODEL 1
REMARK VINA RESULT:      -8.5      0.000      0.000
REMARK  Name = 
REMARK  10 active torsions:
REMARK  status: ('A' for Active; 'I' for Inactive)
REMARK    1  A    between atoms: C_1  and  C_2
REMARK    2  A    between atoms: C_2  and  C_3
REMARK    3  A    between atoms: C_2  and  S_4
REMARK    4  A    between atoms: S_4  and  C_7
REMARK    5  A    between atoms: C_12  and  N_13
REMARK    6  A    between atoms: N_13  and  C_14
REMARK    7  A    between atoms: N_17  and  C_18
REMARK    8  A    between atoms: C_22  and  N_23
REMARK    9  A    between atoms: C_24  and  C_26
REMARK   10  A    between atoms: C_26  and  N_27
REMARK                            x       y       z     vdW  Elec       q    Type
REMARK                         _______ _______ _______ _____ _____    ______ ____
ROOT
ATOM      1  C   UNL     1       1.310   9.516  19.860  0.00  0.00    +0.000 A 
ATOM      2  N   UNL     1       1.287   8.294  20.449  0.00  0.00    +0.000 NA
ATOM      3  C   UNL     1       1.885   7.265  19.825  0.00  0.00    +0.000 A 
ATOM      4  N   UNL     1       1.829   6.027  20.472  0.00  0.00    +0.000 N 
ATOM      5  N   UNL     1       2.484   7.391  18.632  0.00  0.00    +0.000 NA
ATOM      6  C   UNL     1       2.494   8.607  18.056  0.00  0.00    +0.000 A 
ATOM      7  C   UNL     1       1.921   9.713  18.628  0.00  0.00    +0.000 A 
ATOM      8 CL   UNL     1       2.023  11.244  17.854  0.00  0.00    +0.000 Cl
ATOM      9  H   UNL     1       1.303   6.114  21.329  0.00  0.00    +0.000 HD
ENDROOT
BRANCH   4  10
ATOM     10  C   UNL     1       2.616   4.869  20.328  0.00  0.00    +0.000 A 
ATOM     11  C   UNL     1       2.334   3.684  21.016  0.00  0.00    +0.000 A 
ATOM     12  C   UNL     1       3.142   2.559  20.881  0.00  0.00    +0.000 A 
ATOM     13  C   UNL     1       4.264   2.602  20.066  0.00  0.00    +0.000 A 
ATOM     14  C   UNL     1       4.605   3.771  19.386  0.00  0.00    +0.000 A 
ATOM     15  C   UNL     1       3.778   4.903  19.529  0.00  0.00    +0.000 A 
BRANCH  14  16
ATOM     16  N   UNL     1       5.739   3.861  18.552  0.00  0.00    +0.000 N 
ATOM     17  C   UNL     1       5.807   4.414  17.283  0.00  0.00    +0.000 C 
ATOM     18  O   UNL     1       4.883   4.887  16.630  0.00  0.00    +0.000 OA
ATOM     19  H   UNL     1       6.630   3.514  18.903  0.00  0.00    +0.000 HD
BRANCH  17  20
ATOM     20  C   UNL     1       7.222   4.390  16.693  0.00  0.00    +0.000 C 
BRANCH  20  21
ATOM     21  N   UNL     1       8.241   4.150  17.735  0.00  0.00    +0.000 NA
ATOM     22  H   UNL     1       9.148   4.062  17.271  0.00  0.00    +0.000 HD
ATOM     23  H   UNL     1       8.061   3.224  18.127  0.00  0.00    +0.000 HD
ENDBRANCH  20  21
ENDBRANCH  17  20
ENDBRANCH  14  16
ENDBRANCH   4  10
BRANCH   1  24
ATOM     24  N   UNL     1       0.589  10.579  20.466  0.00  0.00    +0.000 N 
ATOM     25  H   UNL     1       0.574  10.473  21.484  0.00  0.00    +0.000 HD
BRANCH  24  31
ATOM     26  C   UNL     1      -1.372  12.054  20.788  0.00  0.00    +0.000 A 
ATOM     27  C   UNL     1      -2.637  12.491  20.351  0.00  0.00    +0.000 A 
ATOM     28  C   UNL     1      -3.179  12.017  19.161  0.00  0.00    +0.000 A 
ATOM     29  C   UNL     1      -2.476  11.084  18.408  0.00  0.00    +0.000 A 
ATOM     30  C   UNL     1      -1.221  10.647  18.837  0.00  0.00    +0.000 A 
ATOM     31  C   UNL     1      -0.631  11.136  20.019  0.00  0.00    +0.000 A 
BRANCH  26  32
ATOM     32  S   UNL     1      -0.854  12.603  22.413  0.00  0.00    +0.000 S 
ATOM     33  O   UNL     1       0.264  13.511  22.240  0.00  0.00    +0.000 OA
ATOM     34  O   UNL     1      -0.664  11.406  23.214  0.00  0.00    +0.000 OA
BRANCH  32  36
ATOM     35  C   UNL     1      -3.242  12.611  23.823  0.00  0.00    +0.000 C 
ATOM     36  C   UNL     1      -2.236  13.518  23.117  0.00  0.00    +0.000 C 
ATOM     37  C   UNL     1      -1.705  14.547  24.122  0.00  0.00    +0.000 C 
ENDBRANCH  32  36
ENDBRANCH  26  32
ENDBRANCH  24  31
ENDBRANCH   1  24
TORSDOF 8
ENDMDL
MODEL 2
REMARK VINA RESULT:      -8.4      2.218      3.420
REMARK  Name = 
REMARK  10 active torsions:
REMARK  status: ('A' for Active; 'I' for Inactive)
REMARK    1  A    between atoms: C_1  and  C_2
REMARK    2  A    between atoms: C_2  and  C_3
REMARK    3  A    between atoms: C_2  and  S_4
REMARK    4  A    between atoms: S_4  and  C_7
REMARK    5  A    between atoms: C_12  and  N_13
REMARK    6  A    between atoms: N_13  and  C_14
REMARK    7  A    between atoms: N_17  and  C_18
REMARK    8  A    between atoms: C_22  and  N_23
REMARK    9  A    between atoms: C_24  and  C_26
REMARK   10  A    between atoms: C_26  and  N_27
REMARK                            x       y       z     vdW  Elec       q    Type
REMARK                         _______ _______ _______ _____ _____    ______ ____
ROOT
ATOM      1  C   UNL     1       0.538   9.686  19.607  0.00  0.00    +0.000 A 
ATOM      2  N   UNL     1       1.382   9.418  18.580  0.00  0.00    +0.000 NA
ATOM      3  C   UNL     1       2.235   8.387  18.700  0.00  0.00    +0.000 A 
ATOM      4  N   UNL     1       3.087   8.155  17.615  0.00  0.00    +0.000 N 
ATOM      5  N   UNL     1       2.304   7.626  19.802  0.00  0.00    +0.000 NA
ATOM      6  C   UNL     1       1.465   7.908  20.815  0.00  0.00    +0.000 A 
ATOM      7  C   UNL     1       0.553   8.932  20.774  0.00  0.00    +0.000 A 
ATOM      8 CL   UNL     1      -0.521   9.194  22.088  0.00  0.00    +0.000 Cl
ATOM      9  H   UNL     1       2.925   8.849  16.901  0.00  0.00    +0.000 HD
ENDROOT
BRANCH   4  10
ATOM     10  C   UNL     1       3.809   7.010  17.232  0.00  0.00    +0.000 A 
ATOM     11  C   UNL     1       4.921   7.076  16.384  0.00  0.00    +0.000 A 
ATOM     12  C   UNL     1       5.603   5.928  15.995  0.00  0.00    +0.000 A 
ATOM     13  C   UNL     1       5.176   4.682  16.432  0.00  0.00    +0.000 A 
ATOM     14  C   UNL     1       4.054   4.562  17.251  0.00  0.00    +0.000 A 
ATOM     15  C   UNL     1       3.372   5.732  17.640  0.00  0.00    +0.000 A 
BRANCH  14  16
ATOM     16  N   UNL     1       3.581   3.316  17.714  0.00  0.00    +0.000 N 
ATOM     17  C   UNL     1       3.991   2.631  18.847  0.00  0.00    +0.000 C 
ATOM     18  O   UNL     1       4.874   2.958  19.633  0.00  0.00    +0.000 OA
ATOM     19  H   UNL     1       2.837   2.855  17.195  0.00  0.00    +0.000 HD
BRANCH  17  20
ATOM     20  C   UNL     1       3.216   1.327  19.072  0.00  0.00    +0.000 C 
BRANCH  20  21
ATOM     21  N   UNL     1       1.774   1.498  18.801  0.00  0.00    +0.000 NA
ATOM     22  H   UNL     1       1.258   0.972  19.510  0.00  0.00    +0.000 HD
ATOM     23  H   UNL     1       1.571   1.015  17.923  0.00  0.00    +0.000 HD
ENDBRANCH  20  21
ENDBRANCH  17  20
ENDBRANCH  14  16
ENDBRANCH   4  10
BRANCH   1  24
ATOM     24  N   UNL     1      -0.290  10.838  19.526  0.00  0.00    +0.000 N 
ATOM     25  H   UNL     1      -0.300  11.341  20.418  0.00  0.00    +0.000 HD
BRANCH  24  31
ATOM     26  C   UNL     1      -2.505  11.909  19.257  0.00  0.00    +0.000 A 
ATOM     27  C   UNL     1      -3.795  11.884  18.695  0.00  0.00    +0.000 A 
ATOM     28  C   UNL     1      -4.158  10.889  17.793  0.00  0.00    +0.000 A 
ATOM     29  C   UNL     1      -3.246   9.894  17.463  0.00  0.00    +0.000 A 
ATOM     30  C   UNL     1      -1.964   9.913  18.019  0.00  0.00    +0.000 A 
ATOM     31  C   UNL     1      -1.557  10.928  18.907  0.00  0.00    +0.000 A 
BRANCH  26  32
ATOM     32  S   UNL     1      -2.211  13.135  20.529  0.00  0.00    +0.000 S 
ATOM     33  O   UNL     1      -3.286  14.109  20.466  0.00  0.00    +0.000 OA
ATOM     34  O   UNL     1      -0.843  13.595  20.354  0.00  0.00    +0.000 OA
BRANCH  32  36
ATOM     35  C   UNL     1      -1.170  12.669  23.056  0.00  0.00    +0.000 C 
ATOM     36  C   UNL     1      -2.302  12.277  22.109  0.00  0.00    +0.000 C 
ATOM     37  C   UNL     1      -3.644  12.593  22.782  0.00  0.00    +0.000 C 
ENDBRANCH  32  36
ENDBRANCH  26  32
ENDBRANCH  24  31
ENDBRANCH   1  24
TORSDOF 8
ENDMDL
MODEL 3
REMARK VINA RESULT:      -8.4      2.092      3.226
REMARK  Name = 
REMARK  10 active torsions:
REMARK  status: ('A' for Active; 'I' for Inactive)
REMARK    1  A    between atoms: C_1  and  C_2
REMARK    2  A    between atoms: C_2  and  C_3
REMARK    3  A    between atoms: C_2  and  S_4
REMARK    4  A    between atoms: S_4  and  C_7
REMARK    5  A    between atoms: C_12  and  N_13
REMARK    6  A    between atoms: N_13  and  C_14
REMARK    7  A    between atoms: N_17  and  C_18
REMARK    8  A    between atoms: C_22  and  N_23
REMARK    9  A    between atoms: C_24  and  C_26
REMARK   10  A    between atoms: C_26  and  N_27
REMARK                            x       y       z     vdW  Elec       q    Type
REMARK                         _______ _______ _______ _____ _____    ______ ____
ROOT
ATOM      1  C   UNL     1       1.123   9.447  18.998  0.00  0.00    +0.000 A 
ATOM      2  N   UNL     1       2.017   9.164  18.018  0.00  0.00    +0.000 NA
ATOM      3  C   UNL     1       2.794   8.075  18.149  0.00  0.00    +0.000 A 
ATOM      4  N   UNL     1       3.701   7.830  17.114  0.00  0.00    +0.000 N 
ATOM      5  N   UNL     1       2.738   7.268  19.219  0.00  0.00    +0.000 NA
ATOM      6  C   UNL     1       1.850   7.565  20.186  0.00  0.00    +0.000 A 
ATOM      7  C   UNL     1       1.011   8.647  20.129  0.00  0.00    +0.000 A 
ATOM      8 CL   UNL     1      -0.133   8.928  21.380  0.00  0.00    +0.000 Cl
ATOM      9  H   UNL     1       3.633   8.561  16.421  0.00  0.00    +0.000 HD
ENDROOT
BRANCH   4  10
ATOM     10  C   UNL     1       4.374   6.655  16.729  0.00  0.00    +0.000 A 
ATOM     11  C   UNL     1       5.123   6.575  15.550  0.00  0.00    +0.000 A 
ATOM     12  C   UNL     1       5.757   5.395  15.174  0.00  0.00    +0.000 A 
ATOM     13  C   UNL     1       5.641   4.260  15.964  0.00  0.00    +0.000 A 
ATOM     14  C   UNL     1       4.879   4.282  17.132  0.00  0.00    +0.000 A 
ATOM     15  C   UNL     1       4.242   5.483  17.503  0.00  0.00    +0.000 A 
BRANCH  14  16
ATOM     16  N   UNL     1       4.728   3.150  17.961  0.00  0.00    +0.000 N 
ATOM     17  C   UNL     1       3.629   2.310  18.042  0.00  0.00    +0.000 C 
ATOM     18  O   UNL     1       2.565   2.420  17.442  0.00  0.00    +0.000 OA
ATOM     19  H   UNL     1       5.505   2.878  18.559  0.00  0.00    +0.000 HD
BRANCH  17  20
ATOM     20  C   UNL     1       3.837   1.142  19.014  0.00  0.00    +0.000 C 
BRANCH  20  21
ATOM     21  N   UNL     1       4.985   1.382  19.913  0.00  0.00    +0.000 NA
ATOM     22  H   UNL     1       5.825   1.035  19.446  0.00  0.00    +0.000 HD
ATOM     23  H   UNL     1       4.869   0.770  20.723  0.00  0.00    +0.000 HD
ENDBRANCH  20  21
ENDBRANCH  17  20
ENDBRANCH  14  16
ENDBRANCH   4  10
BRANCH   1  24
ATOM     24  N   UNL     1       0.377  10.653  18.913  0.00  0.00    +0.000 N 
ATOM     25  H   UNL     1       0.544  11.240  19.735  0.00  0.00    +0.000 HD
BRANCH  24  31
ATOM     26  C   UNL     1      -1.863  11.690  19.085  0.00  0.00    +0.000 A 
ATOM     27  C   UNL     1      -3.216  11.708  18.697  0.00  0.00    +0.000 A 
ATOM     28  C   UNL     1      -3.686  10.835  17.721  0.00  0.00    +0.000 A 
ATOM     29  C   UNL     1      -2.817   9.919  17.141  0.00  0.00    +0.000 A 
ATOM     30  C   UNL     1      -1.473   9.896  17.523  0.00  0.00    +0.000 A 
ATOM     31  C   UNL     1      -0.961  10.792  18.482  0.00  0.00    +0.000 A 
BRANCH  26  32
ATOM     32  S   UNL     1      -1.414  12.740  20.465  0.00  0.00    +0.000 S 
ATOM     33  O   UNL     1      -1.287  14.098  19.968  0.00  0.00    +0.000 OA
ATOM     34  O   UNL     1      -0.264  12.120  21.102  0.00  0.00    +0.000 OA
BRANCH  32  36
ATOM     35  C   UNL     1      -2.382  12.083  22.979  0.00  0.00    +0.000 C 
ATOM     36  C   UNL     1      -2.784  12.679  21.632  0.00  0.00    +0.000 C 
ATOM     37  C   UNL     1      -3.323  14.098  21.857  0.00  0.00    +0.000 C 
ENDBRANCH  32  36
ENDBRANCH  26  32
ENDBRANCH  24  31
ENDBRANCH   1  24
TORSDOF 8
ENDMDL
MODEL 4
REMARK VINA RESULT:      -8.4      4.128      9.737
REMARK  Name = 
REMARK  10 active torsions:
REMARK  status: ('A' for Active; 'I' for Inactive)
REMARK    1  A    between atoms: C_1  and  C_2
REMARK    2  A    between atoms: C_2  and  C_3
REMARK    3  A    between atoms: C_2  and  S_4
REMARK    4  A    between atoms: S_4  and  C_7
REMARK    5  A    between atoms: C_12  and  N_13
REMARK    6  A    between atoms: N_13  and  C_14
REMARK    7  A    between atoms: N_17  and  C_18
REMARK    8  A    between atoms: C_22  and  N_23
REMARK    9  A    between atoms: C_24  and  C_26
REMARK   10  A    between atoms: C_26  and  N_27
REMARK                            x       y       z     vdW  Elec       q    Type
REMARK                         _______ _______ _______ _____ _____    ______ ____
ROOT
ATOM      1  C   UNL     1       3.674   3.921  17.755  0.00  0.00    +0.000 A 
ATOM      2  N   UNL     1       3.609   5.274  17.680  0.00  0.00    +0.000 NA
ATOM      3  C   UNL     1       2.504   5.893  18.130  0.00  0.00    +0.000 A 
ATOM      4  N   UNL     1       2.485   7.287  18.026  0.00  0.00    +0.000 N 
ATOM      5  N   UNL     1       1.453   5.227  18.629  0.00  0.00    +0.000 NA
ATOM      6  C   UNL     1       1.529   3.885  18.692  0.00  0.00    +0.000 A 
ATOM      7  C   UNL     1       2.622   3.173  18.268  0.00  0.00    +0.000 A 
ATOM      8 CL   UNL     1       2.664   1.464  18.432  0.00  0.00    +0.000 Cl
ATOM      9  H   UNL     1       3.336   7.607  17.587  0.00  0.00    +0.000 HD
ENDROOT
BRANCH   4  10
ATOM     10  C   UNL     1       1.716   8.257  18.694  0.00  0.00    +0.000 A 
ATOM     11  C   UNL     1       1.786   8.442  20.079  0.00  0.00    +0.000 A 
ATOM     12  C   UNL     1       0.995   9.387  20.724  0.00  0.00    +0.000 A 
ATOM     13  C   UNL     1       0.100  10.159  19.997  0.00  0.00    +0.000 A 
ATOM     14  C   UNL     1      -0.029   9.989  18.619  0.00  0.00    +0.000 A 
ATOM     15  C   UNL     1       0.779   9.029  17.977  0.00  0.00    +0.000 A 
BRANCH  14  16
ATOM     16  N   UNL     1      -0.930  10.747  17.841  0.00  0.00    +0.000 N 
ATOM     17  C   UNL     1      -2.244  10.432  17.534  0.00  0.00    +0.000 C 
ATOM     18  O   UNL     1      -2.855   9.414  17.843  0.00  0.00    +0.000 OA
ATOM     19  H   UNL     1      -0.619  11.643  17.472  0.00  0.00    +0.000 HD
BRANCH  17  20
ATOM     20  C   UNL     1      -2.945  11.519  16.710  0.00  0.00    +0.000 C 
BRANCH  20  21
ATOM     21  N   UNL     1      -2.709  11.339  15.263  0.00  0.00    +0.000 NA
ATOM     22  H   UNL     1      -1.698  11.327  15.110  0.00  0.00    +0.000 HD
ATOM     23  H   UNL     1      -3.030  12.189  14.796  0.00  0.00    +0.000 HD
ENDBRANCH  20  21
ENDBRANCH  17  20
ENDBRANCH  14  16
ENDBRANCH   4  10
BRANCH   1  24
ATOM     24  N   UNL     1       4.794   3.259  17.184  0.00  0.00    +0.000 N 
ATOM     25  H   UNL     1       5.418   2.907  17.915  0.00  0.00    +0.000 HD
BRANCH  24  31
ATOM     26  C   UNL     1       6.771   4.369  16.192  0.00  0.00    +0.000 A 
ATOM     27  C   UNL     1       7.425   4.873  15.052  0.00  0.00    +0.000 A 
ATOM     28  C   UNL     1       6.873   4.709  13.786  0.00  0.00    +0.000 A 
ATOM     29  C   UNL     1       5.649   4.064  13.648  0.00  0.00    +0.000 A 
ATOM     30  C   UNL     1       4.995   3.564  14.776  0.00  0.00    +0.000 A 
ATOM     31  C   UNL     1       5.548   3.683  16.066  0.00  0.00    +0.000 A 
BRANCH  26  32
ATOM     32  S   UNL     1       7.493   4.787  17.778  0.00  0.00    +0.000 S 
ATOM     33  O   UNL     1       8.761   4.090  17.887  0.00  0.00    +0.000 OA
ATOM     34  O   UNL     1       6.470   4.536  18.779  0.00  0.00    +0.000 OA
BRANCH  32  36
ATOM     35  C   UNL     1       6.570   7.372  17.385  0.00  0.00    +0.000 C 
ATOM     36  C   UNL     1       7.810   6.559  17.753  0.00  0.00    +0.000 C 
ATOM     37  C   UNL     1       8.305   7.006  19.134  0.00  0.00    +0.000 C 
ENDBRANCH  32  36
ENDBRANCH  26  32
ENDBRANCH  24  31
ENDBRANCH   1  24
TORSDOF 8
ENDMDL
MODEL 5
REMARK VINA RESULT:      -8.3      2.283      2.990
REMARK  Name = 
REMARK  10 active torsions:
REMARK  status: ('A' for Active; 'I' for Inactive)
REMARK    1  A    between atoms: C_1  and  C_2
REMARK    2  A    between atoms: C_2  and  C_3
REMARK    3  A    between atoms: C_2  and  S_4
REMARK    4  A    between atoms: S_4  and  C_7
REMARK    5  A    between atoms: C_12  and  N_13
REMARK    6  A    between atoms: N_13  and  C_14
REMARK    7  A    between atoms: N_17  and  C_18
REMARK    8  A    between atoms: C_22  and  N_23
REMARK    9  A    between atoms: C_24  and  C_26
REMARK   10  A    between atoms: C_26  and  N_27
REMARK                            x       y       z     vdW  Elec       q    Type
REMARK                         _______ _______ _______ _____ _____    ______ ____
ROOT
ATOM      1  C   UNL     1       0.961   9.484  19.268  0.00  0.00    +0.000 A 
ATOM      2  N   UNL     1       1.831   9.101  18.300  0.00  0.00    +0.000 NA
ATOM      3  C   UNL     1       2.579   8.002  18.503  0.00  0.00    +0.000 A 
ATOM      4  N   UNL     1       3.462   7.653  17.477  0.00  0.00    +0.000 N 
ATOM      5  N   UNL     1       2.517   7.281  19.632  0.00  0.00    +0.000 NA
ATOM      6  C   UNL     1       1.654   7.677  20.586  0.00  0.00    +0.000 A 
ATOM      7  C   UNL     1       0.844   8.776  20.458  0.00  0.00    +0.000 A 
ATOM      8 CL   UNL     1      -0.271   9.184  21.699  0.00  0.00    +0.000 Cl
ATOM      9  H   UNL     1       3.404   8.331  16.732  0.00  0.00    +0.000 HD
ENDROOT
BRANCH   4  10
ATOM     10  C   UNL     1       4.095   6.433  17.174  0.00  0.00    +0.000 A 
ATOM     11  C   UNL     1       3.855   5.264  17.903  0.00  0.00    +0.000 A 
ATOM     12  C   UNL     1       4.513   4.076  17.604  0.00  0.00    +0.000 A 
ATOM     13  C   UNL     1       5.444   4.035  16.576  0.00  0.00    +0.000 A 
ATOM     14  C   UNL     1       5.741   5.182  15.841  0.00  0.00    +0.000 A 
ATOM     15  C   UNL     1       5.067   6.380  16.152  0.00  0.00    +0.000 A 
BRANCH  14  16
ATOM     16  N   UNL     1       6.685   5.189  14.792  0.00  0.00    +0.000 N 
ATOM     17  C   UNL     1       6.593   4.527  13.577  0.00  0.00    +0.000 C 
ATOM     18  O   UNL     1       5.698   3.775  13.207  0.00  0.00    +0.000 OA
ATOM     19  H   UNL     1       7.524   5.754  14.895  0.00  0.00    +0.000 HD
BRANCH  17  20
ATOM     20  C   UNL     1       7.783   4.807  12.650  0.00  0.00    +0.000 C 
BRANCH  20  21
ATOM     21  N   UNL     1       8.610   5.923  13.152  0.00  0.00    +0.000 NA
ATOM     22  H   UNL     1       8.966   6.436  12.342  0.00  0.00    +0.000 HD
ATOM     23  H   UNL     1       9.441   5.515  13.584  0.00  0.00    +0.000 HD
ENDBRANCH  20  21
ENDBRANCH  17  20
ENDBRANCH  14  16
ENDBRANCH   4  10
BRANCH   1  24
ATOM     24  N   UNL     1       0.249  10.702  19.102  0.00  0.00    +0.000 N 
ATOM     25  H   UNL     1       0.422  11.333  19.889  0.00  0.00    +0.000 HD
BRANCH  24  31
ATOM     26  C   UNL     1      -1.980  11.771  19.215  0.00  0.00    +0.000 A 
ATOM     27  C   UNL     1      -3.326  11.799  18.806  0.00  0.00    +0.000 A 
ATOM     28  C   UNL     1      -3.793  10.911  17.842  0.00  0.00    +0.000 A 
ATOM     29  C   UNL     1      -2.927   9.971  17.295  0.00  0.00    +0.000 A 
ATOM     30  C   UNL     1      -1.590   9.939  17.699  0.00  0.00    +0.000 A 
ATOM     31  C   UNL     1      -1.081  10.849  18.647  0.00  0.00    +0.000 A 
BRANCH  26  32
ATOM     32  S   UNL     1      -1.538  12.845  20.579  0.00  0.00    +0.000 S 
ATOM     33  O   UNL     1      -1.573  14.214  20.097  0.00  0.00    +0.000 OA
ATOM     34  O   UNL     1      -0.294  12.330  21.127  0.00  0.00    +0.000 OA
BRANCH  32  36
ATOM     35  C   UNL     1      -2.279  12.010  23.118  0.00  0.00    +0.000 C 
ATOM     36  C   UNL     1      -2.813  12.643  21.834  0.00  0.00    +0.000 C 
ATOM     37  C   UNL     1      -3.418  14.012  22.169  0.00  0.00    +0.000 C 
ENDBRANCH  32  36
ENDBRANCH  26  32
ENDBRANCH  24  31
ENDBRANCH   1  24
TORSDOF 8
ENDMDL
MODEL 6
REMARK VINA RESULT:      -8.2      0.770      1.003
REMARK  Name = 
REMARK  10 active torsions:
REMARK  status: ('A' for Active; 'I' for Inactive)
REMARK    1  A    between atoms: C_1  and  C_2
REMARK    2  A    between atoms: C_2  and  C_3
REMARK    3  A    between atoms: C_2  and  S_4
REMARK    4  A    between atoms: S_4  and  C_7
REMARK    5  A    between atoms: C_12  and  N_13
REMARK    6  A    between atoms: N_13  and  C_14
REMARK    7  A    between atoms: N_17  and  C_18
REMARK    8  A    between atoms: C_22  and  N_23
REMARK    9  A    between atoms: C_24  and  C_26
REMARK   10  A    between atoms: C_26  and  N_27
REMARK                            x       y       z     vdW  Elec       q    Type
REMARK                         _______ _______ _______ _____ _____    ______ ____
ROOT
ATOM      1  C   UNL     1       1.292   9.743  19.538  0.00  0.00    +0.000 A 
ATOM      2  N   UNL     1       1.222   8.528  20.138  0.00  0.00    +0.000 NA
ATOM      3  C   UNL     1       1.857   7.490  19.567  0.00  0.00    +0.000 A 
ATOM      4  N   UNL     1       1.751   6.259  20.222  0.00  0.00    +0.000 N 
ATOM      5  N   UNL     1       2.537   7.599  18.417  0.00  0.00    +0.000 NA
ATOM      6  C   UNL     1       2.592   8.809  17.830  0.00  0.00    +0.000 A 
ATOM      7  C   UNL     1       1.986   9.924  18.349  0.00  0.00    +0.000 A 
ATOM      8 CL   UNL     1       2.149  11.445  17.567  0.00  0.00    +0.000 Cl
ATOM      9  H   UNL     1       1.167   6.358  21.040  0.00  0.00    +0.000 HD
ENDROOT
BRANCH   4  10
ATOM     10  C   UNL     1       2.540   5.097  20.145  0.00  0.00    +0.000 A 
ATOM     11  C   UNL     1       2.223   3.930  20.850  0.00  0.00    +0.000 A 
ATOM     12  C   UNL     1       3.033   2.801  20.783  0.00  0.00    +0.000 A 
ATOM     13  C   UNL     1       4.191   2.820  20.019  0.00  0.00    +0.000 A 
ATOM     14  C   UNL     1       4.566   3.970  19.324  0.00  0.00    +0.000 A 
ATOM     15  C   UNL     1       3.737   5.107  19.400  0.00  0.00    +0.000 A 
BRANCH  14  16
ATOM     16  N   UNL     1       5.738   4.036  18.542  0.00  0.00    +0.000 N 
ATOM     17  C   UNL     1       5.840   4.421  17.214  0.00  0.00    +0.000 C 
ATOM     18  O   UNL     1       4.924   4.731  16.459  0.00  0.00    +0.000 OA
ATOM     19  H   UNL     1       6.629   3.808  18.978  0.00  0.00    +0.000 HD
BRANCH  17  20
ATOM     20  C   UNL     1       7.285   4.427  16.700  0.00  0.00    +0.000 C 
BRANCH  20  21
ATOM     21  N   UNL     1       8.243   4.085  17.771  0.00  0.00    +0.000 NA
ATOM     22  H   UNL     1       8.839   4.901  17.930  0.00  0.00    +0.000 HD
ATOM     23  H   UNL     1       8.874   3.374  17.398  0.00  0.00    +0.000 HD
ENDBRANCH  20  21
ENDBRANCH  17  20
ENDBRANCH  14  16
ENDBRANCH   4  10
BRANCH   1  24
ATOM     24  N   UNL     1       0.536  10.816  20.082  0.00  0.00    +0.000 N 
ATOM     25  H   UNL     1       0.598  10.822  21.104  0.00  0.00    +0.000 HD
BRANCH  24  31
ATOM     26  C   UNL     1      -1.480  12.224  20.363  0.00  0.00    +0.000 A 
ATOM     27  C   UNL     1      -2.801  12.526  19.986  0.00  0.00    +0.000 A 
ATOM     28  C   UNL     1      -3.411  11.851  18.934  0.00  0.00    +0.000 A 
ATOM     29  C   UNL     1      -2.717  10.850  18.264  0.00  0.00    +0.000 A 
ATOM     30  C   UNL     1      -1.404  10.546  18.635  0.00  0.00    +0.000 A 
ATOM     31  C   UNL     1      -0.749  11.238  19.673  0.00  0.00    +0.000 A 
BRANCH  26  32
ATOM     32  S   UNL     1      -0.863  13.038  21.835  0.00  0.00    +0.000 S 
ATOM     33  O   UNL     1      -1.420  14.379  21.868  0.00  0.00    +0.000 OA
ATOM     34  O   UNL     1       0.582  12.884  21.821  0.00  0.00    +0.000 OA
BRANCH  32  36
ATOM     35  C   UNL     1      -3.015  12.227  23.383  0.00  0.00    +0.000 C 
ATOM     36  C   UNL     1      -1.498  12.115  23.244  0.00  0.00    +0.000 C 
ATOM     37  C   UNL     1      -1.121  10.636  23.094  0.00  0.00    +0.000 C 
ENDBRANCH  32  36
ENDBRANCH  26  32
ENDBRANCH  24  31
ENDBRANCH   1  24
TORSDOF 8
ENDMDL
MODEL 7
REMARK VINA RESULT:      -8.1      2.330      2.843
REMARK  Name = 
REMARK  10 active torsions:
REMARK  status: ('A' for Active; 'I' for Inactive)
REMARK    1  A    between atoms: C_1  and  C_2
REMARK    2  A    between atoms: C_2  and  C_3
REMARK    3  A    between atoms: C_2  and  S_4
REMARK    4  A    between atoms: S_4  and  C_7
REMARK    5  A    between atoms: C_12  and  N_13
REMARK    6  A    between atoms: N_13  and  C_14
REMARK    7  A    between atoms: N_17  and  C_18
REMARK    8  A    between atoms: C_22  and  N_23
REMARK    9  A    between atoms: C_24  and  C_26
REMARK   10  A    between atoms: C_26  and  N_27
REMARK                            x       y       z     vdW  Elec       q    Type
REMARK                         _______ _______ _______ _____ _____    ______ ____
ROOT
ATOM      1  C   UNL     1      -0.407  10.483  20.595  0.00  0.00    +0.000 A 
ATOM      2  N   UNL     1       0.326   9.718  19.747  0.00  0.00    +0.000 NA
ATOM      3  C   UNL     1       1.118   8.762  20.263  0.00  0.00    +0.000 A 
ATOM      4  N   UNL     1       1.855   8.004  19.348  0.00  0.00    +0.000 N 
ATOM      5  N   UNL     1       1.232   8.547  21.581  0.00  0.00    +0.000 NA
ATOM      6  C   UNL     1       0.504   9.318  22.410  0.00  0.00    +0.000 A 
ATOM      7  C   UNL     1      -0.339  10.306  21.972  0.00  0.00    +0.000 A 
ATOM      8 CL   UNL     1      -1.276  11.211  23.091  0.00  0.00    +0.000 Cl
ATOM      9  H   UNL     1       1.678   8.336  18.410  0.00  0.00    +0.000 HD
ENDROOT
BRANCH   4  10
ATOM     10  C   UNL     1       2.465   6.742  19.467  0.00  0.00    +0.000 A 
ATOM     11  C   UNL     1       1.968   5.749  20.317  0.00  0.00    +0.000 A 
ATOM     12  C   UNL     1       2.603   4.517  20.441  0.00  0.00    +0.000 A 
ATOM     13  C   UNL     1       3.764   4.258  19.728  0.00  0.00    +0.000 A 
ATOM     14  C   UNL     1       4.316   5.228  18.892  0.00  0.00    +0.000 A 
ATOM     15  C   UNL     1       3.663   6.471  18.773  0.00  0.00    +0.000 A 
BRANCH  14  16
ATOM     16  N   UNL     1       5.499   5.011  18.153  0.00  0.00    +0.000 N 
ATOM     17  C   UNL     1       5.606   4.469  16.881  0.00  0.00    +0.000 C 
ATOM     18  O   UNL     1       4.697   4.035  16.181  0.00  0.00    +0.000 OA
ATOM     19  H   UNL     1       6.387   5.297  18.559  0.00  0.00    +0.000 HD
BRANCH  17  20
ATOM     20  C   UNL     1       7.049   4.433  16.364  0.00  0.00    +0.000 C 
BRANCH  20  21
ATOM     21  N   UNL     1       7.444   5.726  15.767  0.00  0.00    +0.000 NA
ATOM     22  H   UNL     1       7.035   6.471  16.336  0.00  0.00    +0.000 HD
ATOM     23  H   UNL     1       6.969   5.801  14.865  0.00  0.00    +0.000 HD
ENDBRANCH  20  21
ENDBRANCH  17  20
ENDBRANCH  14  16
ENDBRANCH   4  10
BRANCH   1  24
ATOM     24  N   UNL     1      -1.161  11.562  20.061  0.00  0.00    +0.000 N 
ATOM     25  H   UNL     1      -1.327  12.276  20.775  0.00  0.00    +0.000 HD
BRANCH  24  31
ATOM     26  C   UNL     1      -3.492  12.137  19.458  0.00  0.00    +0.000 A 
ATOM     27  C   UNL     1      -4.612  11.920  18.635  0.00  0.00    +0.000 A 
ATOM     28  C   UNL     1      -4.545  11.036  17.562  0.00  0.00    +0.000 A 
ATOM     29  C   UNL     1      -3.366  10.342  17.316  0.00  0.00    +0.000 A 
ATOM     30  C   UNL     1      -2.251  10.554  18.131  0.00  0.00    +0.000 A 
ATOM     31  C   UNL     1      -2.279  11.468  19.201  0.00  0.00    +0.000 A 
BRANCH  26  32
ATOM     32  S   UNL     1      -3.749  13.164  20.903  0.00  0.00    +0.000 S 
ATOM     33  O   UNL     1      -2.521  13.899  21.150  0.00  0.00    +0.000 OA
ATOM     34  O   UNL     1      -4.261  12.293  21.946  0.00  0.00    +0.000 OA
BRANCH  32  36
ATOM     35  C   UNL     1      -6.361  14.044  21.207  0.00  0.00    +0.000 C 
ATOM     36  C   UNL     1      -5.048  14.337  20.482  0.00  0.00    +0.000 C 
ATOM     37  C   UNL     1      -4.588  15.756  20.841  0.00  0.00    +0.000 C 
ENDBRANCH  32  36
ENDBRANCH  26  32
ENDBRANCH  24  31
ENDBRANCH   1  24
TORSDOF 8
ENDMDL
MODEL 8
REMARK VINA RESULT:      -8.1      3.198      9.462
REMARK  Name = 
REMARK  10 active torsions:
REMARK  status: ('A' for Active; 'I' for Inactive)
REMARK    1  A    between atoms: C_1  and  C_2
REMARK    2  A    between atoms: C_2  and  C_3
REMARK    3  A    between atoms: C_2  and  S_4
REMARK    4  A    between atoms: S_4  and  C_7
REMARK    5  A    between atoms: C_12  and  N_13
REMARK    6  A    between atoms: N_13  and  C_14
REMARK    7  A    between atoms: N_17  and  C_18
REMARK    8  A    between atoms: C_22  and  N_23
REMARK    9  A    between atoms: C_24  and  C_26
REMARK   10  A    between atoms: C_26  and  N_27
REMARK                            x       y       z     vdW  Elec       q    Type
REMARK                         _______ _______ _______ _____ _____    ______ ____
ROOT
ATOM      1  C   UNL     1       2.309   7.446  19.694  0.00  0.00    +0.000 A 
ATOM      2  N   UNL     1       1.548   8.127  20.588  0.00  0.00    +0.000 NA
ATOM      3  C   UNL     1       1.004   9.297  20.212  0.00  0.00    +0.000 A 
ATOM      4  N   UNL     1       0.233   9.962  21.171  0.00  0.00    +0.000 N 
ATOM      5  N   UNL     1       1.199   9.831  18.998  0.00  0.00    +0.000 NA
ATOM      6  C   UNL     1       1.960   9.147  18.124  0.00  0.00    +0.000 A 
ATOM      7  C   UNL     1       2.543   7.941  18.418  0.00  0.00    +0.000 A 
ATOM      8 CL   UNL     1       3.457   7.104  17.228  0.00  0.00    +0.000 Cl
ATOM      9  H   UNL     1       0.236   9.437  22.034  0.00  0.00    +0.000 HD
ENDROOT
BRANCH   4  10
ATOM     10  C   UNL     1      -0.751  10.959  21.042  0.00  0.00    +0.000 A 
ATOM     11  C   UNL     1      -1.108  11.799  22.102  0.00  0.00    +0.000 A 
ATOM     12  C   UNL     1      -2.104  12.760  21.960  0.00  0.00    +0.000 A 
ATOM     13  C   UNL     1      -2.780  12.889  20.755  0.00  0.00    +0.000 A 
ATOM     14  C   UNL     1      -2.482  12.053  19.680  0.00  0.00    +0.000 A 
ATOM     15  C   UNL     1      -1.470  11.085  19.835  0.00  0.00    +0.000 A 
BRANCH  14  16
ATOM     16  N   UNL     1      -3.148  12.145  18.439  0.00  0.00    +0.000 N 
ATOM     17  C   UNL     1      -3.700  11.108  17.703  0.00  0.00    +0.000 C 
ATOM     18  O   UNL     1      -3.670   9.911  17.971  0.00  0.00    +0.000 OA
ATOM     19  H   UNL     1      -3.279  13.065  18.024  0.00  0.00    +0.000 HD
BRANCH  17  20
ATOM     20  C   UNL     1      -4.398  11.584  16.424  0.00  0.00    +0.000 C 
BRANCH  20  21
ATOM     21  N   UNL     1      -3.514  11.467  15.247  0.00  0.00    +0.000 NA
ATOM     22  H   UNL     1      -3.413  12.399  14.838  0.00  0.00    +0.000 HD
ATOM     23  H   UNL     1      -4.019  10.928  14.541  0.00  0.00    +0.000 HD
ENDBRANCH  20  21
ENDBRANCH  17  20
ENDBRANCH  14  16
ENDBRANCH   4  10
BRANCH   1  24
ATOM     24  N   UNL     1       2.971   6.265  20.123  0.00  0.00    +0.000 N 
ATOM     25  H   UNL     1       3.943   6.257  19.800  0.00  0.00    +0.000 HD
BRANCH  24  31
ATOM     26  C   UNL     1       3.202   3.837  19.700  0.00  0.00    +0.000 A 
ATOM     27  C   UNL     1       2.601   2.569  19.600  0.00  0.00    +0.000 A 
ATOM     28  C   UNL     1       1.254   2.396  19.903  0.00  0.00    +0.000 A 
ATOM     29  C   UNL     1       0.488   3.492  20.282  0.00  0.00    +0.000 A 
ATOM     30  C   UNL     1       1.080   4.753  20.381  0.00  0.00    +0.000 A 
ATOM     31  C   UNL     1       2.449   4.952  20.116  0.00  0.00    +0.000 A 
BRANCH  26  32
ATOM     32  S   UNL     1       4.893   3.967  19.124  0.00  0.00    +0.000 S 
ATOM     33  O   UNL     1       5.671   2.942  19.795  0.00  0.00    +0.000 OA
ATOM     34  O   UNL     1       5.282   5.358  19.289  0.00  0.00    +0.000 OA
BRANCH  32  36
ATOM     35  C   UNL     1       3.498   3.845  16.731  0.00  0.00    +0.000 C 
ATOM     36  C   UNL     1       4.871   3.611  17.360  0.00  0.00    +0.000 C 
ATOM     37  C   UNL     1       5.900   4.499  16.649  0.00  0.00    +0.000 C 
ENDBRANCH  32  36
ENDBRANCH  26  32
ENDBRANCH  24  31
ENDBRANCH   1  24
TORSDOF 8
ENDMDL
MODEL 9
REMARK VINA RESULT:      -8.1      4.089      9.661
REMARK  Name = 
REMARK  10 active torsions:
REMARK  status: ('A' for Active; 'I' for Inactive)
REMARK    1  A    between atoms: C_1  and  C_2
REMARK    2  A    between atoms: C_2  and  C_3
REMARK    3  A    between atoms: C_2  and  S_4
REMARK    4  A    between atoms: S_4  and  C_7
REMARK    5  A    between atoms: C_12  and  N_13
REMARK    6  A    between atoms: N_13  and  C_14
REMARK    7  A    between atoms: N_17  and  C_18
REMARK    8  A    between atoms: C_22  and  N_23
REMARK    9  A    between atoms: C_24  and  C_26
REMARK   10  A    between atoms: C_26  and  N_27
REMARK                            x       y       z     vdW  Elec       q    Type
REMARK                         _______ _______ _______ _____ _____    ______ ____
ROOT
ATOM      1  C   UNL     1       2.198   7.402  18.647  0.00  0.00    +0.000 A 
ATOM      2  N   UNL     1       2.086   8.575  17.974  0.00  0.00    +0.000 NA
ATOM      3  C   UNL     1       1.648   9.659  18.636  0.00  0.00    +0.000 A 
ATOM      4  N   UNL     1       1.547  10.841  17.896  0.00  0.00    +0.000 N 
ATOM      5  N   UNL     1       1.294   9.626  19.929  0.00  0.00    +0.000 NA
ATOM      6  C   UNL     1       1.405   8.455  20.582  0.00  0.00    +0.000 A 
ATOM      7  C   UNL     1       1.855   7.303  19.990  0.00  0.00    +0.000 A 
ATOM      8 CL   UNL     1       2.018   5.860  20.907  0.00  0.00    +0.000 Cl
ATOM      9  H   UNL     1       1.810  10.666  16.937  0.00  0.00    +0.000 HD
ENDROOT
BRANCH   4  10
ATOM     10  C   UNL     1       1.495  12.187  18.301  0.00  0.00    +0.000 A 
ATOM     11  C   UNL     1       0.304  12.802  18.702  0.00  0.00    +0.000 A 
ATOM     12  C   UNL     1       0.270  14.143  19.071  0.00  0.00    +0.000 A 
ATOM     13  C   UNL     1       1.428  14.906  19.031  0.00  0.00    +0.000 A 
ATOM     14  C   UNL     1       2.633  14.346  18.607  0.00  0.00    +0.000 A 
ATOM     15  C   UNL     1       2.655  12.987  18.237  0.00  0.00    +0.000 A 
BRANCH  14  16
ATOM     16  N   UNL     1       3.833  15.086  18.544  0.00  0.00    +0.000 N 
ATOM     17  C   UNL     1       4.724  15.330  19.578  0.00  0.00    +0.000 C 
ATOM     18  O   UNL     1       4.611  14.989  20.751  0.00  0.00    +0.000 OA
ATOM     19  H   UNL     1       4.120  15.473  17.648  0.00  0.00    +0.000 HD
BRANCH  17  20
ATOM     20  C   UNL     1       5.956  16.127  19.132  0.00  0.00    +0.000 C 
BRANCH  20  21
ATOM     21  N   UNL     1       5.701  17.582  19.162  0.00  0.00    +0.000 NA
ATOM     22  H   UNL     1       6.283  18.016  18.442  0.00  0.00    +0.000 HD
ATOM     23  H   UNL     1       6.074  17.937  20.044  0.00  0.00    +0.000 HD
ENDBRANCH  20  21
ENDBRANCH  17  20
ENDBRANCH  14  16
ENDBRANCH   4  10
BRANCH   1  24
ATOM     24  N   UNL     1       2.559   6.233  17.926  0.00  0.00    +0.000 N 
ATOM     25  H   UNL     1       2.035   5.421  18.266  0.00  0.00    +0.000 HD
BRANCH  24  31
ATOM     26  C   UNL     1       4.254   4.493  17.453  0.00  0.00    +0.000 A 
ATOM     27  C   UNL     1       5.593   4.157  17.182  0.00  0.00    +0.000 A 
ATOM     28  C   UNL     1       6.553   5.150  17.010  0.00  0.00    +0.000 A 
ATOM     29  C   UNL     1       6.190   6.486  17.131  0.00  0.00    +0.000 A 
ATOM     30  C   UNL     1       4.861   6.824  17.400  0.00  0.00    +0.000 A 
ATOM     31  C   UNL     1       3.862   5.842  17.544  0.00  0.00    +0.000 A 
BRANCH  26  32
ATOM     32  S   UNL     1       3.148   3.132  17.821  0.00  0.00    +0.000 S 
ATOM     33  O   UNL     1       3.777   1.910  17.357  0.00  0.00    +0.000 OA
ATOM     34  O   UNL     1       1.848   3.496  17.282  0.00  0.00    +0.000 OA
BRANCH  32  36
ATOM     35  C   UNL     1       1.731   2.329  20.066  0.00  0.00    +0.000 C 
ATOM     36  C   UNL     1       2.996   3.058  19.613  0.00  0.00    +0.000 C 
ATOM     37  C   UNL     1       4.219   2.340  20.198  0.00  0.00    +0.000 C 
ENDBRANCH  32  36
ENDBRANCH  26  32
ENDBRANCH  24  31
ENDBRANCH   1  24
TORSDOF 8
ENDMDL
