MODEL 1
REMARK VINA RESULT:      -7.9      0.000      0.000
REMARK  Name = 
REMARK  7 active torsions:
REMARK  status: ('A' for Active; 'I' for Inactive)
REMARK    1  A    between atoms: C_1  and  C_2
REMARK    2  A    between atoms: C_2  and  C_3
REMARK    3  A    between atoms: C_3  and  C_4
REMARK    4  A    between atoms: C_4  and  N_5
REMARK    5  A    between atoms: N_11  and  S_12
REMARK    6  A    between atoms: S_12  and  C_15
REMARK    7  A    between atoms: C_19  and  C_20
REMARK                            x       y       z     vdW  Elec       q    Type
REMARK                         _______ _______ _______ _____ _____    ______ ____
ROOT
ATOM      1  N   UNL     1       6.373   4.762  15.860  0.00  0.00    +0.000 N 
ATOM      2  C   UNL     1       5.428   5.872  15.750  0.00  0.00    +0.000 C 
ATOM      3  C   UNL     1       4.633   6.087  17.048  0.00  0.00    +0.000 C 
ATOM      4  C   UNL     1       3.782   7.371  16.967  0.00  0.00    +0.000 C 
ATOM      5  C   UNL     1       2.912   7.530  18.214  0.00  0.00    +0.000 C 
ATOM      6  C   UNL     1       2.058   6.294  18.504  0.00  0.00    +0.000 C 
ATOM      7  N   UNL     1       2.844   5.029  18.445  0.00  0.00    +0.000 NA
ATOM      8  C   UNL     1       3.659   4.908  17.201  0.00  0.00    +0.000 C 
ATOM      9  C   UNL     1       5.658   6.209  18.199  0.00  0.00    +0.000 C 
ATOM     10  C   UNL     1       6.629   5.045  18.264  0.00  0.00    +0.000 C 
ATOM     11  C   UNL     1       7.245   4.671  16.934  0.00  0.00    +0.000 C 
ATOM     12  O   UNL     1       8.348   4.135  16.874  0.00  0.00    +0.000 OA
ENDROOT
BRANCH   7  13
ATOM     13  S   UNL     1       1.892   3.609  18.658  0.00  0.00    +0.000 S 
ATOM     14  O   UNL     1       0.497   3.999  18.585  0.00  0.00    +0.000 OA
ATOM     15  O   UNL     1       2.430   2.571  17.813  0.00  0.00    +0.000 OA
BRANCH  13  16
ATOM     16  C   UNL     1       2.098   3.001  20.226  0.00  0.00    +0.000 A 
ATOM     17  C   UNL     1       1.107   2.879  21.202  0.00  0.00    +0.000 A 
ATOM     18  N   UNL     1       1.583   2.318  22.318  0.00  0.00    +0.000 NA
ATOM     19  O   UNL     1       2.917   2.045  22.051  0.00  0.00    +0.000 OA
ATOM     20  C   UNL     1       3.225   2.463  20.790  0.00  0.00    +0.000 A 
ATOM     21  C   UNL     1       4.611   2.228  20.344  0.00  0.00    +0.000 C 
ENDBRANCH  13  16
ENDBRANCH   7  13
BRANCH   1  22
ATOM     22  C   UNL     1       6.416   3.726  14.832  0.00  0.00    +0.000 C 
BRANCH  22  23
ATOM     23  C   UNL     1       6.522   4.257  13.411  0.00  0.00    +0.000 C 
BRANCH  23  25
ATOM     24  C   UNL     1       4.736   3.411  11.871  0.00  0.00    +0.000 C 
ATOM     25  C   UNL     1       6.143   3.181  12.393  0.00  0.00    +0.000 C 
ENDBRANCH  23  25
ENDBRANCH  22  23
ENDBRANCH   1  22
TORSDOF 5
ENDMDL
MODEL 2
REMARK VINA RESULT:      -7.5      1.064      1.449
REMARK  Name = 
REMARK  7 active torsions:
REMARK  status: ('A' for Active; 'I' for Inactive)
REMARK    1  A    between atoms: C_1  and  C_2
REMARK    2  A    between atoms: C_2  and  C_3
REMARK    3  A    between atoms: C_3  and  C_4
REMARK    4  A    between atoms: C_4  and  N_5
REMARK    5  A    between atoms: N_11  and  S_12
REMARK    6  A    between atoms: S_12  and  C_15
REMARK    7  A    between atoms: C_19  and  C_20
REMARK                            x       y       z     vdW  Elec       q    Type
REMARK                         _______ _______ _______ _____ _____    ______ ____
ROOT
ATOM      1  N   UNL     1       6.151   4.810  15.856  0.00  0.00    +0.000 N 
ATOM      2  C   UNL     1       5.236   5.934  15.666  0.00  0.00    +0.000 C 
ATOM      3  C   UNL     1       4.599   6.393  16.987  0.00  0.00    +0.000 C 
ATOM      4  C   UNL     1       3.786   7.689  16.786  0.00  0.00    +0.000 C 
ATOM      5  C   UNL     1       3.067   8.089  18.075  0.00  0.00    +0.000 C 
ATOM      6  C   UNL     1       2.213   6.960  18.653  0.00  0.00    +0.000 C 
ATOM      7  N   UNL     1       2.946   5.664  18.720  0.00  0.00    +0.000 NA
ATOM      8  C   UNL     1       3.611   5.304  17.434  0.00  0.00    +0.000 C 
ATOM      9  C   UNL     1       5.751   6.647  17.987  0.00  0.00    +0.000 C 
ATOM     10  C   UNL     1       6.685   5.461  18.140  0.00  0.00    +0.000 C 
ATOM     11  C   UNL     1       7.135   4.848  16.832  0.00  0.00    +0.000 C 
ATOM     12  O   UNL     1       8.206   4.255  16.745  0.00  0.00    +0.000 OA
ENDROOT
BRANCH   7  13
ATOM     13  S   UNL     1       1.979   4.346  19.264  0.00  0.00    +0.000 S 
ATOM     14  O   UNL     1       1.049   4.859  20.252  0.00  0.00    +0.000 OA
ATOM     15  O   UNL     1       1.521   3.612  18.108  0.00  0.00    +0.000 OA
BRANCH  13  16
ATOM     16  C   UNL     1       2.937   3.226  20.100  0.00  0.00    +0.000 A 
ATOM     17  C   UNL     1       4.250   2.869  19.790  0.00  0.00    +0.000 A 
ATOM     18  N   UNL     1       4.743   1.993  20.672  0.00  0.00    +0.000 NA
ATOM     19  O   UNL     1       3.727   1.794  21.596  0.00  0.00    +0.000 OA
ATOM     20  C   UNL     1       2.638   2.535  21.245  0.00  0.00    +0.000 A 
ATOM     21  C   UNL     1       1.470   2.447  22.141  0.00  0.00    +0.000 C 
ENDBRANCH  13  16
ENDBRANCH   7  13
BRANCH   1  22
ATOM     22  C   UNL     1       6.044   3.621  15.014  0.00  0.00    +0.000 C 
BRANCH  22  23
ATOM     23  C   UNL     1       6.377   3.860  13.549  0.00  0.00    +0.000 C 
BRANCH  23  25
ATOM     24  C   UNL     1       5.626   2.432  11.633  0.00  0.00    +0.000 C 
ATOM     25  C   UNL     1       5.201   3.476  12.650  0.00  0.00    +0.000 C 
ENDBRANCH  23  25
ENDBRANCH  22  23
ENDBRANCH   1  22
TORSDOF 5
ENDMDL
MODEL 3
REMARK VINA RESULT:      -7.4      1.537      2.055
REMARK  Name = 
REMARK  7 active torsions:
REMARK  status: ('A' for Active; 'I' for Inactive)
REMARK    1  A    between atoms: C_1  and  C_2
REMARK    2  A    between atoms: C_2  and  C_3
REMARK    3  A    between atoms: C_3  and  C_4
REMARK    4  A    between atoms: C_4  and  N_5
REMARK    5  A    between atoms: N_11  and  S_12
REMARK    6  A    between atoms: S_12  and  C_15
REMARK    7  A    between atoms: C_19  and  C_20
REMARK                            x       y       z     vdW  Elec       q    Type
REMARK                         _______ _______ _______ _____ _____    ______ ____
ROOT
ATOM      1  N   UNL     1       5.920   4.720  14.699  0.00  0.00    +0.000 N 
ATOM      2  C   UNL     1       4.810   5.529  15.196  0.00  0.00    +0.000 C 
ATOM      3  C   UNL     1       4.803   5.625  16.730  0.00  0.00    +0.000 C 
ATOM      4  C   UNL     1       3.738   6.628  17.216  0.00  0.00    +0.000 C 
ATOM      5  C   UNL     1       3.658   6.646  18.743  0.00  0.00    +0.000 C 
ATOM      6  C   UNL     1       3.451   5.254  19.343  0.00  0.00    +0.000 C 
ATOM      7  N   UNL     1       4.385   4.241  18.775  0.00  0.00    +0.000 NA
ATOM      8  C   UNL     1       4.411   4.245  17.283  0.00  0.00    +0.000 C 
ATOM      9  C   UNL     1       6.209   6.100  17.167  0.00  0.00    +0.000 C 
ATOM     10  C   UNL     1       7.331   5.242  16.613  0.00  0.00    +0.000 C 
ATOM     11  C   UNL     1       7.218   4.945  15.134  0.00  0.00    +0.000 C 
ATOM     12  O   UNL     1       8.215   4.716  14.455  0.00  0.00    +0.000 OA
ENDROOT
BRANCH   7  13
ATOM     13  S   UNL     1       4.105   2.640  19.348  0.00  0.00    +0.000 S 
ATOM     14  O   UNL     1       3.771   1.814  18.204  0.00  0.00    +0.000 OA
ATOM     15  O   UNL     1       5.179   2.287  20.246  0.00  0.00    +0.000 OA
BRANCH  13  16
ATOM     16  C   UNL     1       2.727   2.607  20.334  0.00  0.00    +0.000 A 
ATOM     17  C   UNL     1       2.710   2.582  21.729  0.00  0.00    +0.000 A 
ATOM     18  N   UNL     1       1.462   2.607  22.206  0.00  0.00    +0.000 NA
ATOM     19  O   UNL     1       0.644   2.675  21.087  0.00  0.00    +0.000 OA
ATOM     20  C   UNL     1       1.411   2.670  19.960  0.00  0.00    +0.000 A 
ATOM     21  C   UNL     1       0.688   2.755  18.677  0.00  0.00    +0.000 C 
ENDBRANCH  13  16
ENDBRANCH   7  13
BRANCH   1  22
ATOM     22  C   UNL     1       5.681   3.657  13.727  0.00  0.00    +0.000 C 
BRANCH  22  23
ATOM     23  C   UNL     1       5.145   4.142  12.388  0.00  0.00    +0.000 C 
BRANCH  23  25
ATOM     24  C   UNL     1       3.454   3.318  10.733  0.00  0.00    +0.000 C 
ATOM     25  C   UNL     1       4.708   2.966  11.515  0.00  0.00    +0.000 C 
ENDBRANCH  23  25
ENDBRANCH  22  23
ENDBRANCH   1  22
TORSDOF 5
ENDMDL
MODEL 4
REMARK VINA RESULT:      -7.3      1.371      1.580
REMARK  Name = 
REMARK  7 active torsions:
REMARK  status: ('A' for Active; 'I' for Inactive)
REMARK    1  A    between atoms: C_1  and  C_2
REMARK    2  A    between atoms: C_2  and  C_3
REMARK    3  A    between atoms: C_3  and  C_4
REMARK    4  A    between atoms: C_4  and  N_5
REMARK    5  A    between atoms: N_11  and  S_12
REMARK    6  A    between atoms: S_12  and  C_15
REMARK    7  A    between atoms: C_19  and  C_20
REMARK                            x       y       z     vdW  Elec       q    Type
REMARK                         _______ _______ _______ _____ _____    ______ ____
ROOT
ATOM      1  N   UNL     1       6.475   4.969  16.046  0.00  0.00    +0.000 N 
ATOM      2  C   UNL     1       5.628   6.144  15.852  0.00  0.00    +0.000 C 
ATOM      3  C   UNL     1       4.764   6.447  17.087  0.00  0.00    +0.000 C 
ATOM      4  C   UNL     1       4.022   7.789  16.926  0.00  0.00    +0.000 C 
ATOM      5  C   UNL     1       3.083   8.041  18.106  0.00  0.00    +0.000 C 
ATOM      6  C   UNL     1       2.119   6.879  18.355  0.00  0.00    +0.000 C 
ATOM      7  N   UNL     1       2.808   5.557  18.372  0.00  0.00    +0.000 NA
ATOM      8  C   UNL     1       3.695   5.348  17.191  0.00  0.00    +0.000 C 
ATOM      9  C   UNL     1       5.715   6.516  18.306  0.00  0.00    +0.000 C 
ATOM     10  C   UNL     1       6.586   5.284  18.458  0.00  0.00    +0.000 C 
ATOM     11  C   UNL     1       7.262   4.836  17.180  0.00  0.00    +0.000 C 
ATOM     12  O   UNL     1       8.322   4.217  17.207  0.00  0.00    +0.000 OA
ENDROOT
BRANCH   7  13
ATOM     13  S   UNL     1       1.737   4.218  18.542  0.00  0.00    +0.000 S 
ATOM     14  O   UNL     1       0.959   4.426  19.748  0.00  0.00    +0.000 OA
ATOM     15  O   UNL     1       1.104   3.980  17.267  0.00  0.00    +0.000 OA
BRANCH  13  16
ATOM     16  C   UNL     1       2.620   2.800  18.826  0.00  0.00    +0.000 A 
ATOM     17  C   UNL     1       3.129   1.936  17.855  0.00  0.00    +0.000 A 
ATOM     18  N   UNL     1       3.819   0.931  18.404  0.00  0.00    +0.000 NA
ATOM     19  O   UNL     1       3.775   1.162  19.772  0.00  0.00    +0.000 OA
ATOM     20  C   UNL     1       3.047   2.287  20.023  0.00  0.00    +0.000 A 
ATOM     21  C   UNL     1       2.919   2.681  21.438  0.00  0.00    +0.000 C 
ENDBRANCH  13  16
ENDBRANCH   7  13
BRANCH   1  22
ATOM     22  C   UNL     1       6.509   3.910  15.041  0.00  0.00    +0.000 C 
BRANCH  22  23
ATOM     23  C   UNL     1       5.463   4.053  13.946  0.00  0.00    +0.000 C 
BRANCH  23  25
ATOM     24  C   UNL     1       4.781   3.250  11.673  0.00  0.00    +0.000 C 
ATOM     25  C   UNL     1       5.936   3.399  12.647  0.00  0.00    +0.000 C 
ENDBRANCH  23  25
ENDBRANCH  22  23
ENDBRANCH   1  22
TORSDOF 5
ENDMDL
MODEL 5
REMARK VINA RESULT:      -6.9      1.101      1.170
REMARK  Name = 
REMARK  7 active torsions:
REMARK  status: ('A' for Active; 'I' for Inactive)
REMARK    1  A    between atoms: C_1  and  C_2
REMARK    2  A    between atoms: C_2  and  C_3
REMARK    3  A    between atoms: C_3  and  C_4
REMARK    4  A    between atoms: C_4  and  N_5
REMARK    5  A    between atoms: N_11  and  S_12
REMARK    6  A    between atoms: S_12  and  C_15
REMARK    7  A    between atoms: C_19  and  C_20
REMARK                            x       y       z     vdW  Elec       q    Type
REMARK                         _______ _______ _______ _____ _____    ______ ____
ROOT
ATOM      1  N   UNL     1       6.136   4.962  15.965  0.00  0.00    +0.000 N 
ATOM      2  C   UNL     1       5.203   6.073  15.789  0.00  0.00    +0.000 C 
ATOM      3  C   UNL     1       4.504   6.457  17.102  0.00  0.00    +0.000 C 
ATOM      4  C   UNL     1       3.669   7.741  16.928  0.00  0.00    +0.000 C 
ATOM      5  C   UNL     1       2.890   8.066  18.204  0.00  0.00    +0.000 C 
ATOM      6  C   UNL     1       2.041   6.892  18.695  0.00  0.00    +0.000 C 
ATOM      7  N   UNL     1       2.802   5.611  18.733  0.00  0.00    +0.000 NA
ATOM      8  C   UNL     1       3.526   5.326  17.460  0.00  0.00    +0.000 C 
ATOM      9  C   UNL     1       5.609   6.689  18.159  0.00  0.00    +0.000 C 
ATOM     10  C   UNL     1       6.564   5.519  18.296  0.00  0.00    +0.000 C 
ATOM     11  C   UNL     1       7.080   4.977  16.981  0.00  0.00    +0.000 C 
ATOM     12  O   UNL     1       8.168   4.413  16.910  0.00  0.00    +0.000 OA
ENDROOT
BRANCH   7  13
ATOM     13  S   UNL     1       1.846   4.248  19.177  0.00  0.00    +0.000 S 
ATOM     14  O   UNL     1       0.915   4.678  20.203  0.00  0.00    +0.000 OA
ATOM     15  O   UNL     1       1.391   3.601  17.970  0.00  0.00    +0.000 OA
BRANCH  13  16
ATOM     16  C   UNL     1       2.815   3.076  19.924  0.00  0.00    +0.000 A 
ATOM     17  C   UNL     1       2.908   2.833  21.295  0.00  0.00    +0.000 A 
ATOM     18  N   UNL     1       3.726   1.808  21.558  0.00  0.00    +0.000 NA
ATOM     19  O   UNL     1       4.158   1.357  20.320  0.00  0.00    +0.000 OA
ATOM     20  C   UNL     1       3.611   2.128  19.336  0.00  0.00    +0.000 A 
ATOM     21  C   UNL     1       3.961   1.766  17.950  0.00  0.00    +0.000 C 
ENDBRANCH  13  16
ENDBRANCH   7  13
BRANCH   1  22
ATOM     22  C   UNL     1       6.092   3.811  15.066  0.00  0.00    +0.000 C 
BRANCH  22  23
ATOM     23  C   UNL     1       5.208   4.006  13.843  0.00  0.00    +0.000 C 
BRANCH  23  25
ATOM     24  C   UNL     1       4.770   3.110  11.545  0.00  0.00    +0.000 C 
ATOM     25  C   UNL     1       5.827   3.347  12.610  0.00  0.00    +0.000 C 
ENDBRANCH  23  25
ENDBRANCH  22  23
ENDBRANCH   1  22
TORSDOF 5
ENDMDL
MODEL 6
REMARK VINA RESULT:      -6.7      2.885      5.942
REMARK  Name = 
REMARK  7 active torsions:
REMARK  status: ('A' for Active; 'I' for Inactive)
REMARK    1  A    between atoms: C_1  and  C_2
REMARK    2  A    between atoms: C_2  and  C_3
REMARK    3  A    between atoms: C_3  and  C_4
REMARK    4  A    between atoms: C_4  and  N_5
REMARK    5  A    between atoms: N_11  and  S_12
REMARK    6  A    between atoms: S_12  and  C_15
REMARK    7  A    between atoms: C_19  and  C_20
REMARK                            x       y       z     vdW  Elec       q    Type
REMARK                         _______ _______ _______ _____ _____    ______ ____
ROOT
ATOM      1  N   UNL     1       1.990   4.131  20.324  0.00  0.00    +0.000 N 
ATOM      2  C   UNL     1       2.150   5.583  20.260  0.00  0.00    +0.000 C 
ATOM      3  C   UNL     1       2.447   6.071  18.834  0.00  0.00    +0.000 C 
ATOM      4  C   UNL     1       2.428   7.612  18.763  0.00  0.00    +0.000 C 
ATOM      5  C   UNL     1       2.826   8.101  17.370  0.00  0.00    +0.000 C 
ATOM      6  C   UNL     1       4.160   7.522  16.897  0.00  0.00    +0.000 C 
ATOM      7  N   UNL     1       4.246   6.047  17.092  0.00  0.00    +0.000 NA
ATOM      8  C   UNL     1       3.871   5.620  18.471  0.00  0.00    +0.000 C 
ATOM      9  C   UNL     1       1.349   5.490  17.912  0.00  0.00    +0.000 C 
ATOM     10  C   UNL     1       1.208   3.984  18.024  0.00  0.00    +0.000 C 
ATOM     11  C   UNL     1       1.150   3.466  19.444  0.00  0.00    +0.000 C 
ATOM     12  O   UNL     1       0.570   2.419  19.714  0.00  0.00    +0.000 OA
ENDROOT
BRANCH   7  13
ATOM     13  S   UNL     1       5.777   5.378  16.671  0.00  0.00    +0.000 S 
ATOM     14  O   UNL     1       5.633   3.936  16.633  0.00  0.00    +0.000 OA
ATOM     15  O   UNL     1       6.298   6.114  15.544  0.00  0.00    +0.000 OA
BRANCH  13  16
ATOM     16  C   UNL     1       6.901   5.677  17.903  0.00  0.00    +0.000 A 
ATOM     17  C   UNL     1       7.351   4.757  18.852  0.00  0.00    +0.000 A 
ATOM     18  N   UNL     1       8.273   5.292  19.657  0.00  0.00    +0.000 NA
ATOM     19  O   UNL     1       8.446   6.592  19.203  0.00  0.00    +0.000 OA
ATOM     20  C   UNL     1       7.613   6.822  18.148  0.00  0.00    +0.000 A 
ATOM     21  C   UNL     1       7.687   8.161  17.536  0.00  0.00    +0.000 C 
ENDBRANCH  13  16
ENDBRANCH   7  13
BRANCH   1  22
ATOM     22  C   UNL     1       2.717   3.353  21.324  0.00  0.00    +0.000 C 
BRANCH  22  23
ATOM     23  C   UNL     1       3.314   2.058  20.795  0.00  0.00    +0.000 C 
BRANCH  23  25
ATOM     24  C   UNL     1       3.899   1.487  18.427  0.00  0.00    +0.000 C 
ATOM     25  C   UNL     1       4.272   2.329  19.635  0.00  0.00    +0.000 C 
ENDBRANCH  23  25
ENDBRANCH  22  23
ENDBRANCH   1  22
TORSDOF 5
ENDMDL
MODEL 7
REMARK VINA RESULT:      -6.5      2.901      6.142
REMARK  Name = 
REMARK  7 active torsions:
REMARK  status: ('A' for Active; 'I' for Inactive)
REMARK    1  A    between atoms: C_1  and  C_2
REMARK    2  A    between atoms: C_2  and  C_3
REMARK    3  A    between atoms: C_3  and  C_4
REMARK    4  A    between atoms: C_4  and  N_5
REMARK    5  A    between atoms: N_11  and  S_12
REMARK    6  A    between atoms: S_12  and  C_15
REMARK    7  A    between atoms: C_19  and  C_20
REMARK                            x       y       z     vdW  Elec       q    Type
REMARK                         _______ _______ _______ _____ _____    ______ ____
ROOT
ATOM      1  N   UNL     1       2.429   3.314  20.267  0.00  0.00    +0.000 N 
ATOM      2  C   UNL     1       2.416   4.763  20.457  0.00  0.00    +0.000 C 
ATOM      3  C   UNL     1       2.507   5.524  19.124  0.00  0.00    +0.000 C 
ATOM      4  C   UNL     1       2.307   7.038  19.339  0.00  0.00    +0.000 C 
ATOM      5  C   UNL     1       2.500   7.806  18.030  0.00  0.00    +0.000 C 
ATOM      6  C   UNL     1       3.835   7.494  17.351  0.00  0.00    +0.000 C 
ATOM      7  N   UNL     1       4.105   6.031  17.265  0.00  0.00    +0.000 NA
ATOM      8  C   UNL     1       3.926   5.328  18.569  0.00  0.00    +0.000 C 
ATOM      9  C   UNL     1       1.391   4.973  18.205  0.00  0.00    +0.000 C 
ATOM     10  C   UNL     1       1.432   3.464  18.051  0.00  0.00    +0.000 C 
ATOM     11  C   UNL     1       1.581   2.707  19.352  0.00  0.00    +0.000 C 
ATOM     12  O   UNL     1       1.154   1.563  19.473  0.00  0.00    +0.000 OA
ENDROOT
BRANCH   7  13
ATOM     13  S   UNL     1       5.649   5.648  16.604  0.00  0.00    +0.000 S 
ATOM     14  O   UNL     1       5.652   4.234  16.278  0.00  0.00    +0.000 OA
ATOM     15  O   UNL     1       5.981   6.649  15.619  0.00  0.00    +0.000 OA
BRANCH  13  16
ATOM     16  C   UNL     1       6.850   5.830  17.785  0.00  0.00    +0.000 A 
ATOM     17  C   UNL     1       7.340   4.830  18.626  0.00  0.00    +0.000 A 
ATOM     18  N   UNL     1       8.318   5.286  19.415  0.00  0.00    +0.000 NA
ATOM     19  O   UNL     1       8.484   6.617  19.060  0.00  0.00    +0.000 OA
ATOM     20  C   UNL     1       7.594   6.943  18.080  0.00  0.00    +0.000 A 
ATOM     21  C   UNL     1       7.653   8.327  17.576  0.00  0.00    +0.000 C 
ENDBRANCH  13  16
ENDBRANCH   7  13
BRANCH   1  22
ATOM     22  C   UNL     1       3.338   2.476  21.044  0.00  0.00    +0.000 C 
BRANCH  22  23
ATOM     23  C   UNL     1       4.664   2.187  20.357  0.00  0.00    +0.000 C 
BRANCH  23  25
ATOM     24  C   UNL     1       5.820   0.597  21.910  0.00  0.00    +0.000 C 
ATOM     25  C   UNL     1       5.094   0.738  20.583  0.00  0.00    +0.000 C 
ENDBRANCH  23  25
ENDBRANCH  22  23
ENDBRANCH   1  22
TORSDOF 5
ENDMDL
MODEL 8
REMARK VINA RESULT:      -6.5      0.992      1.287
REMARK  Name = 
REMARK  7 active torsions:
REMARK  status: ('A' for Active; 'I' for Inactive)
REMARK    1  A    between atoms: C_1  and  C_2
REMARK    2  A    between atoms: C_2  and  C_3
REMARK    3  A    between atoms: C_3  and  C_4
REMARK    4  A    between atoms: C_4  and  N_5
REMARK    5  A    between atoms: N_11  and  S_12
REMARK    6  A    between atoms: S_12  and  C_15
REMARK    7  A    between atoms: C_19  and  C_20
REMARK                            x       y       z     vdW  Elec       q    Type
REMARK                         _______ _______ _______ _____ _____    ______ ____
ROOT
ATOM      1  N   UNL     1       6.883   4.860  16.039  0.00  0.00    +0.000 N 
ATOM      2  C   UNL     1       6.005   6.002  15.792  0.00  0.00    +0.000 C 
ATOM      3  C   UNL     1       5.026   6.242  16.951  0.00  0.00    +0.000 C 
ATOM      4  C   UNL     1       4.242   7.555  16.748  0.00  0.00    +0.000 C 
ATOM      5  C   UNL     1       3.194   7.742  17.846  0.00  0.00    +0.000 C 
ATOM      6  C   UNL     1       2.265   6.536  17.992  0.00  0.00    +0.000 C 
ATOM      7  N   UNL     1       3.008   5.245  18.048  0.00  0.00    +0.000 NA
ATOM      8  C   UNL     1       4.001   5.097  16.945  0.00  0.00    +0.000 C 
ATOM      9  C   UNL     1       5.864   6.328  18.249  0.00  0.00    +0.000 C 
ATOM     10  C   UNL     1       6.773   5.131  18.456  0.00  0.00    +0.000 C 
ATOM     11  C   UNL     1       7.575   4.738  17.235  0.00  0.00    +0.000 C 
ATOM     12  O   UNL     1       8.655   4.164  17.344  0.00  0.00    +0.000 OA
ENDROOT
BRANCH   7  13
ATOM     13  S   UNL     1       1.987   3.858  18.102  0.00  0.00    +0.000 S 
ATOM     14  O   UNL     1       0.674   4.258  17.631  0.00  0.00    +0.000 OA
ATOM     15  O   UNL     1       2.695   2.750  17.508  0.00  0.00    +0.000 OA
BRANCH  13  16
ATOM     16  C   UNL     1       1.750   3.372  19.708  0.00  0.00    +0.000 A 
ATOM     17  C   UNL     1       1.768   2.061  20.185  0.00  0.00    +0.000 A 
ATOM     18  N   UNL     1       1.594   2.017  21.510  0.00  0.00    +0.000 NA
ATOM     19  O   UNL     1       1.484   3.341  21.908  0.00  0.00    +0.000 OA
ATOM     20  C   UNL     1       1.573   4.156  20.818  0.00  0.00    +0.000 A 
ATOM     21  C   UNL     1       1.490   5.605  21.075  0.00  0.00    +0.000 C 
ENDBRANCH  13  16
ENDBRANCH   7  13
BRANCH   1  22
ATOM     22  C   UNL     1       7.050   3.824  15.024  0.00  0.00    +0.000 C 
BRANCH  22  23
ATOM     23  C   UNL     1       5.867   3.676  14.080  0.00  0.00    +0.000 C 
BRANCH  23  25
ATOM     24  C   UNL     1       5.307   2.904  11.764  0.00  0.00    +0.000 C 
ATOM     25  C   UNL     1       6.330   3.623  12.624  0.00  0.00    +0.000 C 
ENDBRANCH  23  25
ENDBRANCH  22  23
ENDBRANCH   1  22
TORSDOF 5
ENDMDL
MODEL 9
REMARK VINA RESULT:      -6.5      2.993      6.285
REMARK  Name = 
REMARK  7 active torsions:
REMARK  status: ('A' for Active; 'I' for Inactive)
REMARK    1  A    between atoms: C_1  and  C_2
REMARK    2  A    between atoms: C_2  and  C_3
REMARK    3  A    between atoms: C_3  and  C_4
REMARK    4  A    between atoms: C_4  and  N_5
REMARK    5  A    between atoms: N_11  and  S_12
REMARK    6  A    between atoms: S_12  and  C_15
REMARK    7  A    between atoms: C_19  and  C_20
REMARK                            x       y       z     vdW  Elec       q    Type
REMARK                         _______ _______ _______ _____ _____    ______ ____
ROOT
ATOM      1  N   UNL     1       2.541   3.344  20.137  0.00  0.00    +0.000 N 
ATOM      2  C   UNL     1       2.476   4.794  20.301  0.00  0.00    +0.000 C 
ATOM      3  C   UNL     1       2.653   5.538  18.968  0.00  0.00    +0.000 C 
ATOM      4  C   UNL     1       2.397   7.049  19.141  0.00  0.00    +0.000 C 
ATOM      5  C   UNL     1       2.675   7.804  17.840  0.00  0.00    +0.000 C 
ATOM      6  C   UNL     1       4.068   7.519  17.276  0.00  0.00    +0.000 C 
ATOM      7  N   UNL     1       4.384   6.063  17.236  0.00  0.00    +0.000 NA
ATOM      8  C   UNL     1       4.118   5.374  18.533  0.00  0.00    +0.000 C 
ATOM      9  C   UNL     1       1.631   4.943  17.971  0.00  0.00    +0.000 C 
ATOM     10  C   UNL     1       1.724   3.434  17.845  0.00  0.00    +0.000 C 
ATOM     11  C   UNL     1       1.787   2.701  19.167  0.00  0.00    +0.000 C 
ATOM     12  O   UNL     1       1.382   1.547  19.271  0.00  0.00    +0.000 OA
ENDROOT
BRANCH   7  13
ATOM     13  S   UNL     1       5.986   5.714  16.708  0.00  0.00    +0.000 S 
ATOM     14  O   UNL     1       6.315   4.372  17.152  0.00  0.00    +0.000 OA
ATOM     15  O   UNL     1       6.100   6.098  15.322  0.00  0.00    +0.000 OA
BRANCH  13  16
ATOM     16  C   UNL     1       7.093   6.724  17.499  0.00  0.00    +0.000 A 
ATOM     17  C   UNL     1       7.419   8.033  17.140  0.00  0.00    +0.000 A 
ATOM     18  N   UNL     1       8.293   8.574  17.996  0.00  0.00    +0.000 NA
ATOM     19  O   UNL     1       8.522   7.595  18.952  0.00  0.00    +0.000 OA
ATOM     20  C   UNL     1       7.801   6.479  18.647  0.00  0.00    +0.000 A 
ATOM     21  C   UNL     1       7.923   5.345  19.581  0.00  0.00    +0.000 C 
ENDBRANCH  13  16
ENDBRANCH   7  13
BRANCH   1  22
ATOM     22  C   UNL     1       3.406   2.542  20.998  0.00  0.00    +0.000 C 
BRANCH  22  23
ATOM     23  C   UNL     1       4.750   2.188  20.380  0.00  0.00    +0.000 C 
BRANCH  23  25
ATOM     24  C   UNL     1       5.834   0.507  21.888  0.00  0.00    +0.000 C 
ATOM     25  C   UNL     1       5.076   0.708  20.588  0.00  0.00    +0.000 C 
ENDBRANCH  23  25
ENDBRANCH  22  23
ENDBRANCH   1  22
TORSDOF 5
ENDMDL
