MODEL 1
REMARK VINA RESULT:      -8.1      0.000      0.000
REMARK  Name = 
REMARK  6 active torsions:
REMARK  status: ('A' for Active; 'I' for Inactive)
REMARK    1  A    between atoms: C_1  and  N_2
REMARK    2  A    between atoms: N_2  and  C_3
REMARK    3  A    between atoms: C_7  and  C_8
REMARK    4  A    between atoms: C_8  and  N_9
REMARK    5  A    between atoms: C_12  and  N_13
REMARK    6  A    between atoms: C_15  and  C_16
REMARK                            x       y       z     vdW  Elec       q    Type
REMARK                         _______ _______ _______ _____ _____    ______ ____
ROOT
ATOM      1  N   UNL     1       4.296   4.600  18.502  0.00  0.00    +0.000 NA
ATOM      2  C   UNL     1       5.274   5.593  18.967  0.00  0.00    +0.000 C 
ATOM      3  C   UNL     1       6.234   5.832  17.818  0.00  0.00    +0.000 C 
ATOM      4  C   UNL     1       6.303   4.487  17.103  0.00  0.00    +0.000 C 
ATOM      5  C   UNL     1       4.996   3.780  17.486  0.00  0.00    +0.000 C 
ENDROOT
BRANCH   4   6
ATOM      6  N   UNL     1       6.535   4.641  15.682  0.00  0.00    +0.000 N 
ATOM      7  C   UNL     1       5.954   3.943  14.659  0.00  0.00    +0.000 A 
ATOM      8  C   UNL     1       6.678   4.325  13.555  0.00  0.00    +0.000 A 
ATOM      9  N   UNL     1       7.618   5.246  13.918  0.00  0.00    +0.000 NA
ATOM     10  N   UNL     1       7.527   5.431  15.227  0.00  0.00    +0.000 NA
BRANCH   8  11
ATOM     11  C   UNL     1       6.509   3.774  12.154  0.00  0.00    +0.000 C 
ATOM     12  C   UNL     1       6.138   2.315  11.978  0.00  0.00    +0.000 C 
ATOM     13  C   UNL     1       5.109   3.362  11.736  0.00  0.00    +0.000 C 
ENDBRANCH   8  11
ENDBRANCH   4   6
BRANCH   1  14
ATOM     14  C   UNL     1       3.068   5.219  17.958  0.00  0.00    +0.000 C 
BRANCH  14  21
ATOM     15  C   UNL     1      -0.187   9.065  22.173  0.00  0.00    +0.000 C 
ATOM     16  N   UNL     1       0.883   9.379  21.232  0.00  0.00    +0.000 N 
ATOM     17  C   UNL     1       0.829  10.699  20.608  0.00  0.00    +0.000 C 
ATOM     18  C   UNL     1       1.394   8.349  20.432  0.00  0.00    +0.000 A 
ATOM     19  C   UNL     1       1.507   7.050  20.922  0.00  0.00    +0.000 A 
ATOM     20  C   UNL     1       2.057   6.029  20.138  0.00  0.00    +0.000 A 
ATOM     21  C   UNL     1       2.502   6.305  18.847  0.00  0.00    +0.000 A 
ATOM     22  C   UNL     1       2.352   7.618  18.427  0.00  0.00    +0.000 A 
ATOM     23  N   UNL     1       1.827   8.625  19.180  0.00  0.00    +0.000 NA
ENDBRANCH  14  21
ENDBRANCH   1  14
TORSDOF 4
ENDMDL
MODEL 2
REMARK VINA RESULT:      -7.7      0.807      1.381
REMARK  Name = 
REMARK  6 active torsions:
REMARK  status: ('A' for Active; 'I' for Inactive)
REMARK    1  A    between atoms: C_1  and  N_2
REMARK    2  A    between atoms: N_2  and  C_3
REMARK    3  A    between atoms: C_7  and  C_8
REMARK    4  A    between atoms: C_8  and  N_9
REMARK    5  A    between atoms: C_12  and  N_13
REMARK    6  A    between atoms: C_15  and  C_16
REMARK                            x       y       z     vdW  Elec       q    Type
REMARK                         _______ _______ _______ _____ _____    ______ ____
ROOT
ATOM      1  N   UNL     1       4.713   5.197  18.094  0.00  0.00    +0.000 NA
ATOM      2  C   UNL     1       5.619   6.338  18.281  0.00  0.00    +0.000 C 
ATOM      3  C   UNL     1       6.473   6.428  17.031  0.00  0.00    +0.000 C 
ATOM      4  C   UNL     1       6.623   4.981  16.577  0.00  0.00    +0.000 C 
ATOM      5  C   UNL     1       5.419   4.256  17.195  0.00  0.00    +0.000 C 
ENDROOT
BRANCH   4   6
ATOM      6  N   UNL     1       6.744   4.874  15.138  0.00  0.00    +0.000 N 
ATOM      7  C   UNL     1       6.053   4.042  14.299  0.00  0.00    +0.000 A 
ATOM      8  C   UNL     1       6.698   4.189  13.095  0.00  0.00    +0.000 A 
ATOM      9  N   UNL     1       7.701   5.108  13.219  0.00  0.00    +0.000 NA
ATOM     10  N   UNL     1       7.725   5.520  14.479  0.00  0.00    +0.000 NA
BRANCH   8  11
ATOM     11  C   UNL     1       6.393   3.415  11.829  0.00  0.00    +0.000 C 
ATOM     12  C   UNL     1       5.726   2.058  11.941  0.00  0.00    +0.000 C 
ATOM     13  C   UNL     1       4.930   3.224  11.470  0.00  0.00    +0.000 C 
ENDBRANCH   8  11
ENDBRANCH   4   6
BRANCH   1  14
ATOM     14  C   UNL     1       3.397   5.595  17.549  0.00  0.00    +0.000 C 
BRANCH  14  21
ATOM     15  C   UNL     1       1.055  10.946  20.557  0.00  0.00    +0.000 C 
ATOM     16  N   UNL     1       0.804   9.530  20.805  0.00  0.00    +0.000 N 
ATOM     17  C   UNL     1       0.593   9.145  22.198  0.00  0.00    +0.000 C 
ATOM     18  C   UNL     1       1.459   8.585  20.005  0.00  0.00    +0.000 A 
ATOM     19  C   UNL     1       1.704   8.834  18.656  0.00  0.00    +0.000 A 
ATOM     20  C   UNL     1       2.319   7.872  17.846  0.00  0.00    +0.000 A 
ATOM     21  C   UNL     1       2.696   6.644  18.386  0.00  0.00    +0.000 A 
ATOM     22  C   UNL     1       2.425   6.471  19.735  0.00  0.00    +0.000 A 
ATOM     23  N   UNL     1       1.819   7.392  20.535  0.00  0.00    +0.000 NA
ENDBRANCH  14  21
ENDBRANCH   1  14
TORSDOF 4
ENDMDL
MODEL 3
REMARK VINA RESULT:      -7.6      0.929      1.547
REMARK  Name = 
REMARK  6 active torsions:
REMARK  status: ('A' for Active; 'I' for Inactive)
REMARK    1  A    between atoms: C_1  and  N_2
REMARK    2  A    between atoms: N_2  and  C_3
REMARK    3  A    between atoms: C_7  and  C_8
REMARK    4  A    between atoms: C_8  and  N_9
REMARK    5  A    between atoms: C_12  and  N_13
REMARK    6  A    between atoms: C_15  and  C_16
REMARK                            x       y       z     vdW  Elec       q    Type
REMARK                         _______ _______ _______ _____ _____    ______ ____
ROOT
ATOM      1  N   UNL     1       3.826   5.816  18.276  0.00  0.00    +0.000 NA
ATOM      2  C   UNL     1       5.107   6.019  18.967  0.00  0.00    +0.000 C 
ATOM      3  C   UNL     1       6.199   5.722  17.956  0.00  0.00    +0.000 C 
ATOM      4  C   UNL     1       5.601   4.639  17.067  0.00  0.00    +0.000 C 
ATOM      5  C   UNL     1       4.082   4.807  17.223  0.00  0.00    +0.000 C 
ENDROOT
BRANCH   4   6
ATOM      6  N   UNL     1       6.100   4.716  15.710  0.00  0.00    +0.000 N 
ATOM      7  C   UNL     1       5.592   4.105  14.595  0.00  0.00    +0.000 A 
ATOM      8  C   UNL     1       6.553   4.329  13.638  0.00  0.00    +0.000 A 
ATOM      9  N   UNL     1       7.562   5.082  14.167  0.00  0.00    +0.000 NA
ATOM     10  N   UNL     1       7.278   5.311  15.442  0.00  0.00    +0.000 NA
BRANCH   8  11
ATOM     11  C   UNL     1       6.537   3.783  12.225  0.00  0.00    +0.000 C 
ATOM     12  C   UNL     1       6.217   2.317  12.008  0.00  0.00    +0.000 C 
ATOM     13  C   UNL     1       5.194   3.344  11.668  0.00  0.00    +0.000 C 
ENDBRANCH   8  11
ENDBRANCH   4   6
BRANCH   1  14
ATOM     14  C   UNL     1       3.275   7.069  17.715  0.00  0.00    +0.000 C 
BRANCH  14  21
ATOM     15  C   UNL     1      -0.067  11.300  21.468  0.00  0.00    +0.000 C 
ATOM     16  N   UNL     1      -0.064   9.841  21.452  0.00  0.00    +0.000 N 
ATOM     17  C   UNL     1      -0.237   9.180  22.743  0.00  0.00    +0.000 C 
ATOM     18  C   UNL     1       0.770   9.184  20.538  0.00  0.00    +0.000 A 
ATOM     19  C   UNL     1       0.999   9.711  19.270  0.00  0.00    +0.000 A 
ATOM     20  C   UNL     1       1.798   9.033  18.341  0.00  0.00    +0.000 A 
ATOM     21  C   UNL     1       2.377   7.811  18.680  0.00  0.00    +0.000 A 
ATOM     22  C   UNL     1       2.107   7.353  19.961  0.00  0.00    +0.000 A 
ATOM     23  N   UNL     1       1.325   7.995  20.873  0.00  0.00    +0.000 NA
ENDBRANCH  14  21
ENDBRANCH   1  14
TORSDOF 4
ENDMDL
MODEL 4
REMARK VINA RESULT:      -6.8      1.864      3.493
REMARK  Name = 
REMARK  6 active torsions:
REMARK  status: ('A' for Active; 'I' for Inactive)
REMARK    1  A    between atoms: C_1  and  N_2
REMARK    2  A    between atoms: N_2  and  C_3
REMARK    3  A    between atoms: C_7  and  C_8
REMARK    4  A    between atoms: C_8  and  N_9
REMARK    5  A    between atoms: C_12  and  N_13
REMARK    6  A    between atoms: C_15  and  C_16
REMARK                            x       y       z     vdW  Elec       q    Type
REMARK                         _______ _______ _______ _____ _____    ______ ____
ROOT
ATOM      1  N   UNL     1       1.680   6.015  19.834  0.00  0.00    +0.000 NA
ATOM      2  C   UNL     1       2.059   4.927  20.745  0.00  0.00    +0.000 C 
ATOM      3  C   UNL     1       3.255   4.233  20.122  0.00  0.00    +0.000 C 
ATOM      4  C   UNL     1       3.024   4.366  18.621  0.00  0.00    +0.000 C 
ATOM      5  C   UNL     1       2.097   5.582  18.481  0.00  0.00    +0.000 C 
ENDROOT
BRANCH   4   6
ATOM      6  N   UNL     1       4.270   4.444  17.887  0.00  0.00    +0.000 N 
ATOM      7  C   UNL     1       4.489   4.130  16.574  0.00  0.00    +0.000 A 
ATOM      8  C   UNL     1       5.857   4.172  16.454  0.00  0.00    +0.000 A 
ATOM      9  N   UNL     1       6.411   4.543  17.646  0.00  0.00    +0.000 NA
ATOM     10  N   UNL     1       5.429   4.703  18.522  0.00  0.00    +0.000 NA
BRANCH   8  11
ATOM     11  C   UNL     1       6.648   3.811  15.214  0.00  0.00    +0.000 C 
ATOM     12  C   UNL     1       5.991   3.959  13.855  0.00  0.00    +0.000 C 
ATOM     13  C   UNL     1       7.023   4.945  14.277  0.00  0.00    +0.000 C 
ENDBRANCH   8  11
ENDBRANCH   4   6
BRANCH   1  14
ATOM     14  C   UNL     1       2.287   7.311  20.208  0.00  0.00    +0.000 C 
BRANCH  14  21
ATOM     15  C   UNL     1      -0.687  12.910  18.487  0.00  0.00    +0.000 C 
ATOM     16  N   UNL     1      -1.143  11.814  19.336  0.00  0.00    +0.000 N 
ATOM     17  C   UNL     1      -1.989  12.182  20.469  0.00  0.00    +0.000 C 
ATOM     18  C   UNL     1      -0.283  10.729  19.545  0.00  0.00    +0.000 A 
ATOM     19  C   UNL     1       0.561  10.277  18.533  0.00  0.00    +0.000 A 
ATOM     20  C   UNL     1       1.389   9.165  18.729  0.00  0.00    +0.000 A 
ATOM     21  C   UNL     1       1.378   8.493  19.949  0.00  0.00    +0.000 A 
ATOM     22  C   UNL     1       0.517   9.004  20.909  0.00  0.00    +0.000 A 
ATOM     23  N   UNL     1      -0.302  10.078  20.732  0.00  0.00    +0.000 NA
ENDBRANCH  14  21
ENDBRANCH   1  14
TORSDOF 4
ENDMDL
MODEL 5
REMARK VINA RESULT:      -6.7      2.677      3.907
REMARK  Name = 
REMARK  6 active torsions:
REMARK  status: ('A' for Active; 'I' for Inactive)
REMARK    1  A    between atoms: C_1  and  N_2
REMARK    2  A    between atoms: N_2  and  C_3
REMARK    3  A    between atoms: C_7  and  C_8
REMARK    4  A    between atoms: C_8  and  N_9
REMARK    5  A    between atoms: C_12  and  N_13
REMARK    6  A    between atoms: C_15  and  C_16
REMARK                            x       y       z     vdW  Elec       q    Type
REMARK                         _______ _______ _______ _____ _____    ______ ____
ROOT
ATOM      1  N   UNL     1       1.419   4.228  19.798  0.00  0.00    +0.000 NA
ATOM      2  C   UNL     1       1.758   2.830  20.098  0.00  0.00    +0.000 C 
ATOM      3  C   UNL     1       3.044   2.524  19.355  0.00  0.00    +0.000 C 
ATOM      4  C   UNL     1       2.960   3.377  18.096  0.00  0.00    +0.000 C 
ATOM      5  C   UNL     1       1.992   4.511  18.462  0.00  0.00    +0.000 C 
ENDROOT
BRANCH   4   6
ATOM      6  N   UNL     1       4.268   3.798  17.639  0.00  0.00    +0.000 N 
ATOM      7  C   UNL     1       5.369   4.082  18.400  0.00  0.00    +0.000 A 
ATOM      8  C   UNL     1       6.251   4.632  17.501  0.00  0.00    +0.000 A 
ATOM      9  N   UNL     1       5.698   4.626  16.253  0.00  0.00    +0.000 NA
ATOM     10  N   UNL     1       4.478   4.117  16.347  0.00  0.00    +0.000 NA
BRANCH   8  11
ATOM     11  C   UNL     1       7.609   5.213  17.837  0.00  0.00    +0.000 C 
ATOM     12  C   UNL     1       7.769   6.719  17.899  0.00  0.00    +0.000 C 
ATOM     13  C   UNL     1       7.743   5.937  19.165  0.00  0.00    +0.000 C 
ENDBRANCH   8  11
ENDBRANCH   4   6
BRANCH   1  14
ATOM     14  C   UNL     1       1.919   5.170  20.822  0.00  0.00    +0.000 C 
BRANCH  14  21
ATOM     15  C   UNL     1      -0.001  11.324  19.556  0.00  0.00    +0.000 C 
ATOM     16  N   UNL     1       1.250  10.637  19.250  0.00  0.00    +0.000 N 
ATOM     17  C   UNL     1       1.904  11.010  17.999  0.00  0.00    +0.000 C 
ATOM     18  C   UNL     1       1.387   9.297  19.633  0.00  0.00    +0.000 A 
ATOM     19  C   UNL     1       0.818   8.827  20.814  0.00  0.00    +0.000 A 
ATOM     20  C   UNL     1       0.992   7.497  21.218  0.00  0.00    +0.000 A 
ATOM     21  C   UNL     1       1.742   6.623  20.435  0.00  0.00    +0.000 A 
ATOM     22  C   UNL     1       2.271   7.161  19.271  0.00  0.00    +0.000 A 
ATOM     23  N   UNL     1       2.120   8.454  18.869  0.00  0.00    +0.000 NA
ENDBRANCH  14  21
ENDBRANCH   1  14
TORSDOF 4
ENDMDL
MODEL 6
REMARK VINA RESULT:      -6.7      2.721      4.810
REMARK  Name = 
REMARK  6 active torsions:
REMARK  status: ('A' for Active; 'I' for Inactive)
REMARK    1  A    between atoms: C_1  and  N_2
REMARK    2  A    between atoms: N_2  and  C_3
REMARK    3  A    between atoms: C_7  and  C_8
REMARK    4  A    between atoms: C_8  and  N_9
REMARK    5  A    between atoms: C_12  and  N_13
REMARK    6  A    between atoms: C_15  and  C_16
REMARK                            x       y       z     vdW  Elec       q    Type
REMARK                         _______ _______ _______ _____ _____    ______ ____
ROOT
ATOM      1  N   UNL     1       4.469   7.308  17.159  0.00  0.00    +0.000 NA
ATOM      2  C   UNL     1       5.060   6.534  16.059  0.00  0.00    +0.000 C 
ATOM      3  C   UNL     1       5.078   5.084  16.506  0.00  0.00    +0.000 C 
ATOM      4  C   UNL     1       5.279   5.161  18.014  0.00  0.00    +0.000 C 
ATOM      5  C   UNL     1       4.778   6.561  18.399  0.00  0.00    +0.000 C 
ENDROOT
BRANCH   4   6
ATOM      6  N   UNL     1       4.640   4.060  18.703  0.00  0.00    +0.000 N 
ATOM      7  C   UNL     1       3.299   3.812  18.821  0.00  0.00    +0.000 A 
ATOM      8  C   UNL     1       3.239   2.790  19.737  0.00  0.00    +0.000 A 
ATOM      9  N   UNL     1       4.503   2.427  20.105  0.00  0.00    +0.000 NA
ATOM     10  N   UNL     1       5.358   3.215  19.468  0.00  0.00    +0.000 NA
BRANCH   8  11
ATOM     11  C   UNL     1       1.971   2.186  20.306  0.00  0.00    +0.000 C 
ATOM     12  C   UNL     1       1.558   2.543  21.721  0.00  0.00    +0.000 C 
ATOM     13  C   UNL     1       0.814   3.132  20.574  0.00  0.00    +0.000 C 
ENDBRANCH   8  11
ENDBRANCH   4   6
BRANCH   1  14
ATOM     14  C   UNL     1       3.015   7.519  16.993  0.00  0.00    +0.000 C 
BRANCH  14  21
ATOM     15  C   UNL     1      -0.324   9.181  22.401  0.00  0.00    +0.000 C 
ATOM     16  N   UNL     1       0.477   9.994  21.491  0.00  0.00    +0.000 N 
ATOM     17  C   UNL     1       0.016  11.363  21.272  0.00  0.00    +0.000 C 
ATOM     18  C   UNL     1       1.078   9.370  20.391  0.00  0.00    +0.000 A 
ATOM     19  C   UNL     1       1.568   8.070  20.483  0.00  0.00    +0.000 A 
ATOM     20  C   UNL     1       2.208   7.462  19.396  0.00  0.00    +0.000 A 
ATOM     21  C   UNL     1       2.362   8.158  18.199  0.00  0.00    +0.000 A 
ATOM     22  C   UNL     1       1.844   9.445  18.181  0.00  0.00    +0.000 A 
ATOM     23  N   UNL     1       1.227  10.054  19.232  0.00  0.00    +0.000 NA
ENDBRANCH  14  21
ENDBRANCH   1  14
TORSDOF 4
ENDMDL
MODEL 7
REMARK VINA RESULT:      -6.6      1.956      3.668
REMARK  Name = 
REMARK  6 active torsions:
REMARK  status: ('A' for Active; 'I' for Inactive)
REMARK    1  A    between atoms: C_1  and  N_2
REMARK    2  A    between atoms: N_2  and  C_3
REMARK    3  A    between atoms: C_7  and  C_8
REMARK    4  A    between atoms: C_8  and  N_9
REMARK    5  A    between atoms: C_12  and  N_13
REMARK    6  A    between atoms: C_15  and  C_16
REMARK                            x       y       z     vdW  Elec       q    Type
REMARK                         _______ _______ _______ _____ _____    ______ ____
ROOT
ATOM      1  N   UNL     1       1.591   6.225  19.950  0.00  0.00    +0.000 NA
ATOM      2  C   UNL     1       1.766   5.036  20.795  0.00  0.00    +0.000 C 
ATOM      3  C   UNL     1       2.944   4.266  20.227  0.00  0.00    +0.000 C 
ATOM      4  C   UNL     1       2.879   4.537  18.729  0.00  0.00    +0.000 C 
ATOM      5  C   UNL     1       2.097   5.853  18.608  0.00  0.00    +0.000 C 
ENDROOT
BRANCH   4   6
ATOM      6  N   UNL     1       4.194   4.537  18.122  0.00  0.00    +0.000 N 
ATOM      7  C   UNL     1       4.505   4.365  16.800  0.00  0.00    +0.000 A 
ATOM      8  C   UNL     1       5.873   4.234  16.805  0.00  0.00    +0.000 A 
ATOM      9  N   UNL     1       6.344   4.369  18.080  0.00  0.00    +0.000 NA
ATOM     10  N   UNL     1       5.305   4.550  18.883  0.00  0.00    +0.000 NA
BRANCH   8  11
ATOM     11  C   UNL     1       6.736   3.929  15.597  0.00  0.00    +0.000 C 
ATOM     12  C   UNL     1       6.107   3.962  14.218  0.00  0.00    +0.000 C 
ATOM     13  C   UNL     1       7.008   5.071  14.635  0.00  0.00    +0.000 C 
ENDBRANCH   8  11
ENDBRANCH   4   6
BRANCH   1  14
ATOM     14  C   UNL     1       2.284   7.415  20.487  0.00  0.00    +0.000 C 
BRANCH  14  21
ATOM     15  C   UNL     1      -1.246  12.952  20.680  0.00  0.00    +0.000 C 
ATOM     16  N   UNL     1      -1.182  11.834  21.615  0.00  0.00    +0.000 N 
ATOM     17  C   UNL     1      -1.330  12.165  23.030  0.00  0.00    +0.000 C 
ATOM     18  C   UNL     1      -0.318  10.770  21.325  0.00  0.00    +0.000 A 
ATOM     19  C   UNL     1      -0.107  10.354  20.012  0.00  0.00    +0.000 A 
ATOM     20  C   UNL     1       0.722   9.263  19.727  0.00  0.00    +0.000 A 
ATOM     21  C   UNL     1       1.351   8.576  20.762  0.00  0.00    +0.000 A 
ATOM     22  C   UNL     1       1.098   9.051  22.041  0.00  0.00    +0.000 A 
ATOM     23  N   UNL     1       0.287  10.104  22.337  0.00  0.00    +0.000 NA
ENDBRANCH  14  21
ENDBRANCH   1  14
TORSDOF 4
ENDMDL
MODEL 8
REMARK VINA RESULT:      -6.6      3.356      4.809
REMARK  Name = 
REMARK  6 active torsions:
REMARK  status: ('A' for Active; 'I' for Inactive)
REMARK    1  A    between atoms: C_1  and  N_2
REMARK    2  A    between atoms: N_2  and  C_3
REMARK    3  A    between atoms: C_7  and  C_8
REMARK    4  A    between atoms: C_8  and  N_9
REMARK    5  A    between atoms: C_12  and  N_13
REMARK    6  A    between atoms: C_15  and  C_16
REMARK                            x       y       z     vdW  Elec       q    Type
REMARK                         _______ _______ _______ _____ _____    ______ ____
ROOT
ATOM      1  N   UNL     1       1.495   6.547  20.225  0.00  0.00    +0.000 NA
ATOM      2  C   UNL     1       1.439   5.218  20.849  0.00  0.00    +0.000 C 
ATOM      3  C   UNL     1       2.747   4.525  20.517  0.00  0.00    +0.000 C 
ATOM      4  C   UNL     1       3.119   5.067  19.142  0.00  0.00    +0.000 C 
ATOM      5  C   UNL     1       2.379   6.409  19.044  0.00  0.00    +0.000 C 
ENDROOT
BRANCH   4   6
ATOM      6  N   UNL     1       4.553   5.132  18.956  0.00  0.00    +0.000 N 
ATOM      7  C   UNL     1       5.294   6.198  18.523  0.00  0.00    +0.000 A 
ATOM      8  C   UNL     1       6.543   5.663  18.321  0.00  0.00    +0.000 A 
ATOM      9  N   UNL     1       6.539   4.342  18.666  0.00  0.00    +0.000 NA
ATOM     10  N   UNL     1       5.311   4.023  19.051  0.00  0.00    +0.000 NA
BRANCH   8  11
ATOM     11  C   UNL     1       7.737   6.399  17.748  0.00  0.00    +0.000 C 
ATOM     12  C   UNL     1       7.585   7.856  17.357  0.00  0.00    +0.000 C 
ATOM     13  C   UNL     1       8.337   7.508  18.593  0.00  0.00    +0.000 C 
ENDBRANCH   8  11
ENDBRANCH   4   6
BRANCH   1  14
ATOM     14  C   UNL     1       1.974   7.594  21.152  0.00  0.00    +0.000 C 
BRANCH  14  21
ATOM     15  C   UNL     1      -1.623  13.076  20.744  0.00  0.00    +0.000 C 
ATOM     16  N   UNL     1      -1.601  12.027  21.759  0.00  0.00    +0.000 N 
ATOM     17  C   UNL     1      -1.837  12.454  23.135  0.00  0.00    +0.000 C 
ATOM     18  C   UNL     1      -0.710  10.959  21.596  0.00  0.00    +0.000 A 
ATOM     19  C   UNL     1      -0.417  10.455  20.331  0.00  0.00    +0.000 A 
ATOM     20  C   UNL     1       0.440   9.360  20.172  0.00  0.00    +0.000 A 
ATOM     21  C   UNL     1       1.014   8.756  21.289  0.00  0.00    +0.000 A 
ATOM     22  C   UNL     1       0.681   9.316  22.513  0.00  0.00    +0.000 A 
ATOM     23  N   UNL     1      -0.158  10.375  22.686  0.00  0.00    +0.000 NA
ENDBRANCH  14  21
ENDBRANCH   1  14
TORSDOF 4
ENDMDL
MODEL 9
REMARK VINA RESULT:      -6.5      2.950      8.677
REMARK  Name = 
REMARK  6 active torsions:
REMARK  status: ('A' for Active; 'I' for Inactive)
REMARK    1  A    between atoms: C_1  and  N_2
REMARK    2  A    between atoms: N_2  and  C_3
REMARK    3  A    between atoms: C_7  and  C_8
REMARK    4  A    between atoms: C_8  and  N_9
REMARK    5  A    between atoms: C_12  and  N_13
REMARK    6  A    between atoms: C_15  and  C_16
REMARK                            x       y       z     vdW  Elec       q    Type
REMARK                         _______ _______ _______ _____ _____    ______ ____
ROOT
ATOM      1  N   UNL     1       1.957   8.279  20.180  0.00  0.00    +0.000 NA
ATOM      2  C   UNL     1       1.101   7.977  21.336  0.00  0.00    +0.000 C 
ATOM      3  C   UNL     1      -0.171   8.782  21.159  0.00  0.00    +0.000 C 
ATOM      4  C   UNL     1       0.284  10.048  20.442  0.00  0.00    +0.000 C 
ATOM      5  C   UNL     1       1.592   9.647  19.746  0.00  0.00    +0.000 C 
ENDROOT
BRANCH   4   6
ATOM      6  N   UNL     1      -0.746  10.579  19.575  0.00  0.00    +0.000 N 
ATOM      7  C   UNL     1      -1.066  10.172  18.308  0.00  0.00    +0.000 A 
ATOM      8  C   UNL     1      -1.945  11.134  17.871  0.00  0.00    +0.000 A 
ATOM      9  N   UNL     1      -2.161  12.044  18.866  0.00  0.00    +0.000 NA
ATOM     10  N   UNL     1      -1.418  11.699  19.907  0.00  0.00    +0.000 NA
BRANCH   8  11
ATOM     11  C   UNL     1      -2.544  11.218  16.483  0.00  0.00    +0.000 C 
ATOM     12  C   UNL     1      -2.770   9.939  15.701  0.00  0.00    +0.000 C 
ATOM     13  C   UNL     1      -3.938  10.646  16.295  0.00  0.00    +0.000 C 
ENDBRANCH   8  11
ENDBRANCH   4   6
BRANCH   1  14
ATOM     14  C   UNL     1       1.806   7.296  19.085  0.00  0.00    +0.000 C 
BRANCH  14  21
ATOM     15  C   UNL     1       6.920   5.131  15.575  0.00  0.00    +0.000 C 
ATOM     16  N   UNL     1       6.798   5.414  17.002  0.00  0.00    +0.000 N 
ATOM     17  C   UNL     1       7.563   4.553  17.899  0.00  0.00    +0.000 C 
ATOM     18  C   UNL     1       5.564   5.862  17.491  0.00  0.00    +0.000 A 
ATOM     19  C   UNL     1       4.753   6.700  16.731  0.00  0.00    +0.000 A 
ATOM     20  C   UNL     1       3.540   7.182  17.237  0.00  0.00    +0.000 A 
ATOM     21  C   UNL     1       3.128   6.824  18.519  0.00  0.00    +0.000 A 
ATOM     22  C   UNL     1       3.986   5.983  19.213  0.00  0.00    +0.000 A 
ATOM     23  N   UNL     1       5.173   5.513  18.739  0.00  0.00    +0.000 NA
ENDBRANCH  14  21
ENDBRANCH   1  14
TORSDOF 4
ENDMDL
