MODEL 1
REMARK VINA RESULT:      -6.8      0.000      0.000
REMARK  Name = 
REMARK  1 active torsions:
REMARK  status: ('A' for Active; 'I' for Inactive)
REMARK    1  A    between atoms: C_1  and  C_2
REMARK                            x       y       z     vdW  Elec       q    Type
REMARK                         _______ _______ _______ _____ _____    ______ ____
ROOT
ATOM      1  C   UNL     1      12.186  13.379  16.706  0.00  0.00    +0.000 C 
ATOM      2  C   UNL     1      11.307  14.532  17.126  0.00  0.00    +0.000 C 
ATOM      3  O   UNL     1      11.567  15.661  16.699  0.00  0.00    +0.000 OA
ATOM      4  N   UNL     1      10.245  14.303  18.004  0.00  0.00    +0.000 N 
ATOM      5  C   UNL     1       9.475  15.492  18.367  0.00  0.00    +0.000 C 
ATOM      6  C   UNL     1       8.138  15.294  19.046  0.00  0.00    +0.000 A 
ATOM      7  C   UNL     1       6.959  15.307  18.279  0.00  0.00    +0.000 A 
ATOM      8  C   UNL     1       5.714  15.183  18.896  0.00  0.00    +0.000 A 
ATOM      9 BR   UNL     1       4.137  15.249  17.855  0.00  0.00    +0.000 Br
ATOM     10  C   UNL     1       5.623  15.032  20.275  0.00  0.00    +0.000 A 
ATOM     11  C   UNL     1       6.786  14.991  21.043  0.00  0.00    +0.000 A 
ATOM     12  C   UNL     1       8.049  15.113  20.440  0.00  0.00    +0.000 A 
ATOM     13  C   UNL     1       9.285  15.064  21.303  0.00  0.00    +0.000 C 
ATOM     14  C   UNL     1      10.320  13.974  20.980  0.00  0.00    +0.000 C 
ATOM     15  C   UNL     1       9.930  12.877  20.013  0.00  0.00    +0.000 A 
ATOM     16  C   UNL     1       9.596  11.617  20.547  0.00  0.00    +0.000 A 
ATOM     17  C   UNL     1       9.336  10.532  19.706  0.00  0.00    +0.000 A 
ATOM     18  C   UNL     1       9.390  10.693  18.328  0.00  0.00    +0.000 A 
ATOM     19  C   UNL     1       9.690  11.943  17.785  0.00  0.00    +0.000 A 
ATOM     20  C   UNL     1       9.967  13.043  18.610  0.00  0.00    +0.000 A 
ENDROOT
TORSDOF 0
ENDMDL
MODEL 2
REMARK VINA RESULT:      -6.4      9.574     11.733
REMARK  Name = 
REMARK  1 active torsions:
REMARK  status: ('A' for Active; 'I' for Inactive)
REMARK    1  A    between atoms: C_1  and  C_2
REMARK                            x       y       z     vdW  Elec       q    Type
REMARK                         _______ _______ _______ _____ _____    ______ ____
ROOT
ATOM      1  C   UNL     1       1.287   3.488  19.698  0.00  0.00    +0.000 C 
ATOM      2  C   UNL     1       2.464   2.855  18.995  0.00  0.00    +0.000 C 
ATOM      3  O   UNL     1       2.644   1.640  19.117  0.00  0.00    +0.000 OA
ATOM      4  N   UNL     1       3.332   3.658  18.250  0.00  0.00    +0.000 N 
ATOM      5  C   UNL     1       4.453   2.949  17.633  0.00  0.00    +0.000 C 
ATOM      6  C   UNL     1       5.248   3.667  16.566  0.00  0.00    +0.000 A 
ATOM      7  C   UNL     1       4.943   3.456  15.209  0.00  0.00    +0.000 A 
ATOM      8  C   UNL     1       5.704   4.066  14.211  0.00  0.00    +0.000 A 
ATOM      9 BR   UNL     1       5.309   3.735  12.392  0.00  0.00    +0.000 Br
ATOM     10  C   UNL     1       6.764   4.901  14.544  0.00  0.00    +0.000 A 
ATOM     11  C   UNL     1       7.059   5.140  15.886  0.00  0.00    +0.000 A 
ATOM     12  C   UNL     1       6.305   4.535  16.906  0.00  0.00    +0.000 A 
ATOM     13  C   UNL     1       6.654   4.816  18.346  0.00  0.00    +0.000 C 
ATOM     14  C   UNL     1       5.548   5.420  19.228  0.00  0.00    +0.000 C 
ATOM     15  C   UNL     1       4.291   5.928  18.556  0.00  0.00    +0.000 A 
ATOM     16  C   UNL     1       4.148   7.320  18.395  0.00  0.00    +0.000 A 
ATOM     17  C   UNL     1       2.965   7.861  17.885  0.00  0.00    +0.000 A 
ATOM     18  C   UNL     1       1.920   7.024  17.517  0.00  0.00    +0.000 A 
ATOM     19  C   UNL     1       2.060   5.642  17.644  0.00  0.00    +0.000 A 
ATOM     20  C   UNL     1       3.233   5.077  18.164  0.00  0.00    +0.000 A 
ENDROOT
TORSDOF 0
ENDMDL
MODEL 3
REMARK VINA RESULT:      -6.0      8.100     10.363
REMARK  Name = 
REMARK  1 active torsions:
REMARK  status: ('A' for Active; 'I' for Inactive)
REMARK    1  A    between atoms: C_1  and  C_2
REMARK                            x       y       z     vdW  Elec       q    Type
REMARK                         _______ _______ _______ _____ _____    ______ ____
ROOT
ATOM      1  C   UNL     1      -0.413   8.575  21.444  0.00  0.00    +0.000 C 
ATOM      2  C   UNL     1       0.095   9.944  21.827  0.00  0.00    +0.000 C 
ATOM      3  O   UNL     1       0.680  10.079  22.906  0.00  0.00    +0.000 OA
ATOM      4  N   UNL     1      -0.131  11.025  20.972  0.00  0.00    +0.000 N 
ATOM      5  C   UNL     1       0.379  12.310  21.451  0.00  0.00    +0.000 C 
ATOM      6  C   UNL     1       0.462  13.455  20.465  0.00  0.00    +0.000 A 
ATOM      7  C   UNL     1       1.676  13.720  19.806  0.00  0.00    +0.000 A 
ATOM      8  C   UNL     1       1.785  14.806  18.939  0.00  0.00    +0.000 A 
ATOM      9 BR   UNL     1       3.438  15.176  18.097  0.00  0.00    +0.000 Br
ATOM     10  C   UNL     1       0.693  15.633  18.702  0.00  0.00    +0.000 A 
ATOM     11  C   UNL     1      -0.524  15.364  19.328  0.00  0.00    +0.000 A 
ATOM     12  C   UNL     1      -0.654  14.274  20.206  0.00  0.00    +0.000 A 
ATOM     13  C   UNL     1      -1.986  14.015  20.865  0.00  0.00    +0.000 C 
ATOM     14  C   UNL     1      -2.630  12.639  20.622  0.00  0.00    +0.000 C 
ATOM     15  C   UNL     1      -2.037  11.748  19.552  0.00  0.00    +0.000 A 
ATOM     16  C   UNL     1      -2.713  11.660  18.320  0.00  0.00    +0.000 A 
ATOM     17  C   UNL     1      -2.282  10.772  17.332  0.00  0.00    +0.000 A 
ATOM     18  C   UNL     1      -1.167   9.973  17.553  0.00  0.00    +0.000 A 
ATOM     19  C   UNL     1      -0.471  10.071  18.759  0.00  0.00    +0.000 A 
ATOM     20  C   UNL     1      -0.892  10.948  19.769  0.00  0.00    +0.000 A 
ENDROOT
TORSDOF 0
ENDMDL
MODEL 4
REMARK VINA RESULT:      -5.9      8.582     10.283
REMARK  Name = 
REMARK  1 active torsions:
REMARK  status: ('A' for Active; 'I' for Inactive)
REMARK    1  A    between atoms: C_1  and  C_2
REMARK                            x       y       z     vdW  Elec       q    Type
REMARK                         _______ _______ _______ _____ _____    ______ ____
ROOT
ATOM      1  C   UNL     1       7.136   4.239  14.320  0.00  0.00    +0.000 C 
ATOM      2  C   UNL     1       5.674   4.271  14.694  0.00  0.00    +0.000 C 
ATOM      3  O   UNL     1       4.840   3.925  13.853  0.00  0.00    +0.000 OA
ATOM      4  N   UNL     1       5.299   4.715  15.965  0.00  0.00    +0.000 N 
ATOM      5  C   UNL     1       3.858   4.731  16.213  0.00  0.00    +0.000 C 
ATOM      6  C   UNL     1       3.385   4.889  17.641  0.00  0.00    +0.000 A 
ATOM      7  C   UNL     1       3.054   3.748  18.396  0.00  0.00    +0.000 A 
ATOM      8  C   UNL     1       2.562   3.879  19.694  0.00  0.00    +0.000 A 
ATOM      9 BR   UNL     1       2.079   2.338  20.677  0.00  0.00    +0.000 Br
ATOM     10  C   UNL     1       2.404   5.137  20.265  0.00  0.00    +0.000 A 
ATOM     11  C   UNL     1       2.753   6.274  19.537  0.00  0.00    +0.000 A 
ATOM     12  C   UNL     1       3.251   6.163  18.228  0.00  0.00    +0.000 A 
ATOM     13  C   UNL     1       3.618   7.415  17.471  0.00  0.00    +0.000 C 
ATOM     14  C   UNL     1       5.067   7.527  16.967  0.00  0.00    +0.000 C 
ATOM     15  C   UNL     1       6.083   6.526  17.473  0.00  0.00    +0.000 A 
ATOM     16  C   UNL     1       6.987   6.950  18.466  0.00  0.00    +0.000 A 
ATOM     17  C   UNL     1       8.019   6.112  18.896  0.00  0.00    +0.000 A 
ATOM     18  C   UNL     1       8.154   4.841  18.353  0.00  0.00    +0.000 A 
ATOM     19  C   UNL     1       7.248   4.398  17.389  0.00  0.00    +0.000 A 
ATOM     20  C   UNL     1       6.211   5.226  16.934  0.00  0.00    +0.000 A 
ENDROOT
TORSDOF 0
ENDMDL
MODEL 5
REMARK VINA RESULT:      -5.9      1.332      1.813
REMARK  Name = 
REMARK  1 active torsions:
REMARK  status: ('A' for Active; 'I' for Inactive)
REMARK    1  A    between atoms: C_1  and  C_2
REMARK                            x       y       z     vdW  Elec       q    Type
REMARK                         _______ _______ _______ _____ _____    ______ ____
ROOT
ATOM      1  C   UNL     1      11.733  11.706  18.089  0.00  0.00    +0.000 C 
ATOM      2  C   UNL     1      11.050  12.954  17.582  0.00  0.00    +0.000 C 
ATOM      3  O   UNL     1      11.353  13.382  16.465  0.00  0.00    +0.000 OA
ATOM      4  N   UNL     1      10.118  13.605  18.393  0.00  0.00    +0.000 N 
ATOM      5  C   UNL     1       9.537  14.817  17.817  0.00  0.00    +0.000 C 
ATOM      6  C   UNL     1       8.307  15.400  18.477  0.00  0.00    +0.000 A 
ATOM      7  C   UNL     1       7.031  15.082  17.977  0.00  0.00    +0.000 A 
ATOM      8  C   UNL     1       5.891  15.656  18.538  0.00  0.00    +0.000 A 
ATOM      9 BR   UNL     1       4.187  15.254  17.824  0.00  0.00    +0.000 Br
ATOM     10  C   UNL     1       5.998  16.539  19.607  0.00  0.00    +0.000 A 
ATOM     11  C   UNL     1       7.255  16.841  20.128  0.00  0.00    +0.000 A 
ATOM     12  C   UNL     1       8.416  16.272  19.577  0.00  0.00    +0.000 A 
ATOM     13  C   UNL     1       9.759  16.623  20.168  0.00  0.00    +0.000 C 
ATOM     14  C   UNL     1      10.617  15.459  20.692  0.00  0.00    +0.000 C 
ATOM     15  C   UNL     1       9.974  14.095  20.824  0.00  0.00    +0.000 A 
ATOM     16  C   UNL     1       9.602  13.665  22.112  0.00  0.00    +0.000 A 
ATOM     17  C   UNL     1       9.107  12.375  22.318  0.00  0.00    +0.000 A 
ATOM     18  C   UNL     1       8.964  11.506  21.244  0.00  0.00    +0.000 A 
ATOM     19  C   UNL     1       9.302  11.930  19.958  0.00  0.00    +0.000 A 
ATOM     20  C   UNL     1       9.811  13.216  19.730  0.00  0.00    +0.000 A 
ENDROOT
TORSDOF 0
ENDMDL
MODEL 6
REMARK VINA RESULT:      -5.9      9.087     11.209
REMARK  Name = 
REMARK  1 active torsions:
REMARK  status: ('A' for Active; 'I' for Inactive)
REMARK    1  A    between atoms: C_1  and  C_2
REMARK                            x       y       z     vdW  Elec       q    Type
REMARK                         _______ _______ _______ _____ _____    ______ ____
ROOT
ATOM      1  C   UNL     1       1.623  11.964  19.023  0.00  0.00    +0.000 C 
ATOM      2  C   UNL     1       0.407  12.857  19.057  0.00  0.00    +0.000 C 
ATOM      3  O   UNL     1       0.379  13.848  18.321  0.00  0.00    +0.000 OA
ATOM      4  N   UNL     1      -0.640  12.561  19.933  0.00  0.00    +0.000 N 
ATOM      5  C   UNL     1      -1.756  13.505  19.904  0.00  0.00    +0.000 C 
ATOM      6  C   UNL     1      -3.051  13.097  20.573  0.00  0.00    +0.000 A 
ATOM      7  C   UNL     1      -4.085  12.533  19.804  0.00  0.00    +0.000 A 
ATOM      8  C   UNL     1      -5.305  12.205  20.395  0.00  0.00    +0.000 A 
ATOM      9 BR   UNL     1      -6.700  11.490  19.338  0.00  0.00    +0.000 Br
ATOM     10  C   UNL     1      -5.510  12.417  21.754  0.00  0.00    +0.000 A 
ATOM     11  C   UNL     1      -4.484  12.950  22.531  0.00  0.00    +0.000 A 
ATOM     12  C   UNL     1      -3.247  13.287  21.955  0.00  0.00    +0.000 A 
ATOM     13  C   UNL     1      -2.160  13.862  22.828  0.00  0.00    +0.000 C 
ATOM     14  C   UNL     1      -0.824  13.101  22.873  0.00  0.00    +0.000 C 
ATOM     15  C   UNL     1      -0.766  11.716  22.265  0.00  0.00    +0.000 A 
ATOM     16  C   UNL     1      -0.783  10.613  23.140  0.00  0.00    +0.000 A 
ATOM     17  C   UNL     1      -0.620   9.314  22.653  0.00  0.00    +0.000 A 
ATOM     18  C   UNL     1      -0.453   9.099  21.291  0.00  0.00    +0.000 A 
ATOM     19  C   UNL     1      -0.463  10.181  20.410  0.00  0.00    +0.000 A 
ATOM     20  C   UNL     1      -0.613  11.494  20.878  0.00  0.00    +0.000 A 
ENDROOT
TORSDOF 0
ENDMDL
MODEL 7
REMARK VINA RESULT:      -5.8      3.162      4.603
REMARK  Name = 
REMARK  1 active torsions:
REMARK  status: ('A' for Active; 'I' for Inactive)
REMARK    1  A    between atoms: C_1  and  C_2
REMARK                            x       y       z     vdW  Elec       q    Type
REMARK                         _______ _______ _______ _____ _____    ______ ____
ROOT
ATOM      1  C   UNL     1       8.683  11.286  22.040  0.00  0.00    +0.000 C 
ATOM      2  C   UNL     1       8.340  12.740  21.827  0.00  0.00    +0.000 C 
ATOM      3  O   UNL     1       7.534  13.278  22.593  0.00  0.00    +0.000 OA
ATOM      4  N   UNL     1       8.915  13.433  20.758  0.00  0.00    +0.000 N 
ATOM      5  C   UNL     1       8.494  14.827  20.627  0.00  0.00    +0.000 C 
ATOM      6  C   UNL     1       9.292  15.728  19.711  0.00  0.00    +0.000 A 
ATOM      7  C   UNL     1      10.303  16.547  20.246  0.00  0.00    +0.000 A 
ATOM      8  C   UNL     1      11.009  17.425  19.424  0.00  0.00    +0.000 A 
ATOM      9 BR   UNL     1      12.333  18.551  20.168  0.00  0.00    +0.000 Br
ATOM     10  C   UNL     1      10.733  17.493  18.063  0.00  0.00    +0.000 A 
ATOM     11  C   UNL     1       9.752  16.668  17.516  0.00  0.00    +0.000 A 
ATOM     12  C   UNL     1       9.029  15.776  18.328  0.00  0.00    +0.000 A 
ATOM     13  C   UNL     1       7.975  14.899  17.700  0.00  0.00    +0.000 C 
ATOM     14  C   UNL     1       8.141  13.379  17.866  0.00  0.00    +0.000 C 
ATOM     15  C   UNL     1       9.455  12.855  18.404  0.00  0.00    +0.000 A 
ATOM     16  C   UNL     1      10.364  12.292  17.487  0.00  0.00    +0.000 A 
ATOM     17  C   UNL     1      11.544  11.690  17.931  0.00  0.00    +0.000 A 
ATOM     18  C   UNL     1      11.838  11.655  19.288  0.00  0.00    +0.000 A 
ATOM     19  C   UNL     1      10.960  12.235  20.205  0.00  0.00    +0.000 A 
ATOM     20  C   UNL     1       9.765  12.834  19.783  0.00  0.00    +0.000 A 
ENDROOT
TORSDOF 0
ENDMDL
MODEL 8
REMARK VINA RESULT:      -5.7      9.451     11.702
REMARK  Name = 
REMARK  1 active torsions:
REMARK  status: ('A' for Active; 'I' for Inactive)
REMARK    1  A    between atoms: C_1  and  C_2
REMARK                            x       y       z     vdW  Elec       q    Type
REMARK                         _______ _______ _______ _____ _____    ______ ____
ROOT
ATOM      1  C   UNL     1       0.545   7.336  21.289  0.00  0.00    +0.000 C 
ATOM      2  C   UNL     1       1.489   7.542  20.128  0.00  0.00    +0.000 C 
ATOM      3  O   UNL     1       1.589   8.671  19.639  0.00  0.00    +0.000 OA
ATOM      4  N   UNL     1       2.202   6.453  19.621  0.00  0.00    +0.000 N 
ATOM      5  C   UNL     1       3.066   6.758  18.481  0.00  0.00    +0.000 C 
ATOM      6  C   UNL     1       4.099   5.729  18.076  0.00  0.00    +0.000 A 
ATOM      7  C   UNL     1       5.420   5.846  18.544  0.00  0.00    +0.000 A 
ATOM      8  C   UNL     1       6.397   4.939  18.135  0.00  0.00    +0.000 A 
ATOM      9 BR   UNL     1       8.178   5.139  18.737  0.00  0.00    +0.000 Br
ATOM     10  C   UNL     1       6.076   3.899  17.271  0.00  0.00    +0.000 A 
ATOM     11  C   UNL     1       4.764   3.756  16.821  0.00  0.00    +0.000 A 
ATOM     12  C   UNL     1       3.765   4.659  17.223  0.00  0.00    +0.000 A 
ATOM     13  C   UNL     1       2.357   4.473  16.716  0.00  0.00    +0.000 C 
ATOM     14  C   UNL     1       1.252   4.298  17.771  0.00  0.00    +0.000 C 
ATOM     15  C   UNL     1       1.662   4.064  19.209  0.00  0.00    +0.000 A 
ATOM     16  C   UNL     1       1.576   2.752  19.713  0.00  0.00    +0.000 A 
ATOM     17  C   UNL     1       1.833   2.487  21.060  0.00  0.00    +0.000 A 
ATOM     18  C   UNL     1       2.192   3.521  21.915  0.00  0.00    +0.000 A 
ATOM     19  C   UNL     1       2.308   4.821  21.423  0.00  0.00    +0.000 A 
ATOM     20  C   UNL     1       2.045   5.112  20.077  0.00  0.00    +0.000 A 
ENDROOT
TORSDOF 0
ENDMDL
MODEL 9
REMARK VINA RESULT:      -5.7      7.429      9.621
REMARK  Name = 
REMARK  1 active torsions:
REMARK  status: ('A' for Active; 'I' for Inactive)
REMARK    1  A    between atoms: C_1  and  C_2
REMARK                            x       y       z     vdW  Elec       q    Type
REMARK                         _______ _______ _______ _____ _____    ______ ____
ROOT
ATOM      1  C   UNL     1      -0.533   8.587  22.442  0.00  0.00    +0.000 C 
ATOM      2  C   UNL     1      -0.456  10.095  22.426  0.00  0.00    +0.000 C 
ATOM      3  O   UNL     1      -0.913  10.721  23.387  0.00  0.00    +0.000 OA
ATOM      4  N   UNL     1       0.100  10.743  21.321  0.00  0.00    +0.000 N 
ATOM      5  C   UNL     1       0.100  12.203  21.396  0.00  0.00    +0.000 C 
ATOM      6  C   UNL     1       0.955  12.967  20.409  0.00  0.00    +0.000 A 
ATOM      7  C   UNL     1       2.244  13.388  20.782  0.00  0.00    +0.000 A 
ATOM      8  C   UNL     1       3.022  14.142  19.905  0.00  0.00    +0.000 A 
ATOM      9 BR   UNL     1       4.734  14.740  20.441  0.00  0.00    +0.000 Br
ATOM     10  C   UNL     1       2.541  14.475  18.644  0.00  0.00    +0.000 A 
ATOM     11  C   UNL     1       1.276  14.040  18.251  0.00  0.00    +0.000 A 
ATOM     12  C   UNL     1       0.477  13.279  19.121  0.00  0.00    +0.000 A 
ATOM     13  C   UNL     1      -0.887  12.827  18.662  0.00  0.00    +0.000 C 
ATOM     14  C   UNL     1      -1.158  11.313  18.663  0.00  0.00    +0.000 C 
ATOM     15  C   UNL     1       0.012  10.374  18.866  0.00  0.00    +0.000 A 
ATOM     16  C   UNL     1       0.531   9.715  17.735  0.00  0.00    +0.000 A 
ATOM     17  C   UNL     1       1.535   8.753  17.868  0.00  0.00    +0.000 A 
ATOM     18  C   UNL     1       2.043   8.448  19.124  0.00  0.00    +0.000 A 
ATOM     19  C   UNL     1       1.558   9.114  20.250  0.00  0.00    +0.000 A 
ATOM     20  C   UNL     1       0.542  10.075  20.141  0.00  0.00    +0.000 A 
ENDROOT
TORSDOF 0
ENDMDL
