MODEL 1
REMARK VINA RESULT:      -8.8      0.000      0.000
REMARK  Name = 
REMARK  6 active torsions:
REMARK  status: ('A' for Active; 'I' for Inactive)
REMARK    1  A    between atoms: N_5  and  C_6
REMARK    2  A    between atoms: C_6  and  C_7
REMARK    3  A    between atoms: C_7  and  C_8
REMARK    4  A    between atoms: C_12  and  C_13
REMARK    5  A    between atoms: N_25  and  C_26
REMARK    6  A    between atoms: C_26  and  C_27
REMARK                            x       y       z     vdW  Elec       q    Type
REMARK                         _______ _______ _______ _____ _____    ______ ____
ROOT
ATOM      1  O   UNL     1       5.735   2.805  15.639  0.00  0.00    +0.000 OA
ATOM      2  C   UNL     1       5.739   3.862  16.262  0.00  0.00    +0.000 A 
ATOM      3  N   UNL     1       5.338   3.870  17.569  0.00  0.00    +0.000 NA
ATOM      4  C   UNL     1       4.679   4.877  18.031  0.00  0.00    +0.000 A 
ATOM      5  N   UNL     1       4.061   4.945  19.263  0.00  0.00    +0.000 N 
ATOM      6  N   UNL     1       3.179   5.957  19.573  0.00  0.00    +0.000 NA
ATOM      7  C   UNL     1       3.024   6.926  18.720  0.00  0.00    +0.000 A 
ATOM      8  N   UNL     1       3.703   7.040  17.525  0.00  0.00    +0.000 NA
ATOM      9  C   UNL     1       4.504   6.080  17.175  0.00  0.00    +0.000 A 
ATOM     10  C   UNL     1       5.276   6.156  15.884  0.00  0.00    +0.000 A 
ATOM     11  O   UNL     1       5.079   7.094  15.123  0.00  0.00    +0.000 OA
ATOM     12  N   UNL     1       6.081   5.060  15.647  0.00  0.00    +0.000 N 
ENDROOT
BRANCH   7  13
ATOM     13  C   UNL     1       2.052   8.031  19.003  0.00  0.00    +0.000 A 
ATOM     14  C   UNL     1       1.660   8.909  17.980  0.00  0.00    +0.000 A 
ATOM     15  C   UNL     1       0.778   9.959  18.248  0.00  0.00    +0.000 A 
ATOM     16  C   UNL     1       0.276  10.141  19.539  0.00  0.00    +0.000 A 
ATOM     17 CL   UNL     1      -0.791  11.472  19.804  0.00  0.00    +0.000 Cl
ATOM     18  C   UNL     1       0.650   9.259  20.559  0.00  0.00    +0.000 A 
ATOM     19 CL   UNL     1       0.066   9.425  22.178  0.00  0.00    +0.000 Cl
ATOM     20  C   UNL     1       1.532   8.203  20.291  0.00  0.00    +0.000 A 
ENDBRANCH   7  13
BRANCH   5  21
ATOM     21  C   UNL     1       3.980   3.756  20.124  0.00  0.00    +0.000 C 
BRANCH  21  22
ATOM     22  C   UNL     1       2.533   3.384  20.463  0.00  0.00    +0.000 C 
BRANCH  22  23
ATOM     23  C   UNL     1       2.025   2.253  19.614  0.00  0.00    +0.000 C 
ATOM     24  C   UNL     1       0.710   2.346  18.882  0.00  0.00    +0.000 C 
ATOM     25  C   UNL     1       2.003   2.409  18.117  0.00  0.00    +0.000 C 
ENDBRANCH  22  23
ENDBRANCH  21  22
ENDBRANCH   5  21
BRANCH  12  26
ATOM     26  C   UNL     1       6.679   4.918  14.324  0.00  0.00    +0.000 C 
BRANCH  26  27
ATOM     27  C   UNL     1       6.208   3.734  13.532  0.00  0.00    +0.000 C 
ATOM     28  C   UNL     1       5.243   3.822  12.376  0.00  0.00    +0.000 C 
ATOM     29  C   UNL     1       6.702   3.580  12.110  0.00  0.00    +0.000 C 
ENDBRANCH  26  27
ENDBRANCH  12  26
TORSDOF 6
ENDMDL
MODEL 2
REMARK VINA RESULT:      -8.3      3.904      7.292
REMARK  Name = 
REMARK  6 active torsions:
REMARK  status: ('A' for Active; 'I' for Inactive)
REMARK    1  A    between atoms: N_5  and  C_6
REMARK    2  A    between atoms: C_6  and  C_7
REMARK    3  A    between atoms: C_7  and  C_8
REMARK    4  A    between atoms: C_12  and  C_13
REMARK    5  A    between atoms: N_25  and  C_26
REMARK    6  A    between atoms: C_26  and  C_27
REMARK                            x       y       z     vdW  Elec       q    Type
REMARK                         _______ _______ _______ _____ _____    ______ ____
ROOT
ATOM      1  O   UNL     1       1.184   9.164  21.751  0.00  0.00    +0.000 OA
ATOM      2  C   UNL     1       1.222   8.588  20.667  0.00  0.00    +0.000 A 
ATOM      3  N   UNL     1       1.525   7.257  20.626  0.00  0.00    +0.000 NA
ATOM      4  C   UNL     1       2.229   6.789  19.652  0.00  0.00    +0.000 A 
ATOM      5  N   UNL     1       2.759   5.517  19.572  0.00  0.00    +0.000 N 
ATOM      6  N   UNL     1       3.697   5.185  18.620  0.00  0.00    +0.000 NA
ATOM      7  C   UNL     1       3.993   6.065  17.709  0.00  0.00    +0.000 A 
ATOM      8  N   UNL     1       3.414   7.312  17.601  0.00  0.00    +0.000 NA
ATOM      9  C   UNL     1       2.565   7.681  18.511  0.00  0.00    +0.000 A 
ATOM     10  C   UNL     1       1.899   9.029  18.438  0.00  0.00    +0.000 A 
ATOM     11  O   UNL     1       2.227   9.812  17.557  0.00  0.00    +0.000 OA
ATOM     12  N   UNL     1       1.026   9.280  19.478  0.00  0.00    +0.000 N 
ENDROOT
BRANCH   7  13
ATOM     13  C   UNL     1       5.029   5.756  16.671  0.00  0.00    +0.000 A 
ATOM     14  C   UNL     1       6.330   6.268  16.795  0.00  0.00    +0.000 A 
ATOM     15  C   UNL     1       7.290   6.007  15.813  0.00  0.00    +0.000 A 
ATOM     16  C   UNL     1       6.961   5.230  14.700  0.00  0.00    +0.000 A 
ATOM     17 CL   UNL     1       8.188   4.967  13.515  0.00  0.00    +0.000 Cl
ATOM     18  C   UNL     1       5.670   4.702  14.579  0.00  0.00    +0.000 A 
ATOM     19 CL   UNL     1       5.196   3.732  13.229  0.00  0.00    +0.000 Cl
ATOM     20  C   UNL     1       4.708   4.960  15.565  0.00  0.00    +0.000 A 
ENDBRANCH   7  13
BRANCH   5  21
ATOM     21  C   UNL     1       2.678   4.601  20.720  0.00  0.00    +0.000 C 
BRANCH  21  22
ATOM     22  C   UNL     1       1.287   3.974  20.863  0.00  0.00    +0.000 C 
BRANCH  22  23
ATOM     23  C   UNL     1       1.231   2.586  20.289  0.00  0.00    +0.000 C 
ATOM     24  C   UNL     1       0.801   2.339  18.866  0.00  0.00    +0.000 C 
ATOM     25  C   UNL     1       2.244   2.176  19.253  0.00  0.00    +0.000 C 
ENDBRANCH  22  23
ENDBRANCH  21  22
ENDBRANCH   5  21
BRANCH  12  26
ATOM     26  C   UNL     1       0.516  10.637  19.637  0.00  0.00    +0.000 C 
BRANCH  26  27
ATOM     27  C   UNL     1      -0.945  10.812  19.343  0.00  0.00    +0.000 C 
ATOM     28  C   UNL     1      -1.733  12.049  19.692  0.00  0.00    +0.000 C 
ATOM     29  C   UNL     1      -1.347  11.791  18.262  0.00  0.00    +0.000 C 
ENDBRANCH  26  27
ENDBRANCH  12  26
TORSDOF 6
ENDMDL
MODEL 3
REMARK VINA RESULT:      -8.2      1.086      1.540
REMARK  Name = 
REMARK  6 active torsions:
REMARK  status: ('A' for Active; 'I' for Inactive)
REMARK    1  A    between atoms: N_5  and  C_6
REMARK    2  A    between atoms: C_6  and  C_7
REMARK    3  A    between atoms: C_7  and  C_8
REMARK    4  A    between atoms: C_12  and  C_13
REMARK    5  A    between atoms: N_25  and  C_26
REMARK    6  A    between atoms: C_26  and  C_27
REMARK                            x       y       z     vdW  Elec       q    Type
REMARK                         _______ _______ _______ _____ _____    ______ ____
ROOT
ATOM      1  O   UNL     1       5.443   3.085  14.952  0.00  0.00    +0.000 OA
ATOM      2  C   UNL     1       5.389   3.784  15.961  0.00  0.00    +0.000 A 
ATOM      3  N   UNL     1       4.381   3.583  16.861  0.00  0.00    +0.000 NA
ATOM      4  C   UNL     1       3.861   4.590  17.476  0.00  0.00    +0.000 A 
ATOM      5  N   UNL     1       2.730   4.561  18.267  0.00  0.00    +0.000 N 
ATOM      6  N   UNL     1       2.109   5.719  18.681  0.00  0.00    +0.000 NA
ATOM      7  C   UNL     1       2.678   6.857  18.411  0.00  0.00    +0.000 A 
ATOM      8  N   UNL     1       3.885   6.999  17.759  0.00  0.00    +0.000 NA
ATOM      9  C   UNL     1       4.474   5.934  17.309  0.00  0.00    +0.000 A 
ATOM     10  C   UNL     1       5.797   6.031  16.595  0.00  0.00    +0.000 A 
ATOM     11  O   UNL     1       6.275   7.134  16.369  0.00  0.00    +0.000 OA
ATOM     12  N   UNL     1       6.295   4.816  16.170  0.00  0.00    +0.000 N 
ENDROOT
BRANCH   7  13
ATOM     13  C   UNL     1       2.023   8.142  18.816  0.00  0.00    +0.000 A 
ATOM     14  C   UNL     1       1.927   9.206  17.907  0.00  0.00    +0.000 A 
ATOM     15  C   UNL     1       1.343  10.417  18.291  0.00  0.00    +0.000 A 
ATOM     16  C   UNL     1       0.847  10.574  19.587  0.00  0.00    +0.000 A 
ATOM     17 CL   UNL     1       0.161  12.104  20.002  0.00  0.00    +0.000 Cl
ATOM     18  C   UNL     1       0.925   9.511  20.495  0.00  0.00    +0.000 A 
ATOM     19 CL   UNL     1       0.330   9.638  22.112  0.00  0.00    +0.000 Cl
ATOM     20  C   UNL     1       1.506   8.296  20.108  0.00  0.00    +0.000 A 
ENDBRANCH   7  13
BRANCH   5  21
ATOM     21  C   UNL     1       1.910   3.343  18.352  0.00  0.00    +0.000 C 
BRANCH  21  22
ATOM     22  C   UNL     1       0.966   3.365  19.560  0.00  0.00    +0.000 C 
BRANCH  22  23
ATOM     23  C   UNL     1       1.710   3.529  20.856  0.00  0.00    +0.000 C 
ATOM     24  C   UNL     1       1.527   2.561  21.997  0.00  0.00    +0.000 C 
ATOM     25  C   UNL     1       2.805   2.556  21.205  0.00  0.00    +0.000 C 
ENDBRANCH  22  23
ENDBRANCH  21  22
ENDBRANCH   5  21
BRANCH  12  26
ATOM     26  C   UNL     1       7.438   4.819  15.264  0.00  0.00    +0.000 C 
BRANCH  26  27
ATOM     27  C   UNL     1       7.153   5.314  13.876  0.00  0.00    +0.000 C 
ATOM     28  C   UNL     1       8.213   5.538  12.827  0.00  0.00    +0.000 C 
ATOM     29  C   UNL     1       7.304   4.346  12.724  0.00  0.00    +0.000 C 
ENDBRANCH  26  27
ENDBRANCH  12  26
TORSDOF 6
ENDMDL
MODEL 4
REMARK VINA RESULT:      -8.2      1.742      2.684
REMARK  Name = 
REMARK  6 active torsions:
REMARK  status: ('A' for Active; 'I' for Inactive)
REMARK    1  A    between atoms: N_5  and  C_6
REMARK    2  A    between atoms: C_6  and  C_7
REMARK    3  A    between atoms: C_7  and  C_8
REMARK    4  A    between atoms: C_12  and  C_13
REMARK    5  A    between atoms: N_25  and  C_26
REMARK    6  A    between atoms: C_26  and  C_27
REMARK                            x       y       z     vdW  Elec       q    Type
REMARK                         _______ _______ _______ _____ _____    ______ ____
ROOT
ATOM      1  O   UNL     1       3.870   3.927  16.600  0.00  0.00    +0.000 OA
ATOM      2  C   UNL     1       3.987   4.834  17.418  0.00  0.00    +0.000 A 
ATOM      3  N   UNL     1       3.563   4.637  18.702  0.00  0.00    +0.000 NA
ATOM      4  C   UNL     1       3.020   5.608  19.355  0.00  0.00    +0.000 A 
ATOM      5  N   UNL     1       2.388   5.510  20.578  0.00  0.00    +0.000 N 
ATOM      6  N   UNL     1       1.627   6.542  21.082  0.00  0.00    +0.000 NA
ATOM      7  C   UNL     1       1.608   7.670  20.435  0.00  0.00    +0.000 A 
ATOM      8  N   UNL     1       2.321   7.930  19.283  0.00  0.00    +0.000 NA
ATOM      9  C   UNL     1       3.008   6.966  18.750  0.00  0.00    +0.000 A 
ATOM     10  C   UNL     1       3.810   7.197  17.496  0.00  0.00    +0.000 A 
ATOM     11  O   UNL     1       3.743   8.282  16.934  0.00  0.00    +0.000 OA
ATOM     12  N   UNL     1       4.483   6.078  17.047  0.00  0.00    +0.000 N 
ENDROOT
BRANCH   7  13
ATOM     13  C   UNL     1       0.769   8.808  20.931  0.00  0.00    +0.000 A 
ATOM     14  C   UNL     1       0.516   8.957  22.303  0.00  0.00    +0.000 A 
ATOM     15  C   UNL     1      -0.290  10.000  22.767  0.00  0.00    +0.000 A 
ATOM     16  C   UNL     1      -0.849  10.907  21.863  0.00  0.00    +0.000 A 
ATOM     17 CL   UNL     1      -1.854  12.158  22.501  0.00  0.00    +0.000 Cl
ATOM     18  C   UNL     1      -0.587  10.775  20.494  0.00  0.00    +0.000 A 
ATOM     19 CL   UNL     1      -1.244  11.863  19.323  0.00  0.00    +0.000 Cl
ATOM     20  C   UNL     1       0.225   9.732  20.030  0.00  0.00    +0.000 A 
ENDBRANCH   7  13
BRANCH   5  21
ATOM     21  C   UNL     1       2.148   4.195  21.191  0.00  0.00    +0.000 C 
BRANCH  21  22
ATOM     22  C   UNL     1       0.819   3.580  20.738  0.00  0.00    +0.000 C 
BRANCH  22  23
ATOM     23  C   UNL     1       1.012   2.257  20.051  0.00  0.00    +0.000 C 
ATOM     24  C   UNL     1       1.057   2.148  18.549  0.00  0.00    +0.000 C 
ATOM     25  C   UNL     1       2.316   1.974  19.352  0.00  0.00    +0.000 C 
ENDBRANCH  22  23
ENDBRANCH  21  22
ENDBRANCH   5  21
BRANCH  12  26
ATOM     26  C   UNL     1       5.087   6.124  15.721  0.00  0.00    +0.000 C 
BRANCH  26  27
ATOM     27  C   UNL     1       6.556   5.821  15.675  0.00  0.00    +0.000 C 
ATOM     28  C   UNL     1       7.203   4.672  16.406  0.00  0.00    +0.000 C 
ATOM     29  C   UNL     1       7.011   4.594  14.918  0.00  0.00    +0.000 C 
ENDBRANCH  26  27
ENDBRANCH  12  26
TORSDOF 6
ENDMDL
MODEL 5
REMARK VINA RESULT:      -8.2      1.564      1.960
REMARK  Name = 
REMARK  6 active torsions:
REMARK  status: ('A' for Active; 'I' for Inactive)
REMARK    1  A    between atoms: N_5  and  C_6
REMARK    2  A    between atoms: C_6  and  C_7
REMARK    3  A    between atoms: C_7  and  C_8
REMARK    4  A    between atoms: C_12  and  C_13
REMARK    5  A    between atoms: N_25  and  C_26
REMARK    6  A    between atoms: C_26  and  C_27
REMARK                            x       y       z     vdW  Elec       q    Type
REMARK                         _______ _______ _______ _____ _____    ______ ____
ROOT
ATOM      1  O   UNL     1       5.009   3.009  16.947  0.00  0.00    +0.000 OA
ATOM      2  C   UNL     1       5.053   4.133  17.439  0.00  0.00    +0.000 A 
ATOM      3  N   UNL     1       4.344   4.393  18.577  0.00  0.00    +0.000 NA
ATOM      4  C   UNL     1       3.789   5.547  18.738  0.00  0.00    +0.000 A 
ATOM      5  N   UNL     1       2.904   5.888  19.740  0.00  0.00    +0.000 N 
ATOM      6  N   UNL     1       2.177   7.057  19.692  0.00  0.00    +0.000 NA
ATOM      7  C   UNL     1       2.427   7.903  18.737  0.00  0.00    +0.000 A 
ATOM      8  N   UNL     1       3.396   7.736  17.769  0.00  0.00    +0.000 NA
ATOM      9  C   UNL     1       4.065   6.623  17.751  0.00  0.00    +0.000 A 
ATOM     10  C   UNL     1       5.138   6.390  16.720  0.00  0.00    +0.000 A 
ATOM     11  O   UNL     1       5.319   7.226  15.845  0.00  0.00    +0.000 OA
ATOM     12  N   UNL     1       5.757   5.160  16.823  0.00  0.00    +0.000 N 
ENDROOT
BRANCH   7  13
ATOM     13  C   UNL     1       1.640   9.174  18.630  0.00  0.00    +0.000 A 
ATOM     14  C   UNL     1       0.240   9.151  18.725  0.00  0.00    +0.000 A 
ATOM     15  C   UNL     1      -0.499  10.330  18.595  0.00  0.00    +0.000 A 
ATOM     16  C   UNL     1       0.154  11.544  18.373  0.00  0.00    +0.000 A 
ATOM     17 CL   UNL     1      -0.822  12.958  18.199  0.00  0.00    +0.000 Cl
ATOM     18  C   UNL     1       1.551  11.578  18.295  0.00  0.00    +0.000 A 
ATOM     19 CL   UNL     1       2.422  13.046  18.023  0.00  0.00    +0.000 Cl
ATOM     20  C   UNL     1       2.293  10.396  18.428  0.00  0.00    +0.000 A 
ENDBRANCH   7  13
BRANCH   5  21
ATOM     21  C   UNL     1       2.387   4.864  20.660  0.00  0.00    +0.000 C 
BRANCH  21  22
ATOM     22  C   UNL     1       0.965   4.425  20.297  0.00  0.00    +0.000 C 
BRANCH  22  23
ATOM     23  C   UNL     1       0.859   2.935  20.126  0.00  0.00    +0.000 C 
ATOM     24  C   UNL     1       0.772   2.303  18.761  0.00  0.00    +0.000 C 
ATOM     25  C   UNL     1       2.032   2.172  19.570  0.00  0.00    +0.000 C 
ENDBRANCH  22  23
ENDBRANCH  21  22
ENDBRANCH   5  21
BRANCH  12  26
ATOM     26  C   UNL     1       6.632   4.737  15.737  0.00  0.00    +0.000 C 
BRANCH  26  27
ATOM     27  C   UNL     1       6.060   4.885  14.358  0.00  0.00    +0.000 C 
ATOM     28  C   UNL     1       6.864   4.739  13.090  0.00  0.00    +0.000 C 
ATOM     29  C   UNL     1       5.919   3.645  13.503  0.00  0.00    +0.000 C 
ENDBRANCH  26  27
ENDBRANCH  12  26
TORSDOF 6
ENDMDL
MODEL 6
REMARK VINA RESULT:      -7.9      1.229      1.554
REMARK  Name = 
REMARK  6 active torsions:
REMARK  status: ('A' for Active; 'I' for Inactive)
REMARK    1  A    between atoms: N_5  and  C_6
REMARK    2  A    between atoms: C_6  and  C_7
REMARK    3  A    between atoms: C_7  and  C_8
REMARK    4  A    between atoms: C_12  and  C_13
REMARK    5  A    between atoms: N_25  and  C_26
REMARK    6  A    between atoms: C_26  and  C_27
REMARK                            x       y       z     vdW  Elec       q    Type
REMARK                         _______ _______ _______ _____ _____    ______ ____
ROOT
ATOM      1  O   UNL     1       5.179   2.942  17.472  0.00  0.00    +0.000 OA
ATOM      2  C   UNL     1       5.130   4.048  18.001  0.00  0.00    +0.000 A 
ATOM      3  N   UNL     1       4.383   4.216  19.133  0.00  0.00    +0.000 NA
ATOM      4  C   UNL     1       3.742   5.320  19.320  0.00  0.00    +0.000 A 
ATOM      5  N   UNL     1       2.816   5.561  20.315  0.00  0.00    +0.000 N 
ATOM      6  N   UNL     1       2.006   6.674  20.291  0.00  0.00    +0.000 NA
ATOM      7  C   UNL     1       2.210   7.569  19.369  0.00  0.00    +0.000 A 
ATOM      8  N   UNL     1       3.205   7.506  18.416  0.00  0.00    +0.000 NA
ATOM      9  C   UNL     1       3.955   6.447  18.375  0.00  0.00    +0.000 A 
ATOM     10  C   UNL     1       5.060   6.329  17.359  0.00  0.00    +0.000 A 
ATOM     11  O   UNL     1       5.194   7.205  16.515  0.00  0.00    +0.000 OA
ATOM     12  N   UNL     1       5.767   5.145  17.434  0.00  0.00    +0.000 N 
ENDROOT
BRANCH   7  13
ATOM     13  C   UNL     1       1.332   8.781  19.289  0.00  0.00    +0.000 A 
ATOM     14  C   UNL     1       1.119   9.421  18.058  0.00  0.00    +0.000 A 
ATOM     15  C   UNL     1       0.326  10.569  17.984  0.00  0.00    +0.000 A 
ATOM     16  C   UNL     1      -0.264  11.088  19.139  0.00  0.00    +0.000 A 
ATOM     17 CL   UNL     1      -1.212  12.523  18.980  0.00  0.00    +0.000 Cl
ATOM     18  C   UNL     1      -0.069  10.446  20.368  0.00  0.00    +0.000 A 
ATOM     19 CL   UNL     1      -0.770  11.033  21.834  0.00  0.00    +0.000 Cl
ATOM     20  C   UNL     1       0.723   9.292  20.441  0.00  0.00    +0.000 A 
ENDBRANCH   7  13
BRANCH   5  21
ATOM     21  C   UNL     1       2.361   4.471  21.190  0.00  0.00    +0.000 C 
BRANCH  21  22
ATOM     22  C   UNL     1       1.111   3.773  20.643  0.00  0.00    +0.000 C 
BRANCH  22  23
ATOM     23  C   UNL     1       1.455   2.650  19.705  0.00  0.00    +0.000 C 
ATOM     24  C   UNL     1       0.399   1.969  18.871  0.00  0.00    +0.000 C 
ATOM     25  C   UNL     1       1.395   2.888  18.219  0.00  0.00    +0.000 C 
ENDBRANCH  22  23
ENDBRANCH  21  22
ENDBRANCH   5  21
BRANCH  12  26
ATOM     26  C   UNL     1       6.690   4.825  16.353  0.00  0.00    +0.000 C 
BRANCH  26  27
ATOM     27  C   UNL     1       6.162   5.062  14.968  0.00  0.00    +0.000 C 
ATOM     28  C   UNL     1       6.943   4.782  13.708  0.00  0.00    +0.000 C 
ATOM     29  C   UNL     1       5.827   3.859  14.113  0.00  0.00    +0.000 C 
ENDBRANCH  26  27
ENDBRANCH  12  26
TORSDOF 6
ENDMDL
MODEL 7
REMARK VINA RESULT:      -7.9      0.731      1.360
REMARK  Name = 
REMARK  6 active torsions:
REMARK  status: ('A' for Active; 'I' for Inactive)
REMARK    1  A    between atoms: N_5  and  C_6
REMARK    2  A    between atoms: C_6  and  C_7
REMARK    3  A    between atoms: C_7  and  C_8
REMARK    4  A    between atoms: C_12  and  C_13
REMARK    5  A    between atoms: N_25  and  C_26
REMARK    6  A    between atoms: C_26  and  C_27
REMARK                            x       y       z     vdW  Elec       q    Type
REMARK                         _______ _______ _______ _____ _____    ______ ____
ROOT
ATOM      1  O   UNL     1       5.546   2.775  15.388  0.00  0.00    +0.000 OA
ATOM      2  C   UNL     1       5.608   3.745  16.138  0.00  0.00    +0.000 A 
ATOM      3  N   UNL     1       5.273   3.595  17.454  0.00  0.00    +0.000 NA
ATOM      4  C   UNL     1       4.664   4.547  18.074  0.00  0.00    +0.000 A 
ATOM      5  N   UNL     1       4.110   4.470  19.336  0.00  0.00    +0.000 N 
ATOM      6  N   UNL     1       3.270   5.451  19.816  0.00  0.00    +0.000 NA
ATOM      7  C   UNL     1       3.097   6.523  19.100  0.00  0.00    +0.000 A 
ATOM      8  N   UNL     1       3.718   6.774  17.894  0.00  0.00    +0.000 NA
ATOM      9  C   UNL     1       4.476   5.852  17.385  0.00  0.00    +0.000 A 
ATOM     10  C   UNL     1       5.183   6.076  16.075  0.00  0.00    +0.000 A 
ATOM     11  O   UNL     1       4.972   7.106  15.449  0.00  0.00    +0.000 OA
ATOM     12  N   UNL     1       5.948   5.004  15.659  0.00  0.00    +0.000 N 
ENDROOT
BRANCH   7  13
ATOM     13  C   UNL     1       2.168   7.601  19.570  0.00  0.00    +0.000 A 
ATOM     14  C   UNL     1       1.561   7.512  20.832  0.00  0.00    +0.000 A 
ATOM     15  C   UNL     1       0.671   8.501  21.262  0.00  0.00    +0.000 A 
ATOM     16  C   UNL     1       0.381   9.589  20.435  0.00  0.00    +0.000 A 
ATOM     17 CL   UNL     1      -0.745  10.761  21.018  0.00  0.00    +0.000 Cl
ATOM     18  C   UNL     1       0.996   9.692  19.182  0.00  0.00    +0.000 A 
ATOM     19 CL   UNL     1       0.684  11.012  18.110  0.00  0.00    +0.000 Cl
ATOM     20  C   UNL     1       1.892   8.703  18.752  0.00  0.00    +0.000 A 
ENDBRANCH   7  13
BRANCH   5  21
ATOM     21  C   UNL     1       4.043   3.183  20.044  0.00  0.00    +0.000 C 
BRANCH  21  22
ATOM     22  C   UNL     1       2.791   3.069  20.919  0.00  0.00    +0.000 C 
BRANCH  22  23
ATOM     23  C   UNL     1       1.707   2.266  20.256  0.00  0.00    +0.000 C 
ATOM     24  C   UNL     1       0.594   2.930  19.486  0.00  0.00    +0.000 C 
ATOM     25  C   UNL     1       1.671   2.180  18.753  0.00  0.00    +0.000 C 
ENDBRANCH  22  23
ENDBRANCH  21  22
ENDBRANCH   5  21
BRANCH  12  26
ATOM     26  C   UNL     1       6.475   5.020  14.300  0.00  0.00    +0.000 C 
BRANCH  26  27
ATOM     27  C   UNL     1       6.196   3.787  13.491  0.00  0.00    +0.000 C 
ATOM     28  C   UNL     1       5.279   3.753  12.294  0.00  0.00    +0.000 C 
ATOM     29  C   UNL     1       6.767   3.704  12.092  0.00  0.00    +0.000 C 
ENDBRANCH  26  27
ENDBRANCH  12  26
TORSDOF 6
ENDMDL
MODEL 8
REMARK VINA RESULT:      -7.9      4.700      7.767
REMARK  Name = 
REMARK  6 active torsions:
REMARK  status: ('A' for Active; 'I' for Inactive)
REMARK    1  A    between atoms: N_5  and  C_6
REMARK    2  A    between atoms: C_6  and  C_7
REMARK    3  A    between atoms: C_7  and  C_8
REMARK    4  A    between atoms: C_12  and  C_13
REMARK    5  A    between atoms: N_25  and  C_26
REMARK    6  A    between atoms: C_26  and  C_27
REMARK                            x       y       z     vdW  Elec       q    Type
REMARK                         _______ _______ _______ _____ _____    ______ ____
ROOT
ATOM      1  O   UNL     1       2.278   8.904  17.326  0.00  0.00    +0.000 OA
ATOM      2  C   UNL     1       1.369   8.904  18.151  0.00  0.00    +0.000 A 
ATOM      3  N   UNL     1       0.238   9.629  17.901  0.00  0.00    +0.000 NA
ATOM      4  C   UNL     1      -0.368  10.226  18.870  0.00  0.00    +0.000 A 
ATOM      5  N   UNL     1      -1.404  11.130  18.745  0.00  0.00    +0.000 N 
ATOM      6  N   UNL     1      -1.824  11.898  19.808  0.00  0.00    +0.000 NA
ATOM      7  C   UNL     1      -1.303  11.672  20.978  0.00  0.00    +0.000 A 
ATOM      8  N   UNL     1      -0.371  10.693  21.251  0.00  0.00    +0.000 NA
ATOM      9  C   UNL     1       0.087   9.984  20.265  0.00  0.00    +0.000 A 
ATOM     10  C   UNL     1       1.100   8.896  20.507  0.00  0.00    +0.000 A 
ATOM     11  O   UNL     1       1.554   8.741  21.632  0.00  0.00    +0.000 OA
ATOM     12  N   UNL     1       1.496   8.234  19.362  0.00  0.00    +0.000 N 
ENDROOT
BRANCH   7  13
ATOM     13  C   UNL     1      -1.709  12.505  22.157  0.00  0.00    +0.000 A 
ATOM     14  C   UNL     1      -0.923  13.596  22.558  0.00  0.00    +0.000 A 
ATOM     15  C   UNL     1      -1.283  14.356  23.675  0.00  0.00    +0.000 A 
ATOM     16  C   UNL     1      -2.433  14.034  24.400  0.00  0.00    +0.000 A 
ATOM     17 CL   UNL     1      -2.805  14.999  25.782  0.00  0.00    +0.000 Cl
ATOM     18  C   UNL     1      -3.230  12.957  23.995  0.00  0.00    +0.000 A 
ATOM     19 CL   UNL     1      -4.666  12.506  24.845  0.00  0.00    +0.000 Cl
ATOM     20  C   UNL     1      -2.872  12.197  22.873  0.00  0.00    +0.000 A 
ENDBRANCH   7  13
BRANCH   5  21
ATOM     21  C   UNL     1      -1.815  11.615  17.418  0.00  0.00    +0.000 C 
BRANCH  21  22
ATOM     22  C   UNL     1      -3.332  11.539  17.220  0.00  0.00    +0.000 C 
BRANCH  22  23
ATOM     23  C   UNL     1      -3.733  10.375  16.357  0.00  0.00    +0.000 C 
ATOM     24  C   UNL     1      -3.544  10.401  14.862  0.00  0.00    +0.000 C 
ATOM     25  C   UNL     1      -2.663   9.531  15.716  0.00  0.00    +0.000 C 
ENDBRANCH  22  23
ENDBRANCH  21  22
ENDBRANCH   5  21
BRANCH  12  26
ATOM     26  C   UNL     1       2.642   7.337  19.447  0.00  0.00    +0.000 C 
BRANCH  26  27
ATOM     27  C   UNL     1       2.316   5.873  19.394  0.00  0.00    +0.000 C 
ATOM     28  C   UNL     1       3.320   4.776  19.644  0.00  0.00    +0.000 C 
ATOM     29  C   UNL     1       2.292   5.097  20.692  0.00  0.00    +0.000 C 
ENDBRANCH  26  27
ENDBRANCH  12  26
TORSDOF 6
ENDMDL
MODEL 9
REMARK VINA RESULT:      -7.8      1.686      2.250
REMARK  Name = 
REMARK  6 active torsions:
REMARK  status: ('A' for Active; 'I' for Inactive)
REMARK    1  A    between atoms: N_5  and  C_6
REMARK    2  A    between atoms: C_6  and  C_7
REMARK    3  A    between atoms: C_7  and  C_8
REMARK    4  A    between atoms: C_12  and  C_13
REMARK    5  A    between atoms: N_25  and  C_26
REMARK    6  A    between atoms: C_26  and  C_27
REMARK                            x       y       z     vdW  Elec       q    Type
REMARK                         _______ _______ _______ _____ _____    ______ ____
ROOT
ATOM      1  O   UNL     1       3.975   3.718  16.655  0.00  0.00    +0.000 OA
ATOM      2  C   UNL     1       4.082   4.728  17.346  0.00  0.00    +0.000 A 
ATOM      3  N   UNL     1       3.617   4.712  18.631  0.00  0.00    +0.000 NA
ATOM      4  C   UNL     1       3.070   5.769  19.127  0.00  0.00    +0.000 A 
ATOM      5  N   UNL     1       2.401   5.846  20.332  0.00  0.00    +0.000 N 
ATOM      6  N   UNL     1       1.641   6.945  20.667  0.00  0.00    +0.000 NA
ATOM      7  C   UNL     1       1.659   7.974  19.872  0.00  0.00    +0.000 A 
ATOM      8  N   UNL     1       2.409   8.067  18.719  0.00  0.00    +0.000 NA
ATOM      9  C   UNL     1       3.097   7.032  18.344  0.00  0.00    +0.000 A 
ATOM     10  C   UNL     1       3.940   7.081  17.096  0.00  0.00    +0.000 A 
ATOM     11  O   UNL     1       3.906   8.079  16.390  0.00  0.00    +0.000 OA
ATOM     12  N   UNL     1       4.608   5.903  16.825  0.00  0.00    +0.000 N 
ENDROOT
BRANCH   7  13
ATOM     13  C   UNL     1       0.824   9.180  20.182  0.00  0.00    +0.000 A 
ATOM     14  C   UNL     1       0.625  10.173  19.211  0.00  0.00    +0.000 A 
ATOM     15  C   UNL     1      -0.128  11.313  19.506  0.00  0.00    +0.000 A 
ATOM     16  C   UNL     1      -0.691  11.470  20.775  0.00  0.00    +0.000 A 
ATOM     17 CL   UNL     1      -1.589  12.914  21.080  0.00  0.00    +0.000 Cl
ATOM     18  C   UNL     1      -0.510  10.476  21.744  0.00  0.00    +0.000 A 
ATOM     19 CL   UNL     1      -1.180  10.606  23.332  0.00  0.00    +0.000 Cl
ATOM     20  C   UNL     1       0.241   9.331  21.446  0.00  0.00    +0.000 A 
ENDBRANCH   7  13
BRANCH   5  21
ATOM     21  C   UNL     1       2.122   4.629  21.110  0.00  0.00    +0.000 C 
BRANCH  21  22
ATOM     22  C   UNL     1       0.814   3.955  20.680  0.00  0.00    +0.000 C 
BRANCH  22  23
ATOM     23  C   UNL     1       1.026   2.531  20.250  0.00  0.00    +0.000 C 
ATOM     24  C   UNL     1       1.113   2.153  18.793  0.00  0.00    +0.000 C 
ATOM     25  C   UNL     1       2.349   2.132  19.649  0.00  0.00    +0.000 C 
ENDBRANCH  22  23
ENDBRANCH  21  22
ENDBRANCH   5  21
BRANCH  12  26
ATOM     26  C   UNL     1       5.251   5.762  15.524  0.00  0.00    +0.000 C 
BRANCH  26  27
ATOM     27  C   UNL     1       6.725   5.478  15.566  0.00  0.00    +0.000 C 
ATOM     28  C   UNL     1       7.409   4.736  16.687  0.00  0.00    +0.000 C 
ATOM     29  C   UNL     1       7.186   4.051  15.367  0.00  0.00    +0.000 C 
ENDBRANCH  26  27
ENDBRANCH  12  26
TORSDOF 6
ENDMDL
