MODEL 1
REMARK VINA RESULT:      -7.1      0.000      0.000
REMARK  Name = 
REMARK  8 active torsions:
REMARK  status: ('A' for Active; 'I' for Inactive)
REMARK    1  A    between atoms: C_1  and  O_2
REMARK    2  A    between atoms: O_2  and  C_3
REMARK    3  A    between atoms: C_5  and  C_6
REMARK    4  A    between atoms: N_11  and  C_12
REMARK    5  A    between atoms: C_12  and  C_13
REMARK    6  A    between atoms: C_22  and  O_23
REMARK    7  A    between atoms: O_23  and  C_24
REMARK    8  A    between atoms: C_25  and  O_26
REMARK                            x       y       z     vdW  Elec       q    Type
REMARK                         _______ _______ _______ _____ _____    ______ ____
ROOT
ATOM      1  C   UNL     1       2.044   7.014  20.890  0.00  0.00    +0.000 C 
ATOM      2  C   UNL     1       1.428   8.199  20.784  0.00  0.00    +0.000 C 
ATOM      3  S   UNL     1       0.856   9.075  22.154  0.00  0.00    +0.000 S 
ATOM      4  C   UNL     1       0.181  10.367  21.168  0.00  0.00    +0.000 C 
ATOM      5  S   UNL     1      -0.608  11.665  21.861  0.00  0.00    +0.000 S 
ATOM      6  N   UNL     1       0.431  10.126  19.839  0.00  0.00    +0.000 N 
ATOM      7  C   UNL     1       1.129   8.962  19.540  0.00  0.00    +0.000 C 
ATOM      8  O   UNL     1       1.499   8.622  18.428  0.00  0.00    +0.000 OA
ENDROOT
BRANCH   1  11
ATOM      9  C   UNL     1       2.087   4.398  18.160  0.00  0.00    +0.000 A 
ATOM     10  C   UNL     1       1.671   5.182  19.247  0.00  0.00    +0.000 A 
ATOM     11  C   UNL     1       2.496   6.175  19.778  0.00  0.00    +0.000 A 
ATOM     12  C   UNL     1       3.767   6.372  19.231  0.00  0.00    +0.000 A 
ATOM     13  C   UNL     1       4.201   5.606  18.143  0.00  0.00    +0.000 A 
ATOM     14  C   UNL     1       3.357   4.619  17.605  0.00  0.00    +0.000 A 
BRANCH   9  16
ATOM     15  C   UNL     1       0.907   2.376  18.696  0.00  0.00    +0.000 C 
ATOM     16  O   UNL     1       1.154   3.457  17.809  0.00  0.00    +0.000 OA
ENDBRANCH   9  16
BRANCH  13  17
ATOM     17  O   UNL     1       5.502   5.833  17.771  0.00  0.00    +0.000 OA
ATOM     18  C   UNL     1       6.513   5.262  18.597  0.00  0.00    +0.000 C 
ENDBRANCH  13  17
BRANCH  14  19
ATOM     19  O   UNL     1       3.807   3.833  16.581  0.00  0.00    +0.000 OA
ATOM     20  H   UNL     1       3.065   3.770  15.955  0.00  0.00    +0.000 HD
ENDBRANCH  14  19
ENDBRANCH   1  11
BRANCH   6  21
ATOM     21  C   UNL     1       0.132  11.052  18.749  0.00  0.00    +0.000 C 
BRANCH  21  22
ATOM     22  C   UNL     1      -1.270  10.932  18.200  0.00  0.00    +0.000 A 
ATOM     23  C   UNL     1      -1.596   9.934  17.270  0.00  0.00    +0.000 A 
ATOM     24  C   UNL     1      -2.913   9.776  16.830  0.00  0.00    +0.000 A 
ATOM     25  C   UNL     1      -3.917  10.615  17.308  0.00  0.00    +0.000 A 
ATOM     26  C   UNL     1      -3.602  11.626  18.212  0.00  0.00    +0.000 A 
ATOM     27  C   UNL     1      -2.287  11.787  18.652  0.00  0.00    +0.000 A 
ENDBRANCH  21  22
ENDBRANCH   6  21
TORSDOF 6
ENDMDL
MODEL 2
REMARK VINA RESULT:      -7.1      0.495      2.639
REMARK  Name = 
REMARK  8 active torsions:
REMARK  status: ('A' for Active; 'I' for Inactive)
REMARK    1  A    between atoms: C_1  and  O_2
REMARK    2  A    between atoms: O_2  and  C_3
REMARK    3  A    between atoms: C_5  and  C_6
REMARK    4  A    between atoms: N_11  and  C_12
REMARK    5  A    between atoms: C_12  and  C_13
REMARK    6  A    between atoms: C_22  and  O_23
REMARK    7  A    between atoms: O_23  and  C_24
REMARK    8  A    between atoms: C_25  and  O_26
REMARK                            x       y       z     vdW  Elec       q    Type
REMARK                         _______ _______ _______ _____ _____    ______ ____
ROOT
ATOM      1  C   UNL     1       2.055   7.027  20.879  0.00  0.00    +0.000 C 
ATOM      2  C   UNL     1       1.435   8.210  20.772  0.00  0.00    +0.000 C 
ATOM      3  S   UNL     1       0.904   9.107  22.145  0.00  0.00    +0.000 S 
ATOM      4  C   UNL     1       0.200  10.384  21.159  0.00  0.00    +0.000 C 
ATOM      5  S   UNL     1      -0.569  11.693  21.855  0.00  0.00    +0.000 S 
ATOM      6  N   UNL     1       0.411  10.122  19.827  0.00  0.00    +0.000 N 
ATOM      7  C   UNL     1       1.100   8.953  19.526  0.00  0.00    +0.000 C 
ATOM      8  O   UNL     1       1.437   8.596  18.409  0.00  0.00    +0.000 OA
ENDROOT
BRANCH   1  11
ATOM      9  C   UNL     1       4.132   5.519  18.102  0.00  0.00    +0.000 A 
ATOM     10  C   UNL     1       3.711   6.358  19.145  0.00  0.00    +0.000 A 
ATOM     11  C   UNL     1       2.475   6.171  19.767  0.00  0.00    +0.000 A 
ATOM     12  C   UNL     1       1.636   5.146  19.323  0.00  0.00    +0.000 A 
ATOM     13  C   UNL     1       2.037   4.293  18.289  0.00  0.00    +0.000 A 
ATOM     14  C   UNL     1       3.290   4.479  17.679  0.00  0.00    +0.000 A 
BRANCH   9  16
ATOM     15  C   UNL     1       5.399   6.656  16.408  0.00  0.00    +0.000 C 
ATOM     16  O   UNL     1       5.354   5.886  17.600  0.00  0.00    +0.000 OA
ENDBRANCH   9  16
BRANCH  13  17
ATOM     17  O   UNL     1       1.079   3.398  17.886  0.00  0.00    +0.000 OA
ATOM     18  C   UNL     1       0.808   2.310  18.765  0.00  0.00    +0.000 C 
ENDBRANCH  13  17
BRANCH  14  19
ATOM     19  O   UNL     1       3.653   3.683  16.629  0.00  0.00    +0.000 OA
ATOM     20  H   UNL     1       3.617   4.256  15.843  0.00  0.00    +0.000 HD
ENDBRANCH  14  19
ENDBRANCH   1  11
BRANCH   6  21
ATOM     21  C   UNL     1       0.079  11.031  18.732  0.00  0.00    +0.000 C 
BRANCH  21  22
ATOM     22  C   UNL     1      -1.325  10.874  18.199  0.00  0.00    +0.000 A 
ATOM     23  C   UNL     1      -2.364  11.696  18.658  0.00  0.00    +0.000 A 
ATOM     24  C   UNL     1      -3.644  11.602  18.101  0.00  0.00    +0.000 A 
ATOM     25  C   UNL     1      -3.900  10.682  17.087  0.00  0.00    +0.000 A 
ATOM     26  C   UNL     1      -2.883   9.842  16.641  0.00  0.00    +0.000 A 
ATOM     27  C   UNL     1      -1.606   9.933  17.196  0.00  0.00    +0.000 A 
ENDBRANCH  21  22
ENDBRANCH   6  21
TORSDOF 6
ENDMDL
MODEL 3
REMARK VINA RESULT:      -7.1      0.136      2.457
REMARK  Name = 
REMARK  8 active torsions:
REMARK  status: ('A' for Active; 'I' for Inactive)
REMARK    1  A    between atoms: C_1  and  O_2
REMARK    2  A    between atoms: O_2  and  C_3
REMARK    3  A    between atoms: C_5  and  C_6
REMARK    4  A    between atoms: N_11  and  C_12
REMARK    5  A    between atoms: C_12  and  C_13
REMARK    6  A    between atoms: C_22  and  O_23
REMARK    7  A    between atoms: O_23  and  C_24
REMARK    8  A    between atoms: C_25  and  O_26
REMARK                            x       y       z     vdW  Elec       q    Type
REMARK                         _______ _______ _______ _____ _____    ______ ____
ROOT
ATOM      1  C   UNL     1       2.073   7.011  20.855  0.00  0.00    +0.000 C 
ATOM      2  C   UNL     1       1.452   8.194  20.762  0.00  0.00    +0.000 C 
ATOM      3  S   UNL     1       0.895   9.063  22.142  0.00  0.00    +0.000 S 
ATOM      4  C   UNL     1       0.204  10.357  21.170  0.00  0.00    +0.000 C 
ATOM      5  S   UNL     1      -0.580  11.651  21.879  0.00  0.00    +0.000 S 
ATOM      6  N   UNL     1       0.438  10.122  19.838  0.00  0.00    +0.000 N 
ATOM      7  C   UNL     1       1.136   8.961  19.525  0.00  0.00    +0.000 C 
ATOM      8  O   UNL     1       1.493   8.627  18.407  0.00  0.00    +0.000 OA
ENDROOT
BRANCH   1  11
ATOM      9  C   UNL     1       4.190   5.581  18.068  0.00  0.00    +0.000 A 
ATOM     10  C   UNL     1       3.748   6.397  19.120  0.00  0.00    +0.000 A 
ATOM     11  C   UNL     1       2.514   6.178  19.734  0.00  0.00    +0.000 A 
ATOM     12  C   UNL     1       1.696   5.142  19.273  0.00  0.00    +0.000 A 
ATOM     13  C   UNL     1       2.118   4.312  18.229  0.00  0.00    +0.000 A 
ATOM     14  C   UNL     1       3.370   4.530  17.627  0.00  0.00    +0.000 A 
BRANCH   9  16
ATOM     15  C   UNL     1       6.564   5.783  18.375  0.00  0.00    +0.000 C 
ATOM     16  O   UNL     1       5.407   5.977  17.576  0.00  0.00    +0.000 OA
ENDBRANCH   9  16
BRANCH  13  17
ATOM     17  O   UNL     1       1.179   3.404  17.810  0.00  0.00    +0.000 OA
ATOM     18  C   UNL     1       0.824   2.378  18.732  0.00  0.00    +0.000 C 
ENDBRANCH  13  17
BRANCH  14  19
ATOM     19  O   UNL     1       3.753   3.756  16.568  0.00  0.00    +0.000 OA
ATOM     20  H   UNL     1       3.521   2.843  16.815  0.00  0.00    +0.000 HD
ENDBRANCH  14  19
ENDBRANCH   1  11
BRANCH   6  21
ATOM     21  C   UNL     1       0.124  11.052  18.755  0.00  0.00    +0.000 C 
BRANCH  21  22
ATOM     22  C   UNL     1      -1.286  10.933  18.226  0.00  0.00    +0.000 A 
ATOM     23  C   UNL     1      -1.623   9.943  17.292  0.00  0.00    +0.000 A 
ATOM     24  C   UNL     1      -2.946   9.784  16.870  0.00  0.00    +0.000 A 
ATOM     25  C   UNL     1      -3.945  10.616  17.370  0.00  0.00    +0.000 A 
ATOM     26  C   UNL     1      -3.619  11.620  18.278  0.00  0.00    +0.000 A 
ATOM     27  C   UNL     1      -2.299  11.781  18.700  0.00  0.00    +0.000 A 
ENDBRANCH  21  22
ENDBRANCH   6  21
TORSDOF 6
ENDMDL
MODEL 4
REMARK VINA RESULT:      -6.4      0.817      1.247
REMARK  Name = 
REMARK  8 active torsions:
REMARK  status: ('A' for Active; 'I' for Inactive)
REMARK    1  A    between atoms: C_1  and  O_2
REMARK    2  A    between atoms: O_2  and  C_3
REMARK    3  A    between atoms: C_5  and  C_6
REMARK    4  A    between atoms: N_11  and  C_12
REMARK    5  A    between atoms: C_12  and  C_13
REMARK    6  A    between atoms: C_22  and  O_23
REMARK    7  A    between atoms: O_23  and  C_24
REMARK    8  A    between atoms: C_25  and  O_26
REMARK                            x       y       z     vdW  Elec       q    Type
REMARK                         _______ _______ _______ _____ _____    ______ ____
ROOT
ATOM      1  C   UNL     1       1.829   7.512  21.100  0.00  0.00    +0.000 C 
ATOM      2  C   UNL     1       1.232   8.697  20.917  0.00  0.00    +0.000 C 
ATOM      3  S   UNL     1       0.810   9.736  22.225  0.00  0.00    +0.000 S 
ATOM      4  C   UNL     1       0.074  10.933  21.165  0.00  0.00    +0.000 C 
ATOM      5  S   UNL     1      -0.618  12.325  21.776  0.00  0.00    +0.000 S 
ATOM      6  N   UNL     1       0.194  10.539  19.855  0.00  0.00    +0.000 N 
ATOM      7  C   UNL     1       0.835   9.327  19.627  0.00  0.00    +0.000 C 
ATOM      8  O   UNL     1       1.092   8.855  18.531  0.00  0.00    +0.000 OA
ENDROOT
BRANCH   1  11
ATOM      9  C   UNL     1       1.846   4.358  19.014  0.00  0.00    +0.000 A 
ATOM     10  C   UNL     1       1.561   5.279  20.033  0.00  0.00    +0.000 A 
ATOM     11  C   UNL     1       2.158   6.541  20.053  0.00  0.00    +0.000 A 
ATOM     12  C   UNL     1       3.074   6.879  19.054  0.00  0.00    +0.000 A 
ATOM     13  C   UNL     1       3.370   5.979  18.024  0.00  0.00    +0.000 A 
ATOM     14  C   UNL     1       2.752   4.717  18.003  0.00  0.00    +0.000 A 
BRANCH   9  16
ATOM     15  C   UNL     1       1.564   2.337  20.279  0.00  0.00    +0.000 C 
ATOM     16  O   UNL     1       1.192   3.167  19.189  0.00  0.00    +0.000 OA
ENDBRANCH   9  16
BRANCH  13  17
ATOM     17  O   UNL     1       4.358   6.399  17.170  0.00  0.00    +0.000 OA
ATOM     18  C   UNL     1       5.697   6.065  17.526  0.00  0.00    +0.000 C 
ENDBRANCH  13  17
BRANCH  14  19
ATOM     19  O   UNL     1       3.090   3.818  17.030  0.00  0.00    +0.000 OA
ATOM     20  H   UNL     1       3.962   3.470  17.287  0.00  0.00    +0.000 HD
ENDBRANCH  14  19
ENDBRANCH   1  11
BRANCH   6  21
ATOM     21  C   UNL     1      -0.185  11.348  18.698  0.00  0.00    +0.000 C 
BRANCH  21  22
ATOM     22  C   UNL     1      -1.570  11.061  18.168  0.00  0.00    +0.000 A 
ATOM     23  C   UNL     1      -2.678  11.790  18.620  0.00  0.00    +0.000 A 
ATOM     24  C   UNL     1      -3.944  11.578  18.065  0.00  0.00    +0.000 A 
ATOM     25  C   UNL     1      -4.117  10.631  17.059  0.00  0.00    +0.000 A 
ATOM     26  C   UNL     1      -3.028   9.882  16.619  0.00  0.00    +0.000 A 
ATOM     27  C   UNL     1      -1.764  10.092  17.172  0.00  0.00    +0.000 A 
ENDBRANCH  21  22
ENDBRANCH   6  21
TORSDOF 6
ENDMDL
MODEL 5
REMARK VINA RESULT:      -6.3      1.557      2.636
REMARK  Name = 
REMARK  8 active torsions:
REMARK  status: ('A' for Active; 'I' for Inactive)
REMARK    1  A    between atoms: C_1  and  O_2
REMARK    2  A    between atoms: O_2  and  C_3
REMARK    3  A    between atoms: C_5  and  C_6
REMARK    4  A    between atoms: N_11  and  C_12
REMARK    5  A    between atoms: C_12  and  C_13
REMARK    6  A    between atoms: C_22  and  O_23
REMARK    7  A    between atoms: O_23  and  C_24
REMARK    8  A    between atoms: C_25  and  O_26
REMARK                            x       y       z     vdW  Elec       q    Type
REMARK                         _______ _______ _______ _____ _____    ______ ____
ROOT
ATOM      1  C   UNL     1       2.046   7.047  20.789  0.00  0.00    +0.000 C 
ATOM      2  C   UNL     1       1.405   8.218  20.680  0.00  0.00    +0.000 C 
ATOM      3  S   UNL     1       0.782   9.068  22.044  0.00  0.00    +0.000 S 
ATOM      4  C   UNL     1       0.099  10.353  21.054  0.00  0.00    +0.000 C 
ATOM      5  S   UNL     1      -0.736  11.626  21.741  0.00  0.00    +0.000 S 
ATOM      6  N   UNL     1       0.385  10.131  19.730  0.00  0.00    +0.000 N 
ATOM      7  C   UNL     1       1.117   8.986  19.436  0.00  0.00    +0.000 C 
ATOM      8  O   UNL     1       1.520   8.666  18.330  0.00  0.00    +0.000 OA
ENDROOT
BRANCH   1  11
ATOM      9  C   UNL     1       2.229   4.430  18.067  0.00  0.00    +0.000 A 
ATOM     10  C   UNL     1       1.772   5.194  19.151  0.00  0.00    +0.000 A 
ATOM     11  C   UNL     1       2.544   6.230  19.681  0.00  0.00    +0.000 A 
ATOM     12  C   UNL     1       3.804   6.490  19.136  0.00  0.00    +0.000 A 
ATOM     13  C   UNL     1       4.279   5.744  18.051  0.00  0.00    +0.000 A 
ATOM     14  C   UNL     1       3.488   4.714  17.514  0.00  0.00    +0.000 A 
BRANCH   9  16
ATOM     15  C   UNL     1       0.887   2.549  18.720  0.00  0.00    +0.000 C 
ATOM     16  O   UNL     1       1.347   3.441  17.716  0.00  0.00    +0.000 OA
ENDBRANCH   9  16
BRANCH  13  17
ATOM     17  O   UNL     1       5.568   6.036  17.682  0.00  0.00    +0.000 OA
ATOM     18  C   UNL     1       6.606   5.447  18.459  0.00  0.00    +0.000 C 
ENDBRANCH  13  17
BRANCH  14  19
ATOM     19  O   UNL     1       3.980   3.949  16.494  0.00  0.00    +0.000 OA
ATOM     20  H   UNL     1       4.654   3.375  16.899  0.00  0.00    +0.000 HD
ENDBRANCH  14  19
ENDBRANCH   1  11
BRANCH   6  21
ATOM     21  C   UNL     1       0.090  11.060  18.641  0.00  0.00    +0.000 C 
BRANCH  21  22
ATOM     22  C   UNL     1       0.912  12.327  18.668  0.00  0.00    +0.000 A 
ATOM     23  C   UNL     1       2.286  12.299  18.391  0.00  0.00    +0.000 A 
ATOM     24  C   UNL     1       3.024  13.486  18.336  0.00  0.00    +0.000 A 
ATOM     25  C   UNL     1       2.401  14.710  18.563  0.00  0.00    +0.000 A 
ATOM     26  C   UNL     1       1.041  14.749  18.865  0.00  0.00    +0.000 A 
ATOM     27  C   UNL     1       0.303  13.566  18.921  0.00  0.00    +0.000 A 
ENDBRANCH  21  22
ENDBRANCH   6  21
TORSDOF 6
ENDMDL
MODEL 6
REMARK VINA RESULT:      -6.3      1.581      3.609
REMARK  Name = 
REMARK  8 active torsions:
REMARK  status: ('A' for Active; 'I' for Inactive)
REMARK    1  A    between atoms: C_1  and  O_2
REMARK    2  A    between atoms: O_2  and  C_3
REMARK    3  A    between atoms: C_5  and  C_6
REMARK    4  A    between atoms: N_11  and  C_12
REMARK    5  A    between atoms: C_12  and  C_13
REMARK    6  A    between atoms: C_22  and  O_23
REMARK    7  A    between atoms: O_23  and  C_24
REMARK    8  A    between atoms: C_25  and  O_26
REMARK                            x       y       z     vdW  Elec       q    Type
REMARK                         _______ _______ _______ _____ _____    ______ ____
ROOT
ATOM      1  C   UNL     1       2.057   7.090  20.753  0.00  0.00    +0.000 C 
ATOM      2  C   UNL     1       1.411   8.259  20.661  0.00  0.00    +0.000 C 
ATOM      3  S   UNL     1       0.801   9.095  22.039  0.00  0.00    +0.000 S 
ATOM      4  C   UNL     1       0.103  10.387  21.068  0.00  0.00    +0.000 C 
ATOM      5  S   UNL     1      -0.728  11.651  21.775  0.00  0.00    +0.000 S 
ATOM      6  N   UNL     1       0.374  10.176  19.739  0.00  0.00    +0.000 N 
ATOM      7  C   UNL     1       1.106   9.036  19.427  0.00  0.00    +0.000 C 
ATOM      8  O   UNL     1       1.497   8.727  18.313  0.00  0.00    +0.000 OA
ENDROOT
BRANCH   1  11
ATOM      9  C   UNL     1       4.250   5.784  17.963  0.00  0.00    +0.000 A 
ATOM     10  C   UNL     1       3.763   6.574  19.015  0.00  0.00    +0.000 A 
ATOM     11  C   UNL     1       2.544   6.283  19.632  0.00  0.00    +0.000 A 
ATOM     12  C   UNL     1       1.788   5.202  19.172  0.00  0.00    +0.000 A 
ATOM     13  C   UNL     1       2.256   4.396  18.128  0.00  0.00    +0.000 A 
ATOM     14  C   UNL     1       3.492   4.687  17.524  0.00  0.00    +0.000 A 
BRANCH   9  16
ATOM     15  C   UNL     1       6.644   5.890  18.130  0.00  0.00    +0.000 C 
ATOM     16  O   UNL     1       5.441   6.251  17.468  0.00  0.00    +0.000 OA
ENDBRANCH   9  16
BRANCH  13  17
ATOM     17  O   UNL     1       1.372   3.435  17.711  0.00  0.00    +0.000 OA
ATOM     18  C   UNL     1       0.896   2.529  18.703  0.00  0.00    +0.000 C 
ENDBRANCH  13  17
BRANCH  14  19
ATOM     19  O   UNL     1       3.918   3.936  16.465  0.00  0.00    +0.000 OA
ATOM     20  H   UNL     1       4.890   3.970  16.495  0.00  0.00    +0.000 HD
ENDBRANCH  14  19
ENDBRANCH   1  11
BRANCH   6  21
ATOM     21  C   UNL     1       0.063  11.113  18.661  0.00  0.00    +0.000 C 
BRANCH  21  22
ATOM     22  C   UNL     1       0.897  12.373  18.675  0.00  0.00    +0.000 A 
ATOM     23  C   UNL     1       2.270  12.330  18.395  0.00  0.00    +0.000 A 
ATOM     24  C   UNL     1       3.019  13.508  18.327  0.00  0.00    +0.000 A 
ATOM     25  C   UNL     1       2.408  14.740  18.546  0.00  0.00    +0.000 A 
ATOM     26  C   UNL     1       1.050  14.794  18.851  0.00  0.00    +0.000 A 
ATOM     27  C   UNL     1       0.300  13.619  18.920  0.00  0.00    +0.000 A 
ENDBRANCH  21  22
ENDBRANCH   6  21
TORSDOF 6
ENDMDL
MODEL 7
REMARK VINA RESULT:      -6.1      3.099      5.568
REMARK  Name = 
REMARK  8 active torsions:
REMARK  status: ('A' for Active; 'I' for Inactive)
REMARK    1  A    between atoms: C_1  and  O_2
REMARK    2  A    between atoms: O_2  and  C_3
REMARK    3  A    between atoms: C_5  and  C_6
REMARK    4  A    between atoms: N_11  and  C_12
REMARK    5  A    between atoms: C_12  and  C_13
REMARK    6  A    between atoms: C_22  and  O_23
REMARK    7  A    between atoms: O_23  and  C_24
REMARK    8  A    between atoms: C_25  and  O_26
REMARK                            x       y       z     vdW  Elec       q    Type
REMARK                         _______ _______ _______ _____ _____    ______ ____
ROOT
ATOM      1  C   UNL     1       3.977   7.767  16.959  0.00  0.00    +0.000 C 
ATOM      2  C   UNL     1       3.075   7.865  17.944  0.00  0.00    +0.000 C 
ATOM      3  S   UNL     1       1.890   9.116  17.997  0.00  0.00    +0.000 S 
ATOM      4  C   UNL     1       1.232   8.561  19.532  0.00  0.00    +0.000 C 
ATOM      5  S   UNL     1      -0.036   9.358  20.272  0.00  0.00    +0.000 S 
ATOM      6  N   UNL     1       1.894   7.432  19.948  0.00  0.00    +0.000 N 
ATOM      7  C   UNL     1       2.913   6.970  19.123  0.00  0.00    +0.000 C 
ATOM      8  O   UNL     1       3.558   5.949  19.296  0.00  0.00    +0.000 OA
ENDROOT
BRANCH   1  11
ATOM      9  C   UNL     1       6.033   4.789  15.862  0.00  0.00    +0.000 A 
ATOM     10  C   UNL     1       4.986   5.718  15.971  0.00  0.00    +0.000 A 
ATOM     11  C   UNL     1       5.056   6.781  16.874  0.00  0.00    +0.000 A 
ATOM     12  C   UNL     1       6.177   6.903  17.699  0.00  0.00    +0.000 A 
ATOM     13  C   UNL     1       7.236   5.992  17.604  0.00  0.00    +0.000 A 
ATOM     14  C   UNL     1       7.164   4.935  16.681  0.00  0.00    +0.000 A 
BRANCH   9  16
ATOM     15  C   UNL     1       6.279   3.930  13.633  0.00  0.00    +0.000 C 
ATOM     16  O   UNL     1       5.762   3.803  14.949  0.00  0.00    +0.000 OA
ENDBRANCH   9  16
BRANCH  13  17
ATOM     17  O   UNL     1       8.224   6.170  18.539  0.00  0.00    +0.000 OA
ATOM     18  C   UNL     1       7.993   5.612  19.829  0.00  0.00    +0.000 C 
ENDBRANCH  13  17
BRANCH  14  19
ATOM     19  O   UNL     1       8.172   4.013  16.633  0.00  0.00    +0.000 OA
ATOM     20  H   UNL     1       8.047   3.449  17.416  0.00  0.00    +0.000 HD
ENDBRANCH  14  19
ENDBRANCH   1  11
BRANCH   6  21
ATOM     21  C   UNL     1       1.527   6.626  21.111  0.00  0.00    +0.000 C 
BRANCH  21  22
ATOM     22  C   UNL     1       1.574   5.135  20.870  0.00  0.00    +0.000 A 
ATOM     23  C   UNL     1       2.407   4.309  21.638  0.00  0.00    +0.000 A 
ATOM     24  C   UNL     1       2.384   2.921  21.468  0.00  0.00    +0.000 A 
ATOM     25  C   UNL     1       1.536   2.345  20.525  0.00  0.00    +0.000 A 
ATOM     26  C   UNL     1       0.723   3.157  19.737  0.00  0.00    +0.000 A 
ATOM     27  C   UNL     1       0.745   4.542  19.905  0.00  0.00    +0.000 A 
ENDBRANCH  21  22
ENDBRANCH   6  21
TORSDOF 6
ENDMDL
MODEL 8
REMARK VINA RESULT:      -6.1      3.106      7.811
REMARK  Name = 
REMARK  8 active torsions:
REMARK  status: ('A' for Active; 'I' for Inactive)
REMARK    1  A    between atoms: C_1  and  O_2
REMARK    2  A    between atoms: O_2  and  C_3
REMARK    3  A    between atoms: C_5  and  C_6
REMARK    4  A    between atoms: N_11  and  C_12
REMARK    5  A    between atoms: C_12  and  C_13
REMARK    6  A    between atoms: C_22  and  O_23
REMARK    7  A    between atoms: O_23  and  C_24
REMARK    8  A    between atoms: C_25  and  O_26
REMARK                            x       y       z     vdW  Elec       q    Type
REMARK                         _______ _______ _______ _____ _____    ______ ____
ROOT
ATOM      1  C   UNL     1       2.255   9.467  17.614  0.00  0.00    +0.000 C 
ATOM      2  C   UNL     1       2.848   8.312  17.942  0.00  0.00    +0.000 C 
ATOM      3  S   UNL     1       4.155   7.648  17.036  0.00  0.00    +0.000 S 
ATOM      4  C   UNL     1       4.257   6.213  18.049  0.00  0.00    +0.000 C 
ATOM      5  S   UNL     1       5.378   5.013  17.744  0.00  0.00    +0.000 S 
ATOM      6  N   UNL     1       3.332   6.284  19.061  0.00  0.00    +0.000 N 
ATOM      7  C   UNL     1       2.526   7.416  19.088  0.00  0.00    +0.000 C 
ATOM      8  O   UNL     1       1.702   7.681  19.948  0.00  0.00    +0.000 OA
ENDROOT
BRANCH   1  11
ATOM      9  C   UNL     1       0.165  11.577  19.954  0.00  0.00    +0.000 A 
ATOM     10  C   UNL     1       1.268  10.976  19.329  0.00  0.00    +0.000 A 
ATOM     11  C   UNL     1       1.099  10.064  18.286  0.00  0.00    +0.000 A 
ATOM     12  C   UNL     1      -0.194   9.727  17.877  0.00  0.00    +0.000 A 
ATOM     13  C   UNL     1      -1.310  10.317  18.482  0.00  0.00    +0.000 A 
ATOM     14  C   UNL     1      -1.129  11.246  19.520  0.00  0.00    +0.000 A 
BRANCH   9  16
ATOM     15  C   UNL     1       1.691  13.219  20.813  0.00  0.00    +0.000 C 
ATOM     16  O   UNL     1       0.535  12.412  20.976  0.00  0.00    +0.000 OA
ENDBRANCH   9  16
BRANCH  13  17
ATOM     17  O   UNL     1      -2.516   9.822  18.054  0.00  0.00    +0.000 OA
ATOM     18  C   UNL     1      -2.833  10.007  16.678  0.00  0.00    +0.000 C 
ENDBRANCH  13  17
BRANCH  14  19
ATOM     19  O   UNL     1      -2.222  11.775  20.149  0.00  0.00    +0.000 OA
ATOM     20  H   UNL     1      -2.866  11.958  19.443  0.00  0.00    +0.000 HD
ENDBRANCH  14  19
ENDBRANCH   1  11
BRANCH   6  21
ATOM     21  C   UNL     1       3.223   5.333  20.166  0.00  0.00    +0.000 C 
BRANCH  21  22
ATOM     22  C   UNL     1       2.454   4.077  19.828  0.00  0.00    +0.000 A 
ATOM     23  C   UNL     1       1.062   4.022  19.984  0.00  0.00    +0.000 A 
ATOM     24  C   UNL     1       0.347   2.886  19.591  0.00  0.00    +0.000 A 
ATOM     25  C   UNL     1       1.015   1.793  19.044  0.00  0.00    +0.000 A 
ATOM     26  C   UNL     1       2.400   1.825  18.908  0.00  0.00    +0.000 A 
ATOM     27  C   UNL     1       3.116   2.957  19.301  0.00  0.00    +0.000 A 
ENDBRANCH  21  22
ENDBRANCH   6  21
TORSDOF 6
ENDMDL
MODEL 9
REMARK VINA RESULT:      -6.1      3.101      7.458
REMARK  Name = 
REMARK  8 active torsions:
REMARK  status: ('A' for Active; 'I' for Inactive)
REMARK    1  A    between atoms: C_1  and  O_2
REMARK    2  A    between atoms: O_2  and  C_3
REMARK    3  A    between atoms: C_5  and  C_6
REMARK    4  A    between atoms: N_11  and  C_12
REMARK    5  A    between atoms: C_12  and  C_13
REMARK    6  A    between atoms: C_22  and  O_23
REMARK    7  A    between atoms: O_23  and  C_24
REMARK    8  A    between atoms: C_25  and  O_26
REMARK                            x       y       z     vdW  Elec       q    Type
REMARK                         _______ _______ _______ _____ _____    ______ ____
ROOT
ATOM      1  C   UNL     1       2.150   9.504  17.626  0.00  0.00    +0.000 C 
ATOM      2  C   UNL     1       2.783   8.356  17.900  0.00  0.00    +0.000 C 
ATOM      3  S   UNL     1       3.991   7.692  16.866  0.00  0.00    +0.000 S 
ATOM      4  C   UNL     1       4.211   6.267  17.876  0.00  0.00    +0.000 C 
ATOM      5  S   UNL     1       5.301   5.071  17.464  0.00  0.00    +0.000 S 
ATOM      6  N   UNL     1       3.398   6.342  18.980  0.00  0.00    +0.000 N 
ATOM      7  C   UNL     1       2.590   7.469  19.081  0.00  0.00    +0.000 C 
ATOM      8  O   UNL     1       1.861   7.737  20.022  0.00  0.00    +0.000 OA
ENDROOT
BRANCH   1  11
ATOM      9  C   UNL     1      -1.310  10.460  18.814  0.00  0.00    +0.000 A 
ATOM     10  C   UNL     1      -0.268   9.919  18.045  0.00  0.00    +0.000 A 
ATOM     11  C   UNL     1       1.067  10.100  18.412  0.00  0.00    +0.000 A 
ATOM     12  C   UNL     1       1.367  10.855  19.549  0.00  0.00    +0.000 A 
ATOM     13  C   UNL     1       0.344  11.399  20.334  0.00  0.00    +0.000 A 
ATOM     14  C   UNL     1      -0.998  11.198  19.966  0.00  0.00    +0.000 A 
BRANCH   9  16
ATOM     15  C   UNL     1      -2.632   9.902  16.888  0.00  0.00    +0.000 C 
ATOM     16  O   UNL     1      -2.544  10.205  18.272  0.00  0.00    +0.000 OA
ENDBRANCH   9  16
BRANCH  13  17
ATOM     17  O   UNL     1       0.779  12.198  21.360  0.00  0.00    +0.000 OA
ATOM     18  C   UNL     1       1.108  13.544  21.028  0.00  0.00    +0.000 C 
ENDBRANCH  13  17
BRANCH  14  19
ATOM     19  O   UNL     1      -1.992  11.781  20.701  0.00  0.00    +0.000 OA
ATOM     20  H   UNL     1      -2.689  11.106  20.779  0.00  0.00    +0.000 HD
ENDBRANCH  14  19
ENDBRANCH   1  11
BRANCH   6  21
ATOM     21  C   UNL     1       3.413   5.401  20.098  0.00  0.00    +0.000 C 
BRANCH  21  22
ATOM     22  C   UNL     1       2.474   4.229  19.934  0.00  0.00    +0.000 A 
ATOM     23  C   UNL     1       2.041   3.493  21.046  0.00  0.00    +0.000 A 
ATOM     24  C   UNL     1       1.108   2.463  20.897  0.00  0.00    +0.000 A 
ATOM     25  C   UNL     1       0.603   2.152  19.637  0.00  0.00    +0.000 A 
ATOM     26  C   UNL     1       1.044   2.858  18.521  0.00  0.00    +0.000 A 
ATOM     27  C   UNL     1       1.977   3.886  18.667  0.00  0.00    +0.000 A 
ENDBRANCH  21  22
ENDBRANCH   6  21
TORSDOF 6
ENDMDL
