MODEL 1
REMARK VINA RESULT:      -7.4      0.000      0.000
REMARK  Name = 
REMARK  7 active torsions:
REMARK  status: ('A' for Active; 'I' for Inactive)
REMARK    1  A    between atoms: C_1  and  C_2
REMARK    2  A    between atoms: C_2  and  C_3
REMARK    3  A    between atoms: C_2  and  C_4
REMARK    4  A    between atoms: C_2  and  O_5
REMARK    5  A    between atoms: O_5  and  C_6
REMARK    6  A    between atoms: C_8  and  O_9
REMARK    7  A    between atoms: C_14  and  C_15
REMARK                            x       y       z     vdW  Elec       q    Type
REMARK                         _______ _______ _______ _____ _____    ______ ____
ROOT
ATOM      1  C   UNL     1       3.997   3.318  19.341  0.00  0.00    +0.000 A 
ATOM      2  C   UNL     1       4.983   4.093  19.953  0.00  0.00    +0.000 A 
ATOM      3  C   UNL     1       5.939   4.787  19.220  0.00  0.00    +0.000 A 
ATOM      4  C   UNL     1       5.961   4.687  17.837  0.00  0.00    +0.000 A 
ATOM      5  C   UNL     1       6.973   5.390  17.023  0.00  0.00    +0.000 A 
ATOM      6  O   UNL     1       7.795   6.184  17.459  0.00  0.00    +0.000 OA
ATOM      7  C   UNL     1       6.970   5.090  15.594  0.00  0.00    +0.000 A 
ATOM      8  C   UNL     1       6.019   4.285  15.099  0.00  0.00    +0.000 A 
ATOM      9  O   UNL     1       5.000   3.703  15.834  0.00  0.00    +0.000 OA
ATOM     10  C   UNL     1       5.008   3.885  17.199  0.00  0.00    +0.000 A 
ATOM     11  C   UNL     1       4.018   3.217  17.944  0.00  0.00    +0.000 A 
ENDROOT
BRANCH   8  12
ATOM     12  C   UNL     1       6.029   3.964  13.677  0.00  0.00    +0.000 A 
ATOM     13  C   UNL     1       7.169   4.246  12.908  0.00  0.00    +0.000 A 
ATOM     14  C   UNL     1       7.166   3.986  11.535  0.00  0.00    +0.000 A 
ATOM     15  C   UNL     1       6.033   3.449  10.929  0.00  0.00    +0.000 A 
ATOM     16  C   UNL     1       4.897   3.173  11.688  0.00  0.00    +0.000 A 
ATOM     17  C   UNL     1       4.892   3.435  13.058  0.00  0.00    +0.000 A 
ENDBRANCH   8  12
BRANCH   3  18
ATOM     18  O   UNL     1       6.849   5.541  19.901  0.00  0.00    +0.000 OA
ATOM     19  H   UNL     1       7.174   6.267  19.347  0.00  0.00    +0.000 HD
ENDBRANCH   3  18
BRANCH   1  20
ATOM     20  O   UNL     1       3.004   2.640  20.006  0.00  0.00    +0.000 OA
BRANCH  20  22
ATOM     21  C   UNL     1       0.626   2.783  19.298  0.00  0.00    +0.000 C 
ATOM     22  C   UNL     1       1.722   3.264  20.274  0.00  0.00    +0.000 C 
ATOM     23  C   UNL     1       1.866   4.793  20.422  0.00  0.00    +0.000 C 
ATOM     24  C   UNL     1       1.247   2.771  21.662  0.00  0.00    +0.000 C 
ENDBRANCH  20  22
ENDBRANCH   1  20
TORSDOF 4
ENDMDL
MODEL 2
REMARK VINA RESULT:      -7.4      0.585      1.115
REMARK  Name = 
REMARK  7 active torsions:
REMARK  status: ('A' for Active; 'I' for Inactive)
REMARK    1  A    between atoms: C_1  and  C_2
REMARK    2  A    between atoms: C_2  and  C_3
REMARK    3  A    between atoms: C_2  and  C_4
REMARK    4  A    between atoms: C_2  and  O_5
REMARK    5  A    between atoms: O_5  and  C_6
REMARK    6  A    between atoms: C_8  and  O_9
REMARK    7  A    between atoms: C_14  and  C_15
REMARK                            x       y       z     vdW  Elec       q    Type
REMARK                         _______ _______ _______ _____ _____    ______ ____
ROOT
ATOM      1  C   UNL     1       4.237   3.597  19.236  0.00  0.00    +0.000 A 
ATOM      2  C   UNL     1       5.217   4.488  19.675  0.00  0.00    +0.000 A 
ATOM      3  C   UNL     1       6.062   5.150  18.792  0.00  0.00    +0.000 A 
ATOM      4  C   UNL     1       5.977   4.902  17.430  0.00  0.00    +0.000 A 
ATOM      5  C   UNL     1       6.870   5.568  16.460  0.00  0.00    +0.000 A 
ATOM      6  O   UNL     1       7.672   6.449  16.737  0.00  0.00    +0.000 OA
ATOM      7  C   UNL     1       6.769   5.113  15.077  0.00  0.00    +0.000 A 
ATOM      8  C   UNL     1       5.836   4.207  14.755  0.00  0.00    +0.000 A 
ATOM      9  O   UNL     1       4.921   3.653  15.633  0.00  0.00    +0.000 OA
ATOM     10  C   UNL     1       5.029   3.983  16.966  0.00  0.00    +0.000 A 
ATOM     11  C   UNL     1       4.149   3.345  17.861  0.00  0.00    +0.000 A 
ENDROOT
BRANCH   8  12
ATOM     12  C   UNL     1       5.749   3.734  13.378  0.00  0.00    +0.000 A 
ATOM     13  C   UNL     1       4.497   3.644  12.750  0.00  0.00    +0.000 A 
ATOM     14  C   UNL     1       4.403   3.144  11.449  0.00  0.00    +0.000 A 
ATOM     15  C   UNL     1       5.550   2.733  10.775  0.00  0.00    +0.000 A 
ATOM     16  C   UNL     1       6.795   2.814  11.397  0.00  0.00    +0.000 A 
ATOM     17  C   UNL     1       6.894   3.308  12.698  0.00  0.00    +0.000 A 
ENDBRANCH   8  12
BRANCH   3  18
ATOM     18  O   UNL     1       6.974   6.024  19.307  0.00  0.00    +0.000 OA
ATOM     19  H   UNL     1       7.827   5.934  18.855  0.00  0.00    +0.000 HD
ENDBRANCH   3  18
BRANCH   1  20
ATOM     20  O   UNL     1       3.348   2.941  20.053  0.00  0.00    +0.000 OA
BRANCH  20  22
ATOM     21  C   UNL     1       1.039   2.831  19.141  0.00  0.00    +0.000 C 
ATOM     22  C   UNL     1       1.986   3.416  20.212  0.00  0.00    +0.000 C 
ATOM     23  C   UNL     1       1.946   4.949  20.381  0.00  0.00    +0.000 C 
ATOM     24  C   UNL     1       1.452   2.852  21.551  0.00  0.00    +0.000 C 
ENDBRANCH  20  22
ENDBRANCH   1  20
TORSDOF 4
ENDMDL
MODEL 3
REMARK VINA RESULT:      -7.4      0.354      1.362
REMARK  Name = 
REMARK  7 active torsions:
REMARK  status: ('A' for Active; 'I' for Inactive)
REMARK    1  A    between atoms: C_1  and  C_2
REMARK    2  A    between atoms: C_2  and  C_3
REMARK    3  A    between atoms: C_2  and  C_4
REMARK    4  A    between atoms: C_2  and  O_5
REMARK    5  A    between atoms: O_5  and  C_6
REMARK    6  A    between atoms: C_8  and  O_9
REMARK    7  A    between atoms: C_14  and  C_15
REMARK                            x       y       z     vdW  Elec       q    Type
REMARK                         _______ _______ _______ _____ _____    ______ ____
ROOT
ATOM      1  C   UNL     1       3.971   3.265  19.209  0.00  0.00    +0.000 A 
ATOM      2  C   UNL     1       4.908   4.011  19.923  0.00  0.00    +0.000 A 
ATOM      3  C   UNL     1       5.901   4.750  19.291  0.00  0.00    +0.000 A 
ATOM      4  C   UNL     1       6.012   4.727  17.908  0.00  0.00    +0.000 A 
ATOM      5  C   UNL     1       7.065   5.480  17.199  0.00  0.00    +0.000 A 
ATOM      6  O   UNL     1       7.851   6.254  17.729  0.00  0.00    +0.000 OA
ATOM      7  C   UNL     1       7.154   5.258  15.759  0.00  0.00    +0.000 A 
ATOM      8  C   UNL     1       6.244   4.476  15.162  0.00  0.00    +0.000 A 
ATOM      9  O   UNL     1       5.187   3.848  15.798  0.00  0.00    +0.000 OA
ATOM     10  C   UNL     1       5.108   3.955  17.169  0.00  0.00    +0.000 A 
ATOM     11  C   UNL     1       4.080   3.240  17.812  0.00  0.00    +0.000 A 
ENDROOT
BRANCH   8  12
ATOM     12  C   UNL     1       6.346   4.233  13.727  0.00  0.00    +0.000 A 
ATOM     13  C   UNL     1       5.439   3.363  13.103  0.00  0.00    +0.000 A 
ATOM     14  C   UNL     1       5.563   3.088  11.739  0.00  0.00    +0.000 A 
ATOM     15  C   UNL     1       6.585   3.675  10.998  0.00  0.00    +0.000 A 
ATOM     16  C   UNL     1       7.493   4.534  11.616  0.00  0.00    +0.000 A 
ATOM     17  C   UNL     1       7.377   4.809  12.979  0.00  0.00    +0.000 A 
ENDBRANCH   8  12
BRANCH   3  18
ATOM     18  O   UNL     1       6.760   5.471  20.068  0.00  0.00    +0.000 OA
ATOM     19  H   UNL     1       6.798   5.105  20.965  0.00  0.00    +0.000 HD
ENDBRANCH   3  18
BRANCH   1  20
ATOM     20  O   UNL     1       2.945   2.545  19.772  0.00  0.00    +0.000 OA
BRANCH  20  22
ATOM     21  C   UNL     1       1.764   4.723  19.972  0.00  0.00    +0.000 C 
ATOM     22  C   UNL     1       1.719   3.195  20.196  0.00  0.00    +0.000 C 
ATOM     23  C   UNL     1       1.305   2.734  21.609  0.00  0.00    +0.000 C 
ATOM     24  C   UNL     1       0.585   2.701  19.266  0.00  0.00    +0.000 C 
ENDBRANCH  20  22
ENDBRANCH   1  20
TORSDOF 4
ENDMDL
MODEL 4
REMARK VINA RESULT:      -7.4      0.819      1.425
REMARK  Name = 
REMARK  7 active torsions:
REMARK  status: ('A' for Active; 'I' for Inactive)
REMARK    1  A    between atoms: C_1  and  C_2
REMARK    2  A    between atoms: C_2  and  C_3
REMARK    3  A    between atoms: C_2  and  C_4
REMARK    4  A    between atoms: C_2  and  O_5
REMARK    5  A    between atoms: O_5  and  C_6
REMARK    6  A    between atoms: C_8  and  O_9
REMARK    7  A    between atoms: C_14  and  C_15
REMARK                            x       y       z     vdW  Elec       q    Type
REMARK                         _______ _______ _______ _____ _____    ______ ____
ROOT
ATOM      1  C   UNL     1       3.257   4.518  19.051  0.00  0.00    +0.000 A 
ATOM      2  C   UNL     1       4.407   4.877  19.754  0.00  0.00    +0.000 A 
ATOM      3  C   UNL     1       5.625   5.089  19.120  0.00  0.00    +0.000 A 
ATOM      4  C   UNL     1       5.737   4.902  17.750  0.00  0.00    +0.000 A 
ATOM      5  C   UNL     1       7.018   5.097  17.040  0.00  0.00    +0.000 A 
ATOM      6  O   UNL     1       8.043   5.527  17.551  0.00  0.00    +0.000 OA
ATOM      7  C   UNL     1       7.031   4.733  15.627  0.00  0.00    +0.000 A 
ATOM      8  C   UNL     1       5.890   4.340  15.045  0.00  0.00    +0.000 A 
ATOM      9  O   UNL     1       4.658   4.255  15.671  0.00  0.00    +0.000 OA
ATOM     10  C   UNL     1       4.608   4.504  17.025  0.00  0.00    +0.000 A 
ATOM     11  C   UNL     1       3.368   4.329  17.667  0.00  0.00    +0.000 A 
ENDROOT
BRANCH   8  12
ATOM     12  C   UNL     1       5.905   3.952  13.638  0.00  0.00    +0.000 A 
ATOM     13  C   UNL     1       4.721   3.514  13.024  0.00  0.00    +0.000 A 
ATOM     14  C   UNL     1       4.741   3.094  11.692  0.00  0.00    +0.000 A 
ATOM     15  C   UNL     1       5.933   3.108  10.973  0.00  0.00    +0.000 A 
ATOM     16  C   UNL     1       7.112   3.536  11.581  0.00  0.00    +0.000 A 
ATOM     17  C   UNL     1       7.100   3.952  12.913  0.00  0.00    +0.000 A 
ENDBRANCH   8  12
BRANCH   3  18
ATOM     18  O   UNL     1       6.691   5.464  19.883  0.00  0.00    +0.000 OA
ATOM     19  H   UNL     1       7.186   6.179  19.453  0.00  0.00    +0.000 HD
ENDBRANCH   3  18
BRANCH   1  20
ATOM     20  O   UNL     1       2.018   4.330  19.613  0.00  0.00    +0.000 OA
BRANCH  20  22
ATOM     21  C   UNL     1       0.403   2.545  18.994  0.00  0.00    +0.000 C 
ATOM     22  C   UNL     1       1.536   3.000  19.939  0.00  0.00    +0.000 C 
ATOM     23  C   UNL     1       1.249   2.866  21.449  0.00  0.00    +0.000 C 
ATOM     24  C   UNL     1       2.692   2.008  19.662  0.00  0.00    +0.000 C 
ENDBRANCH  20  22
ENDBRANCH   1  20
TORSDOF 4
ENDMDL
MODEL 5
REMARK VINA RESULT:      -7.3      2.976      7.638
REMARK  Name = 
REMARK  7 active torsions:
REMARK  status: ('A' for Active; 'I' for Inactive)
REMARK    1  A    between atoms: C_1  and  C_2
REMARK    2  A    between atoms: C_2  and  C_3
REMARK    3  A    between atoms: C_2  and  C_4
REMARK    4  A    between atoms: C_2  and  O_5
REMARK    5  A    between atoms: O_5  and  C_6
REMARK    6  A    between atoms: C_8  and  O_9
REMARK    7  A    between atoms: C_14  and  C_15
REMARK                            x       y       z     vdW  Elec       q    Type
REMARK                         _______ _______ _______ _____ _____    ______ ____
ROOT
ATOM      1  C   UNL     1       4.251   4.065  17.112  0.00  0.00    +0.000 A 
ATOM      2  C   UNL     1       4.225   3.067  18.087  0.00  0.00    +0.000 A 
ATOM      3  C   UNL     1       3.560   3.232  19.296  0.00  0.00    +0.000 A 
ATOM      4  C   UNL     1       2.931   4.434  19.585  0.00  0.00    +0.000 A 
ATOM      5  C   UNL     1       2.232   4.658  20.867  0.00  0.00    +0.000 A 
ATOM      6  O   UNL     1       2.054   3.806  21.726  0.00  0.00    +0.000 OA
ATOM      7  C   UNL     1       1.735   6.011  21.099  0.00  0.00    +0.000 A 
ATOM      8  C   UNL     1       1.855   6.926  20.127  0.00  0.00    +0.000 A 
ATOM      9  O   UNL     1       2.412   6.701  18.880  0.00  0.00    +0.000 OA
ATOM     10  C   UNL     1       2.975   5.466  18.641  0.00  0.00    +0.000 A 
ATOM     11  C   UNL     1       3.615   5.279  17.401  0.00  0.00    +0.000 A 
ENDROOT
BRANCH   8  12
ATOM     12  C   UNL     1       1.381   8.284  20.366  0.00  0.00    +0.000 A 
ATOM     13  C   UNL     1       1.252   9.176  19.290  0.00  0.00    +0.000 A 
ATOM     14  C   UNL     1       0.846  10.492  19.519  0.00  0.00    +0.000 A 
ATOM     15  C   UNL     1       0.571  10.922  20.815  0.00  0.00    +0.000 A 
ATOM     16  C   UNL     1       0.704  10.042  21.888  0.00  0.00    +0.000 A 
ATOM     17  C   UNL     1       1.113   8.727  21.665  0.00  0.00    +0.000 A 
ENDBRANCH   8  12
BRANCH   3  18
ATOM     18  O   UNL     1       3.565   2.193  20.180  0.00  0.00    +0.000 OA
ATOM     19  H   UNL     1       3.036   2.409  20.963  0.00  0.00    +0.000 HD
ENDBRANCH   3  18
BRANCH   1  20
ATOM     20  O   UNL     1       4.857   3.950  15.885  0.00  0.00    +0.000 OA
BRANCH  20  22
ATOM     21  C   UNL     1       7.160   4.662  16.490  0.00  0.00    +0.000 C 
ATOM     22  C   UNL     1       5.970   4.805  15.516  0.00  0.00    +0.000 C 
ATOM     23  C   UNL     1       5.497   6.247  15.239  0.00  0.00    +0.000 C 
ATOM     24  C   UNL     1       6.516   4.296  14.160  0.00  0.00    +0.000 C 
ENDBRANCH  20  22
ENDBRANCH   1  20
TORSDOF 4
ENDMDL
MODEL 6
REMARK VINA RESULT:      -7.3      2.948      7.660
REMARK  Name = 
REMARK  7 active torsions:
REMARK  status: ('A' for Active; 'I' for Inactive)
REMARK    1  A    between atoms: C_1  and  C_2
REMARK    2  A    between atoms: C_2  and  C_3
REMARK    3  A    between atoms: C_2  and  C_4
REMARK    4  A    between atoms: C_2  and  O_5
REMARK    5  A    between atoms: O_5  and  C_6
REMARK    6  A    between atoms: C_8  and  O_9
REMARK    7  A    between atoms: C_14  and  C_15
REMARK                            x       y       z     vdW  Elec       q    Type
REMARK                         _______ _______ _______ _____ _____    ______ ____
ROOT
ATOM      1  C   UNL     1       4.224   3.993  17.139  0.00  0.00    +0.000 A 
ATOM      2  C   UNL     1       4.155   2.986  18.102  0.00  0.00    +0.000 A 
ATOM      3  C   UNL     1       3.476   3.156  19.303  0.00  0.00    +0.000 A 
ATOM      4  C   UNL     1       2.877   4.372  19.596  0.00  0.00    +0.000 A 
ATOM      5  C   UNL     1       2.165   4.602  20.870  0.00  0.00    +0.000 A 
ATOM      6  O   UNL     1       1.949   3.746  21.716  0.00  0.00    +0.000 OA
ATOM      7  C   UNL     1       1.702   5.965  21.109  0.00  0.00    +0.000 A 
ATOM      8  C   UNL     1       1.863   6.887  20.150  0.00  0.00    +0.000 A 
ATOM      9  O   UNL     1       2.433   6.661  18.909  0.00  0.00    +0.000 OA
ATOM     10  C   UNL     1       2.964   5.413  18.664  0.00  0.00    +0.000 A 
ATOM     11  C   UNL     1       3.619   5.222  17.433  0.00  0.00    +0.000 A 
ENDROOT
BRANCH   8  12
ATOM     12  C   UNL     1       1.424   8.256  20.397  0.00  0.00    +0.000 A 
ATOM     13  C   UNL     1       1.162   8.676  21.711  0.00  0.00    +0.000 A 
ATOM     14  C   UNL     1       0.694   9.970  21.950  0.00  0.00    +0.000 A 
ATOM     15  C   UNL     1       0.484  10.843  20.885  0.00  0.00    +0.000 A 
ATOM     16  C   UNL     1       0.736  10.428  19.579  0.00  0.00    +0.000 A 
ATOM     17  C   UNL     1       1.199   9.136  19.334  0.00  0.00    +0.000 A 
ENDBRANCH   8  12
BRANCH   3  18
ATOM     18  O   UNL     1       3.438   2.108  20.175  0.00  0.00    +0.000 OA
ATOM     19  H   UNL     1       4.238   2.091  20.724  0.00  0.00    +0.000 HD
ENDBRANCH   3  18
BRANCH   1  20
ATOM     20  O   UNL     1       4.846   3.874  15.920  0.00  0.00    +0.000 OA
BRANCH  20  22
ATOM     21  C   UNL     1       7.170   4.540  16.498  0.00  0.00    +0.000 C 
ATOM     22  C   UNL     1       5.958   4.734  15.560  0.00  0.00    +0.000 C 
ATOM     23  C   UNL     1       5.493   6.190  15.354  0.00  0.00    +0.000 C 
ATOM     24  C   UNL     1       6.467   4.276  14.172  0.00  0.00    +0.000 C 
ENDBRANCH  20  22
ENDBRANCH   1  20
TORSDOF 4
ENDMDL
MODEL 7
REMARK VINA RESULT:      -7.2      0.846      1.033
REMARK  Name = 
REMARK  7 active torsions:
REMARK  status: ('A' for Active; 'I' for Inactive)
REMARK    1  A    between atoms: C_1  and  C_2
REMARK    2  A    between atoms: C_2  and  C_3
REMARK    3  A    between atoms: C_2  and  C_4
REMARK    4  A    between atoms: C_2  and  O_5
REMARK    5  A    between atoms: O_5  and  C_6
REMARK    6  A    between atoms: C_8  and  O_9
REMARK    7  A    between atoms: C_14  and  C_15
REMARK                            x       y       z     vdW  Elec       q    Type
REMARK                         _______ _______ _______ _____ _____    ______ ____
ROOT
ATOM      1  C   UNL     1       3.259   4.507  19.022  0.00  0.00    +0.000 A 
ATOM      2  C   UNL     1       4.367   4.839  19.803  0.00  0.00    +0.000 A 
ATOM      3  C   UNL     1       5.621   5.067  19.249  0.00  0.00    +0.000 A 
ATOM      4  C   UNL     1       5.813   4.924  17.883  0.00  0.00    +0.000 A 
ATOM      5  C   UNL     1       7.134   5.136  17.257  0.00  0.00    +0.000 A 
ATOM      6  O   UNL     1       8.128   5.546  17.841  0.00  0.00    +0.000 OA
ATOM      7  C   UNL     1       7.230   4.819  15.836  0.00  0.00    +0.000 A 
ATOM      8  C   UNL     1       6.124   4.449  15.174  0.00  0.00    +0.000 A 
ATOM      9  O   UNL     1       4.858   4.349  15.724  0.00  0.00    +0.000 OA
ATOM     10  C   UNL     1       4.728   4.554  17.080  0.00  0.00    +0.000 A 
ATOM     11  C   UNL     1       3.452   4.363  17.642  0.00  0.00    +0.000 A 
ENDROOT
BRANCH   8  12
ATOM     12  C   UNL     1       6.222   4.107  13.760  0.00  0.00    +0.000 A 
ATOM     13  C   UNL     1       7.293   4.600  12.998  0.00  0.00    +0.000 A 
ATOM     14  C   UNL     1       7.366   4.317  11.631  0.00  0.00    +0.000 A 
ATOM     15  C   UNL     1       6.376   3.548  11.025  0.00  0.00    +0.000 A 
ATOM     16  C   UNL     1       5.307   3.063  11.777  0.00  0.00    +0.000 A 
ATOM     17  C   UNL     1       5.227   3.346  13.140  0.00  0.00    +0.000 A 
ENDBRANCH   8  12
BRANCH   3  18
ATOM     18  O   UNL     1       6.641   5.412  20.087  0.00  0.00    +0.000 OA
ATOM     19  H   UNL     1       7.236   4.659  20.229  0.00  0.00    +0.000 HD
ENDBRANCH   3  18
BRANCH   1  20
ATOM     20  O   UNL     1       1.989   4.306  19.504  0.00  0.00    +0.000 OA
BRANCH  20  22
ATOM     21  C   UNL     1       0.405   2.488  18.898  0.00  0.00    +0.000 C 
ATOM     22  C   UNL     1       1.520   2.976  19.849  0.00  0.00    +0.000 C 
ATOM     23  C   UNL     1       1.214   2.868  21.357  0.00  0.00    +0.000 C 
ATOM     24  C   UNL     1       2.692   1.994  19.607  0.00  0.00    +0.000 C 
ENDBRANCH  20  22
ENDBRANCH   1  20
TORSDOF 4
ENDMDL
MODEL 8
REMARK VINA RESULT:      -7.2      0.879      1.594
REMARK  Name = 
REMARK  7 active torsions:
REMARK  status: ('A' for Active; 'I' for Inactive)
REMARK    1  A    between atoms: C_1  and  C_2
REMARK    2  A    between atoms: C_2  and  C_3
REMARK    3  A    between atoms: C_2  and  C_4
REMARK    4  A    between atoms: C_2  and  O_5
REMARK    5  A    between atoms: O_5  and  C_6
REMARK    6  A    between atoms: C_8  and  O_9
REMARK    7  A    between atoms: C_14  and  C_15
REMARK                            x       y       z     vdW  Elec       q    Type
REMARK                         _______ _______ _______ _____ _____    ______ ____
ROOT
ATOM      1  C   UNL     1       3.343   4.493  18.996  0.00  0.00    +0.000 A 
ATOM      2  C   UNL     1       4.436   4.828  19.796  0.00  0.00    +0.000 A 
ATOM      3  C   UNL     1       5.690   5.097  19.260  0.00  0.00    +0.000 A 
ATOM      4  C   UNL     1       5.897   4.994  17.892  0.00  0.00    +0.000 A 
ATOM      5  C   UNL     1       7.218   5.251  17.283  0.00  0.00    +0.000 A 
ATOM      6  O   UNL     1       8.198   5.666  17.887  0.00  0.00    +0.000 OA
ATOM      7  C   UNL     1       7.332   4.972  15.855  0.00  0.00    +0.000 A 
ATOM      8  C   UNL     1       6.241   4.596  15.175  0.00  0.00    +0.000 A 
ATOM      9  O   UNL     1       4.973   4.454  15.710  0.00  0.00    +0.000 OA
ATOM     10  C   UNL     1       4.827   4.621  17.070  0.00  0.00    +0.000 A 
ATOM     11  C   UNL     1       3.550   4.389  17.615  0.00  0.00    +0.000 A 
ENDROOT
BRANCH   8  12
ATOM     12  C   UNL     1       6.358   4.293  13.753  0.00  0.00    +0.000 A 
ATOM     13  C   UNL     1       5.456   3.399  13.155  0.00  0.00    +0.000 A 
ATOM     14  C   UNL     1       5.594   3.067  11.805  0.00  0.00    +0.000 A 
ATOM     15  C   UNL     1       6.626   3.621  11.053  0.00  0.00    +0.000 A 
ATOM     16  C   UNL     1       7.529   4.503  11.644  0.00  0.00    +0.000 A 
ATOM     17  C   UNL     1       7.399   4.836  12.992  0.00  0.00    +0.000 A 
ENDBRANCH   8  12
BRANCH   3  18
ATOM     18  O   UNL     1       6.695   5.443  20.114  0.00  0.00    +0.000 OA
ATOM     19  H   UNL     1       6.576   6.351  20.433  0.00  0.00    +0.000 HD
ENDBRANCH   3  18
BRANCH   1  20
ATOM     20  O   UNL     1       2.073   4.252  19.461  0.00  0.00    +0.000 OA
BRANCH  20  22
ATOM     21  C   UNL     1       1.209   2.821  21.301  0.00  0.00    +0.000 C 
ATOM     22  C   UNL     1       1.649   2.912  19.823  0.00  0.00    +0.000 C 
ATOM     23  C   UNL     1       2.678   1.859  19.360  0.00  0.00    +0.000 C 
ATOM     24  C   UNL     1       0.366   2.598  19.017  0.00  0.00    +0.000 C 
ENDBRANCH  20  22
ENDBRANCH   1  20
TORSDOF 4
ENDMDL
MODEL 9
REMARK VINA RESULT:      -7.1      5.709      8.248
REMARK  Name = 
REMARK  7 active torsions:
REMARK  status: ('A' for Active; 'I' for Inactive)
REMARK    1  A    between atoms: C_1  and  C_2
REMARK    2  A    between atoms: C_2  and  C_3
REMARK    3  A    between atoms: C_2  and  C_4
REMARK    4  A    between atoms: C_2  and  O_5
REMARK    5  A    between atoms: O_5  and  C_6
REMARK    6  A    between atoms: C_8  and  O_9
REMARK    7  A    between atoms: C_14  and  C_15
REMARK                            x       y       z     vdW  Elec       q    Type
REMARK                         _______ _______ _______ _____ _____    ______ ____
ROOT
ATOM      1  C   UNL     1       0.277  10.666  21.600  0.00  0.00    +0.000 A 
ATOM      2  C   UNL     1       0.599  11.314  20.407  0.00  0.00    +0.000 A 
ATOM      3  C   UNL     1       1.160  10.640  19.328  0.00  0.00    +0.000 A 
ATOM      4  C   UNL     1       1.458   9.289  19.432  0.00  0.00    +0.000 A 
ATOM      5  C   UNL     1       2.074   8.541  18.317  0.00  0.00    +0.000 A 
ATOM      6  O   UNL     1       2.278   8.992  17.199  0.00  0.00    +0.000 OA
ATOM      7  C   UNL     1       2.462   7.164  18.605  0.00  0.00    +0.000 A 
ATOM      8  C   UNL     1       2.166   6.640  19.803  0.00  0.00    +0.000 A 
ATOM      9  O   UNL     1       1.494   7.295  20.820  0.00  0.00    +0.000 OA
ATOM     10  C   UNL     1       1.181   8.624  20.632  0.00  0.00    +0.000 A 
ATOM     11  C   UNL     1       0.577   9.302  21.706  0.00  0.00    +0.000 A 
ENDROOT
BRANCH   8  12
ATOM     12  C   UNL     1       2.575   5.272  20.102  0.00  0.00    +0.000 A 
ATOM     13  C   UNL     1       3.611   4.679  19.363  0.00  0.00    +0.000 A 
ATOM     14  C   UNL     1       3.974   3.352  19.611  0.00  0.00    +0.000 A 
ATOM     15  C   UNL     1       3.309   2.619  20.589  0.00  0.00    +0.000 A 
ATOM     16  C   UNL     1       2.275   3.202  21.321  0.00  0.00    +0.000 A 
ATOM     17  C   UNL     1       1.905   4.524  21.075  0.00  0.00    +0.000 A 
ENDBRANCH   8  12
BRANCH   3  18
ATOM     18  O   UNL     1       1.418  11.348  18.191  0.00  0.00    +0.000 OA
ATOM     19  H   UNL     1       2.366  11.333  17.988  0.00  0.00    +0.000 HD
ENDBRANCH   3  18
BRANCH   1  20
ATOM     20  O   UNL     1      -0.311  11.267  22.687  0.00  0.00    +0.000 OA
BRANCH  20  22
ATOM     21  C   UNL     1      -2.006  12.189  21.120  0.00  0.00    +0.000 C 
ATOM     22  C   UNL     1      -1.355  12.261  22.518  0.00  0.00    +0.000 C 
ATOM     23  C   UNL     1      -0.873  13.657  22.966  0.00  0.00    +0.000 C 
ATOM     24  C   UNL     1      -2.500  11.901  23.497  0.00  0.00    +0.000 C 
ENDBRANCH  20  22
ENDBRANCH   1  20
TORSDOF 4
ENDMDL
