MODEL 1
REMARK VINA RESULT:      -8.5      0.000      0.000
REMARK  Name = 
REMARK  11 active torsions:
REMARK  status: ('A' for Active; 'I' for Inactive)
REMARK    1  A    between atoms: C_1  and  O_2
REMARK    2  A    between atoms: O_2  and  C_3
REMARK    3  A    between atoms: C_5  and  C_6
REMARK    4  A    between atoms: C_6  and  O_8
REMARK    5  A    between atoms: O_8  and  C_9
REMARK    6  A    between atoms: C_17  and  N_18
REMARK    7  A    between atoms: C_21  and  N_22
REMARK    8  A    between atoms: C_28  and  O_29
REMARK    9  A    between atoms: O_29  and  C_30
REMARK   10  A    between atoms: C_31  and  O_32
REMARK   11  A    between atoms: O_32  and  C_33
REMARK                            x       y       z     vdW  Elec       q    Type
REMARK                         _______ _______ _______ _____ _____    ______ ____
ROOT
ATOM      1  C   UNL     1       2.318   7.782  18.747  0.00  0.00    +0.000 A 
ATOM      2  C   UNL     1       1.962   7.683  20.120  0.00  0.00    +0.000 A 
ATOM      3  C   UNL     1       1.759   6.433  20.707  0.00  0.00    +0.000 A 
ATOM      4  C   UNL     1       1.782   5.307  19.904  0.00  0.00    +0.000 A 
ATOM      5  C   UNL     1       2.119   5.451  18.554  0.00  0.00    +0.000 A 
ATOM      6  C   UNL     1       2.641   6.615  18.019  0.00  0.00    +0.000 A 
ATOM      7  C   UNL     1       4.067   6.314  17.474  0.00  0.00    +0.000 C 
ATOM      8  O   UNL     1       4.853   7.241  17.304  0.00  0.00    +0.000 OA
ATOM      9  C   UNL     1       4.560   4.777  17.355  0.00  0.00    +0.000 C 
ATOM     10  C   UNL     1       3.739   3.825  17.865  0.00  0.00    +0.000 C 
ATOM     11  C   UNL     1       2.351   4.285  17.760  0.00  0.00    +0.000 C 
ATOM     12  O   UNL     1       1.540   3.868  16.945  0.00  0.00    +0.000 OA
ENDROOT
BRANCH   9  13
ATOM     13  N   UNL     1       5.873   4.495  16.942  0.00  0.00    +0.000 N 
ATOM     14  C   UNL     1       5.964   3.690  15.702  0.00  0.00    +0.000 C 
ATOM     15  C   UNL     1       6.436   5.113  15.747  0.00  0.00    +0.000 C 
ENDBRANCH   9  13
BRANCH  10  16
ATOM     16  N   UNL     1       3.813   2.547  18.379  0.00  0.00    +0.000 N 
ATOM     17  C   UNL     1       4.299   2.347  19.731  0.00  0.00    +0.000 C 
ATOM     18  C   UNL     1       2.905   1.916  19.301  0.00  0.00    +0.000 C 
ENDBRANCH  10  16
BRANCH   1  19
ATOM     19  O   UNL     1       1.207   8.712  18.181  0.00  0.00    +0.000 OA
BRANCH  19  20
ATOM     20  C   UNL     1       0.848  10.030  18.472  0.00  0.00    +0.000 C 
ATOM     21  O   UNL     1       1.651  10.886  18.807  0.00  0.00    +0.000 OA
BRANCH  20  24
ATOM     22  C   UNL     1      -2.560  11.669  19.048  0.00  0.00    +0.000 A 
ATOM     23  C   UNL     1      -1.240  11.177  19.207  0.00  0.00    +0.000 A 
ATOM     24  C   UNL     1      -0.634  10.322  18.275  0.00  0.00    +0.000 A 
ATOM     25  C   UNL     1      -1.437   9.864  17.223  0.00  0.00    +0.000 A 
ATOM     26  C   UNL     1      -2.791  10.294  17.077  0.00  0.00    +0.000 A 
ATOM     27  C   UNL     1      -3.368  11.214  17.989  0.00  0.00    +0.000 A 
BRANCH  22  29
ATOM     28  C   UNL     1      -2.089  13.508  20.457  0.00  0.00    +0.000 C 
ATOM     29  O   UNL     1      -3.057  12.602  19.924  0.00  0.00    +0.000 OA
ENDBRANCH  22  29
BRANCH  26  30
ATOM     30  O   UNL     1      -3.405   9.728  15.975  0.00  0.00    +0.000 OA
ATOM     31  C   UNL     1      -3.214  10.296  14.680  0.00  0.00    +0.000 C 
ENDBRANCH  26  30
BRANCH  27  32
ATOM     32  O   UNL     1      -4.640  11.616  17.714  0.00  0.00    +0.000 OA
ATOM     33  C   UNL     1      -5.797  10.994  18.242  0.00  0.00    +0.000 C 
ENDBRANCH  27  32
ENDBRANCH  20  24
ENDBRANCH  19  20
ENDBRANCH   1  19
TORSDOF 8
ENDMDL
MODEL 2
REMARK VINA RESULT:      -8.1      0.426      2.236
REMARK  Name = 
REMARK  11 active torsions:
REMARK  status: ('A' for Active; 'I' for Inactive)
REMARK    1  A    between atoms: C_1  and  O_2
REMARK    2  A    between atoms: O_2  and  C_3
REMARK    3  A    between atoms: C_5  and  C_6
REMARK    4  A    between atoms: C_6  and  O_8
REMARK    5  A    between atoms: O_8  and  C_9
REMARK    6  A    between atoms: C_17  and  N_18
REMARK    7  A    between atoms: C_21  and  N_22
REMARK    8  A    between atoms: C_28  and  O_29
REMARK    9  A    between atoms: O_29  and  C_30
REMARK   10  A    between atoms: C_31  and  O_32
REMARK   11  A    between atoms: O_32  and  C_33
REMARK                            x       y       z     vdW  Elec       q    Type
REMARK                         _______ _______ _______ _____ _____    ______ ____
ROOT
ATOM      1  C   UNL     1       2.219   7.911  19.006  0.00  0.00    +0.000 A 
ATOM      2  C   UNL     1       1.922   7.751  20.387  0.00  0.00    +0.000 A 
ATOM      3  C   UNL     1       1.733   6.475  20.923  0.00  0.00    +0.000 A 
ATOM      4  C   UNL     1       1.709   5.388  20.068  0.00  0.00    +0.000 A 
ATOM      5  C   UNL     1       1.987   5.594  18.713  0.00  0.00    +0.000 A 
ATOM      6  C   UNL     1       2.497   6.777  18.211  0.00  0.00    +0.000 A 
ATOM      7  C   UNL     1       3.895   6.490  17.589  0.00  0.00    +0.000 C 
ATOM      8  O   UNL     1       4.682   7.418  17.428  0.00  0.00    +0.000 OA
ATOM      9  C   UNL     1       4.366   4.957  17.376  0.00  0.00    +0.000 C 
ATOM     10  C   UNL     1       3.559   3.988  17.876  0.00  0.00    +0.000 C 
ATOM     11  C   UNL     1       2.173   4.464  17.856  0.00  0.00    +0.000 C 
ATOM     12  O   UNL     1       1.322   4.093  17.058  0.00  0.00    +0.000 OA
ENDROOT
BRANCH   9  13
ATOM     13  N   UNL     1       5.657   4.684  16.893  0.00  0.00    +0.000 N 
ATOM     14  C   UNL     1       5.697   3.723  15.765  0.00  0.00    +0.000 C 
ATOM     15  C   UNL     1       6.087   5.160  15.583  0.00  0.00    +0.000 C 
ENDBRANCH   9  13
BRANCH  10  16
ATOM     16  N   UNL     1       3.642   2.687  18.327  0.00  0.00    +0.000 N 
ATOM     17  C   UNL     1       4.206   2.418  19.636  0.00  0.00    +0.000 C 
ATOM     18  C   UNL     1       2.781   2.027  19.273  0.00  0.00    +0.000 C 
ENDBRANCH  10  16
BRANCH   1  19
ATOM     19  O   UNL     1       1.093   8.876  18.534  0.00  0.00    +0.000 OA
BRANCH  19  20
ATOM     20  C   UNL     1       0.923  10.255  18.667  0.00  0.00    +0.000 C 
ATOM     21  O   UNL     1       1.843  11.027  18.884  0.00  0.00    +0.000 OA
BRANCH  20  24
ATOM     22  C   UNL     1      -2.607  10.339  17.196  0.00  0.00    +0.000 A 
ATOM     23  C   UNL     1      -1.221  10.128  17.400  0.00  0.00    +0.000 A 
ATOM     24  C   UNL     1      -0.512  10.722  18.455  0.00  0.00    +0.000 A 
ATOM     25  C   UNL     1      -1.209  11.646  19.243  0.00  0.00    +0.000 A 
ATOM     26  C   UNL     1      -2.591  11.925  19.017  0.00  0.00    +0.000 A 
ATOM     27  C   UNL     1      -3.312  11.264  17.990  0.00  0.00    +0.000 A 
BRANCH  22  29
ATOM     28  C   UNL     1      -3.065  10.097  14.889  0.00  0.00    +0.000 C 
ATOM     29  O   UNL     1      -3.276   9.634  16.226  0.00  0.00    +0.000 OA
ENDBRANCH  22  29
BRANCH  26  30
ATOM     30  O   UNL     1      -3.089  12.861  19.903  0.00  0.00    +0.000 OA
ATOM     31  C   UNL     1      -3.342  12.497  21.261  0.00  0.00    +0.000 C 
ENDBRANCH  26  30
BRANCH  27  32
ATOM     32  O   UNL     1      -4.641  11.547  17.911  0.00  0.00    +0.000 OA
ATOM     33  C   UNL     1      -5.656  10.751  18.495  0.00  0.00    +0.000 C 
ENDBRANCH  27  32
ENDBRANCH  20  24
ENDBRANCH  19  20
ENDBRANCH   1  19
TORSDOF 8
ENDMDL
MODEL 3
REMARK VINA RESULT:      -8.0      1.021      1.275
REMARK  Name = 
REMARK  11 active torsions:
REMARK  status: ('A' for Active; 'I' for Inactive)
REMARK    1  A    between atoms: C_1  and  O_2
REMARK    2  A    between atoms: O_2  and  C_3
REMARK    3  A    between atoms: C_5  and  C_6
REMARK    4  A    between atoms: C_6  and  O_8
REMARK    5  A    between atoms: O_8  and  C_9
REMARK    6  A    between atoms: C_17  and  N_18
REMARK    7  A    between atoms: C_21  and  N_22
REMARK    8  A    between atoms: C_28  and  O_29
REMARK    9  A    between atoms: O_29  and  C_30
REMARK   10  A    between atoms: C_31  and  O_32
REMARK   11  A    between atoms: O_32  and  C_33
REMARK                            x       y       z     vdW  Elec       q    Type
REMARK                         _______ _______ _______ _____ _____    ______ ____
ROOT
ATOM      1  C   UNL     1       2.335   7.640  18.978  0.00  0.00    +0.000 A 
ATOM      2  C   UNL     1       2.000   7.437  20.344  0.00  0.00    +0.000 A 
ATOM      3  C   UNL     1       1.797   6.146  20.835  0.00  0.00    +0.000 A 
ATOM      4  C   UNL     1       1.799   5.086  19.946  0.00  0.00    +0.000 A 
ATOM      5  C   UNL     1       2.115   5.334  18.606  0.00  0.00    +0.000 A 
ATOM      6  C   UNL     1       2.637   6.532  18.156  0.00  0.00    +0.000 A 
ATOM      7  C   UNL     1       4.052   6.266  17.565  0.00  0.00    +0.000 C 
ATOM      8  O   UNL     1       4.842   7.198  17.455  0.00  0.00    +0.000 OA
ATOM      9  C   UNL     1       4.531   4.740  17.319  0.00  0.00    +0.000 C 
ATOM     10  C   UNL     1       3.712   3.756  17.766  0.00  0.00    +0.000 C 
ATOM     11  C   UNL     1       2.326   4.231  17.720  0.00  0.00    +0.000 C 
ATOM     12  O   UNL     1       1.498   3.884  16.888  0.00  0.00    +0.000 OA
ENDROOT
BRANCH   9  13
ATOM     13  N   UNL     1       5.836   4.482  16.863  0.00  0.00    +0.000 N 
ATOM     14  C   UNL     1       5.902   3.682  15.618  0.00  0.00    +0.000 C 
ATOM     15  C   UNL     1       6.349   5.113  15.653  0.00  0.00    +0.000 C 
ENDBRANCH   9  13
BRANCH  10  16
ATOM     16  N   UNL     1       3.784   2.441  18.178  0.00  0.00    +0.000 N 
ATOM     17  C   UNL     1       4.139   2.141  19.551  0.00  0.00    +0.000 C 
ATOM     18  C   UNL     1       2.813   1.705  18.945  0.00  0.00    +0.000 C 
ENDBRANCH  10  16
BRANCH   1  19
ATOM     19  O   UNL     1       1.221   8.619  18.504  0.00  0.00    +0.000 OA
BRANCH  19  20
ATOM     20  C   UNL     1       1.193  10.007  18.356  0.00  0.00    +0.000 C 
ATOM     21  O   UNL     1       2.135  10.657  17.932  0.00  0.00    +0.000 OA
BRANCH  20  24
ATOM     22  C   UNL     1      -1.381  11.959  20.404  0.00  0.00    +0.000 A 
ATOM     23  C   UNL     1      -0.260  11.193  19.999  0.00  0.00    +0.000 A 
ATOM     24  C   UNL     1      -0.147  10.637  18.717  0.00  0.00    +0.000 A 
ATOM     25  C   UNL     1      -1.257  10.764  17.873  0.00  0.00    +0.000 A 
ATOM     26  C   UNL     1      -2.427  11.474  18.282  0.00  0.00    +0.000 A 
ATOM     27  C   UNL     1      -2.499  12.091  19.557  0.00  0.00    +0.000 A 
BRANCH  22  29
ATOM     28  C   UNL     1      -1.197  11.720  22.749  0.00  0.00    +0.000 C 
ATOM     29  O   UNL     1      -1.384  12.585  21.626  0.00  0.00    +0.000 OA
ENDBRANCH  22  29
BRANCH  26  30
ATOM     30  O   UNL     1      -3.404  11.483  17.304  0.00  0.00    +0.000 OA
ATOM     31  C   UNL     1      -3.121  10.959  16.007  0.00  0.00    +0.000 C 
ENDBRANCH  26  30
BRANCH  27  32
ATOM     32  O   UNL     1      -3.627  12.808  19.816  0.00  0.00    +0.000 OA
ATOM     33  C   UNL     1      -4.673  12.358  20.657  0.00  0.00    +0.000 C 
ENDBRANCH  27  32
ENDBRANCH  20  24
ENDBRANCH  19  20
ENDBRANCH   1  19
TORSDOF 8
ENDMDL
MODEL 4
REMARK VINA RESULT:      -8.0      1.477      2.940
REMARK  Name = 
REMARK  11 active torsions:
REMARK  status: ('A' for Active; 'I' for Inactive)
REMARK    1  A    between atoms: C_1  and  O_2
REMARK    2  A    between atoms: O_2  and  C_3
REMARK    3  A    between atoms: C_5  and  C_6
REMARK    4  A    between atoms: C_6  and  O_8
REMARK    5  A    between atoms: O_8  and  C_9
REMARK    6  A    between atoms: C_17  and  N_18
REMARK    7  A    between atoms: C_21  and  N_22
REMARK    8  A    between atoms: C_28  and  O_29
REMARK    9  A    between atoms: O_29  and  C_30
REMARK   10  A    between atoms: C_31  and  O_32
REMARK   11  A    between atoms: O_32  and  C_33
REMARK                            x       y       z     vdW  Elec       q    Type
REMARK                         _______ _______ _______ _____ _____    ______ ____
ROOT
ATOM      1  C   UNL     1       2.508   7.548  18.913  0.00  0.00    +0.000 A 
ATOM      2  C   UNL     1       2.144   7.342  20.271  0.00  0.00    +0.000 A 
ATOM      3  C   UNL     1       1.907   6.052  20.749  0.00  0.00    +0.000 A 
ATOM      4  C   UNL     1       1.904   4.998  19.852  0.00  0.00    +0.000 A 
ATOM      5  C   UNL     1       2.249   5.249  18.520  0.00  0.00    +0.000 A 
ATOM      6  C   UNL     1       2.803   6.439  18.088  0.00  0.00    +0.000 A 
ATOM      7  C   UNL     1       4.223   6.149  17.521  0.00  0.00    +0.000 C 
ATOM      8  O   UNL     1       5.033   7.067  17.432  0.00  0.00    +0.000 OA
ATOM      9  C   UNL     1       4.676   4.616  17.272  0.00  0.00    +0.000 C 
ATOM     10  C   UNL     1       3.829   3.645  17.697  0.00  0.00    +0.000 C 
ATOM     11  C   UNL     1       2.454   4.149  17.630  0.00  0.00    +0.000 C 
ATOM     12  O   UNL     1       1.635   3.824  16.781  0.00  0.00    +0.000 OA
ENDROOT
BRANCH   9  13
ATOM     13  N   UNL     1       5.983   4.336  16.838  0.00  0.00    +0.000 N 
ATOM     14  C   UNL     1       6.060   3.677  15.513  0.00  0.00    +0.000 C 
ATOM     15  C   UNL     1       6.581   5.067  15.727  0.00  0.00    +0.000 C 
ENDBRANCH   9  13
BRANCH  10  16
ATOM     16  N   UNL     1       3.868   2.326  18.100  0.00  0.00    +0.000 N 
ATOM     17  C   UNL     1       4.203   2.009  19.475  0.00  0.00    +0.000 C 
ATOM     18  C   UNL     1       2.874   1.608  18.853  0.00  0.00    +0.000 C 
ENDBRANCH  10  16
BRANCH   1  19
ATOM     19  O   UNL     1       1.423   8.552  18.427  0.00  0.00    +0.000 OA
BRANCH  19  20
ATOM     20  C   UNL     1       1.405   9.946  18.342  0.00  0.00    +0.000 C 
ATOM     21  O   UNL     1       2.023  10.576  17.500  0.00  0.00    +0.000 OA
BRANCH  20  24
ATOM     22  C   UNL     1      -1.591  11.911  19.683  0.00  0.00    +0.000 A 
ATOM     23  C   UNL     1      -0.568  11.380  18.858  0.00  0.00    +0.000 A 
ATOM     24  C   UNL     1       0.490  10.612  19.363  0.00  0.00    +0.000 A 
ATOM     25  C   UNL     1       0.572  10.488  20.756  0.00  0.00    +0.000 A 
ATOM     26  C   UNL     1      -0.410  11.069  21.615  0.00  0.00    +0.000 A 
ATOM     27  C   UNL     1      -1.514  11.784  21.084  0.00  0.00    +0.000 A 
BRANCH  22  29
ATOM     28  C   UNL     1      -3.637  11.682  18.521  0.00  0.00    +0.000 C 
ATOM     29  O   UNL     1      -2.670  12.547  19.122  0.00  0.00    +0.000 OA
ENDBRANCH  22  29
BRANCH  26  30
ATOM     30  O   UNL     1      -0.147  10.829  22.950  0.00  0.00    +0.000 OA
ATOM     31  C   UNL     1       0.017   9.490  23.417  0.00  0.00    +0.000 C 
ENDBRANCH  26  30
BRANCH  27  32
ATOM     32  O   UNL     1      -2.431  12.231  21.986  0.00  0.00    +0.000 OA
ATOM     33  C   UNL     1      -2.337  13.473  22.660  0.00  0.00    +0.000 C 
ENDBRANCH  27  32
ENDBRANCH  20  24
ENDBRANCH  19  20
ENDBRANCH   1  19
TORSDOF 8
ENDMDL
MODEL 5
REMARK VINA RESULT:      -7.6      1.013      2.437
REMARK  Name = 
REMARK  11 active torsions:
REMARK  status: ('A' for Active; 'I' for Inactive)
REMARK    1  A    between atoms: C_1  and  O_2
REMARK    2  A    between atoms: O_2  and  C_3
REMARK    3  A    between atoms: C_5  and  C_6
REMARK    4  A    between atoms: C_6  and  O_8
REMARK    5  A    between atoms: O_8  and  C_9
REMARK    6  A    between atoms: C_17  and  N_18
REMARK    7  A    between atoms: C_21  and  N_22
REMARK    8  A    between atoms: C_28  and  O_29
REMARK    9  A    between atoms: O_29  and  C_30
REMARK   10  A    between atoms: C_31  and  O_32
REMARK   11  A    between atoms: O_32  and  C_33
REMARK                            x       y       z     vdW  Elec       q    Type
REMARK                         _______ _______ _______ _____ _____    ______ ____
ROOT
ATOM      1  C   UNL     1       2.255   7.490  19.334  0.00  0.00    +0.000 A 
ATOM      2  C   UNL     1       1.994   7.143  20.688  0.00  0.00    +0.000 A 
ATOM      3  C   UNL     1       1.850   5.804  21.055  0.00  0.00    +0.000 A 
ATOM      4  C   UNL     1       1.834   4.838  20.066  0.00  0.00    +0.000 A 
ATOM      5  C   UNL     1       2.077   5.226  18.745  0.00  0.00    +0.000 A 
ATOM      6  C   UNL     1       2.545   6.478  18.392  0.00  0.00    +0.000 A 
ATOM      7  C   UNL     1       3.936   6.316  17.712  0.00  0.00    +0.000 C 
ATOM      8  O   UNL     1       4.694   7.279  17.659  0.00  0.00    +0.000 OA
ATOM      9  C   UNL     1       4.441   4.837  17.292  0.00  0.00    +0.000 C 
ATOM     10  C   UNL     1       3.671   3.789  17.676  0.00  0.00    +0.000 C 
ATOM     11  C   UNL     1       2.273   4.223  17.744  0.00  0.00    +0.000 C 
ATOM     12  O   UNL     1       1.414   3.935  16.921  0.00  0.00    +0.000 OA
ENDROOT
BRANCH   9  13
ATOM     13  N   UNL     1       5.728   4.666  16.752  0.00  0.00    +0.000 N 
ATOM     14  C   UNL     1       5.780   3.782  15.565  0.00  0.00    +0.000 C 
ATOM     15  C   UNL     1       6.087   5.246  15.463  0.00  0.00    +0.000 C 
ENDBRANCH   9  13
BRANCH  10  16
ATOM     16  N   UNL     1       3.798   2.443  17.951  0.00  0.00    +0.000 N 
ATOM     17  C   UNL     1       4.193   2.018  19.280  0.00  0.00    +0.000 C 
ATOM     18  C   UNL     1       2.870   1.598  18.656  0.00  0.00    +0.000 C 
ENDBRANCH  10  16
BRANCH   1  19
ATOM     19  O   UNL     1       1.094   8.476  19.014  0.00  0.00    +0.000 OA
BRANCH  19  20
ATOM     20  C   UNL     1       1.056   9.686  18.317  0.00  0.00    +0.000 C 
ATOM     21  O   UNL     1       1.875   9.998  17.469  0.00  0.00    +0.000 OA
BRANCH  20  24
ATOM     22  C   UNL     1      -2.330  11.414  17.893  0.00  0.00    +0.000 A 
ATOM     23  C   UNL     1      -1.090  10.770  17.657  0.00  0.00    +0.000 A 
ATOM     24  C   UNL     1      -0.142  10.560  18.669  0.00  0.00    +0.000 A 
ATOM     25  C   UNL     1      -0.414  11.130  19.918  0.00  0.00    +0.000 A 
ATOM     26  C   UNL     1      -1.628  11.842  20.164  0.00  0.00    +0.000 A 
ATOM     27  C   UNL     1      -2.610  11.985  19.150  0.00  0.00    +0.000 A 
BRANCH  22  29
ATOM     28  C   UNL     1      -3.284  10.366  16.001  0.00  0.00    +0.000 C 
ATOM     29  O   UNL     1      -3.274  11.479  16.898  0.00  0.00    +0.000 OA
ENDBRANCH  22  29
BRANCH  26  30
ATOM     30  O   UNL     1      -1.702  12.322  21.458  0.00  0.00    +0.000 OA
ATOM     31  C   UNL     1      -0.925  11.715  22.491  0.00  0.00    +0.000 C 
ENDBRANCH  26  30
BRANCH  27  32
ATOM     32  O   UNL     1      -3.761  12.614  19.513  0.00  0.00    +0.000 OA
ATOM     33  C   UNL     1      -4.990  11.946  19.734  0.00  0.00    +0.000 C 
ENDBRANCH  27  32
ENDBRANCH  20  24
ENDBRANCH  19  20
ENDBRANCH   1  19
TORSDOF 8
ENDMDL
MODEL 6
REMARK VINA RESULT:      -7.5      2.568      3.060
REMARK  Name = 
REMARK  11 active torsions:
REMARK  status: ('A' for Active; 'I' for Inactive)
REMARK    1  A    between atoms: C_1  and  O_2
REMARK    2  A    between atoms: O_2  and  C_3
REMARK    3  A    between atoms: C_5  and  C_6
REMARK    4  A    between atoms: C_6  and  O_8
REMARK    5  A    between atoms: O_8  and  C_9
REMARK    6  A    between atoms: C_17  and  N_18
REMARK    7  A    between atoms: C_21  and  N_22
REMARK    8  A    between atoms: C_28  and  O_29
REMARK    9  A    between atoms: O_29  and  C_30
REMARK   10  A    between atoms: C_31  and  O_32
REMARK   11  A    between atoms: O_32  and  C_33
REMARK                            x       y       z     vdW  Elec       q    Type
REMARK                         _______ _______ _______ _____ _____    ______ ____
ROOT
ATOM      1  C   UNL     1       2.476   7.451  19.045  0.00  0.00    +0.000 A 
ATOM      2  C   UNL     1       2.115   7.199  20.397  0.00  0.00    +0.000 A 
ATOM      3  C   UNL     1       1.862   5.895  20.826  0.00  0.00    +0.000 A 
ATOM      4  C   UNL     1       1.840   4.876  19.890  0.00  0.00    +0.000 A 
ATOM      5  C   UNL     1       2.183   5.172  18.567  0.00  0.00    +0.000 A 
ATOM      6  C   UNL     1       2.753   6.370  18.178  0.00  0.00    +0.000 A 
ATOM      7  C   UNL     1       4.166   6.082  17.593  0.00  0.00    +0.000 C 
ATOM      8  O   UNL     1       4.989   6.991  17.536  0.00  0.00    +0.000 OA
ATOM      9  C   UNL     1       4.596   4.553  17.285  0.00  0.00    +0.000 C 
ATOM     10  C   UNL     1       3.737   3.579  17.676  0.00  0.00    +0.000 C 
ATOM     11  C   UNL     1       2.369   4.104  17.635  0.00  0.00    +0.000 C 
ATOM     12  O   UNL     1       1.542   3.823  16.778  0.00  0.00    +0.000 OA
ENDROOT
BRANCH   9  13
ATOM     13  N   UNL     1       5.897   4.271  16.835  0.00  0.00    +0.000 N 
ATOM     14  C   UNL     1       5.958   3.631  15.500  0.00  0.00    +0.000 C 
ATOM     15  C   UNL     1       6.490   5.015  15.729  0.00  0.00    +0.000 C 
ENDBRANCH   9  13
BRANCH  10  16
ATOM     16  N   UNL     1       3.759   2.245  18.030  0.00  0.00    +0.000 N 
ATOM     17  C   UNL     1       4.261   1.859  19.334  0.00  0.00    +0.000 C 
ATOM     18  C   UNL     1       2.839   1.549  18.890  0.00  0.00    +0.000 C 
ENDBRANCH  10  16
BRANCH   1  19
ATOM     19  O   UNL     1       1.404   8.488  18.602  0.00  0.00    +0.000 OA
BRANCH  19  20
ATOM     20  C   UNL     1       1.462   9.868  18.397  0.00  0.00    +0.000 C 
ATOM     21  O   UNL     1       2.033  10.382  17.450  0.00  0.00    +0.000 OA
BRANCH  20  24
ATOM     22  C   UNL     1      -0.419  10.614  21.643  0.00  0.00    +0.000 A 
ATOM     23  C   UNL     1       0.166   9.970  20.525  0.00  0.00    +0.000 A 
ATOM     24  C   UNL     1       0.691  10.677  19.433  0.00  0.00    +0.000 A 
ATOM     25  C   UNL     1       0.503  12.064  19.430  0.00  0.00    +0.000 A 
ATOM     26  C   UNL     1      -0.143  12.731  20.515  0.00  0.00    +0.000 A 
ATOM     27  C   UNL     1      -0.606  12.010  21.645  0.00  0.00    +0.000 A 
BRANCH  22  29
ATOM     28  C   UNL     1       0.269   9.264  23.458  0.00  0.00    +0.000 C 
ATOM     29  O   UNL     1      -0.802   9.881  22.739  0.00  0.00    +0.000 OA
ENDBRANCH  22  29
BRANCH  26  30
ATOM     30  O   UNL     1      -0.226  14.097  20.317  0.00  0.00    +0.000 OA
ATOM     31  C   UNL     1      -0.011  14.644  19.016  0.00  0.00    +0.000 C 
ENDBRANCH  26  30
BRANCH  27  32
ATOM     32  O   UNL     1      -1.137  12.751  22.655  0.00  0.00    +0.000 OA
ATOM     33  C   UNL     1      -2.527  12.942  22.851  0.00  0.00    +0.000 C 
ENDBRANCH  27  32
ENDBRANCH  20  24
ENDBRANCH  19  20
ENDBRANCH   1  19
TORSDOF 8
ENDMDL
MODEL 7
REMARK VINA RESULT:      -7.4      3.701      9.291
REMARK  Name = 
REMARK  11 active torsions:
REMARK  status: ('A' for Active; 'I' for Inactive)
REMARK    1  A    between atoms: C_1  and  O_2
REMARK    2  A    between atoms: O_2  and  C_3
REMARK    3  A    between atoms: C_5  and  C_6
REMARK    4  A    between atoms: C_6  and  O_8
REMARK    5  A    between atoms: O_8  and  C_9
REMARK    6  A    between atoms: C_17  and  N_18
REMARK    7  A    between atoms: C_21  and  N_22
REMARK    8  A    between atoms: C_28  and  O_29
REMARK    9  A    between atoms: O_29  and  C_30
REMARK   10  A    between atoms: C_31  and  O_32
REMARK   11  A    between atoms: O_32  and  C_33
REMARK                            x       y       z     vdW  Elec       q    Type
REMARK                         _______ _______ _______ _____ _____    ______ ____
ROOT
ATOM      1  C   UNL     1      -0.097   9.582  19.931  0.00  0.00    +0.000 A 
ATOM      2  C   UNL     1       0.018   9.269  21.313  0.00  0.00    +0.000 A 
ATOM      3  C   UNL     1      -0.512  10.131  22.276  0.00  0.00    +0.000 A 
ATOM      4  C   UNL     1      -1.029  11.348  21.870  0.00  0.00    +0.000 A 
ATOM      5  C   UNL     1      -1.106  11.622  20.501  0.00  0.00    +0.000 A 
ATOM      6  C   UNL     1      -0.899  10.670  19.520  0.00  0.00    +0.000 A 
ATOM      7  C   UNL     1      -2.213  10.504  18.704  0.00  0.00    +0.000 C 
ATOM      8  O   UNL     1      -2.388   9.481  18.050  0.00  0.00    +0.000 OA
ATOM      9  C   UNL     1      -3.411  11.573  18.909  0.00  0.00    +0.000 C 
ATOM     10  C   UNL     1      -3.253  12.496  19.890  0.00  0.00    +0.000 C 
ATOM     11  C   UNL     1      -1.824  12.776  20.056  0.00  0.00    +0.000 C 
ATOM     12  O   UNL     1      -1.265  13.794  19.669  0.00  0.00    +0.000 OA
ENDROOT
BRANCH   9  13
ATOM     13  N   UNL     1      -4.633  11.388  18.241  0.00  0.00    +0.000 N 
ATOM     14  C   UNL     1      -5.290  12.645  17.810  0.00  0.00    +0.000 C 
ATOM     15  C   UNL     1      -4.759  11.659  16.813  0.00  0.00    +0.000 C 
ENDBRANCH   9  13
BRANCH  10  16
ATOM     16  N   UNL     1      -4.025  13.287  20.716  0.00  0.00    +0.000 N 
ATOM     17  C   UNL     1      -5.037  12.673  21.553  0.00  0.00    +0.000 C 
ATOM     18  C   UNL     1      -3.883  13.475  22.136  0.00  0.00    +0.000 C 
ENDBRANCH  10  16
BRANCH   1  19
ATOM     19  O   UNL     1       1.386   9.546  19.458  0.00  0.00    +0.000 OA
BRANCH  19  20
ATOM     20  C   UNL     1       1.987   9.068  18.293  0.00  0.00    +0.000 C 
ATOM     21  O   UNL     1       1.983   9.678  17.236  0.00  0.00    +0.000 OA
BRANCH  20  24
ATOM     22  C   UNL     1       2.804   5.643  19.787  0.00  0.00    +0.000 A 
ATOM     23  C   UNL     1       2.345   6.969  19.589  0.00  0.00    +0.000 A 
ATOM     24  C   UNL     1       2.707   7.737  18.474  0.00  0.00    +0.000 A 
ATOM     25  C   UNL     1       3.656   7.182  17.606  0.00  0.00    +0.000 A 
ATOM     26  C   UNL     1       4.184   5.873  17.818  0.00  0.00    +0.000 A 
ATOM     27  C   UNL     1       3.755   5.080  18.913  0.00  0.00    +0.000 A 
BRANCH  22  29
ATOM     28  C   UNL     1       1.103   4.192  20.555  0.00  0.00    +0.000 C 
ATOM     29  O   UNL     1       2.319   4.893  20.829  0.00  0.00    +0.000 OA
ENDBRANCH  22  29
BRANCH  26  30
ATOM     30  O   UNL     1       5.102   5.514  16.849  0.00  0.00    +0.000 OA
ATOM     31  C   UNL     1       6.365   6.178  16.780  0.00  0.00    +0.000 C 
ENDBRANCH  26  30
BRANCH  27  32
ATOM     32  O   UNL     1       4.265   3.819  18.979  0.00  0.00    +0.000 OA
ATOM     33  C   UNL     1       3.697   2.702  18.320  0.00  0.00    +0.000 C 
ENDBRANCH  27  32
ENDBRANCH  20  24
ENDBRANCH  19  20
ENDBRANCH   1  19
TORSDOF 8
ENDMDL
MODEL 8
REMARK VINA RESULT:      -7.4      2.630      3.232
REMARK  Name = 
REMARK  11 active torsions:
REMARK  status: ('A' for Active; 'I' for Inactive)
REMARK    1  A    between atoms: C_1  and  O_2
REMARK    2  A    between atoms: O_2  and  C_3
REMARK    3  A    between atoms: C_5  and  C_6
REMARK    4  A    between atoms: C_6  and  O_8
REMARK    5  A    between atoms: O_8  and  C_9
REMARK    6  A    between atoms: C_17  and  N_18
REMARK    7  A    between atoms: C_21  and  N_22
REMARK    8  A    between atoms: C_28  and  O_29
REMARK    9  A    between atoms: O_29  and  C_30
REMARK   10  A    between atoms: C_31  and  O_32
REMARK   11  A    between atoms: O_32  and  C_33
REMARK                            x       y       z     vdW  Elec       q    Type
REMARK                         _______ _______ _______ _____ _____    ______ ____
ROOT
ATOM      1  C   UNL     1       2.440   7.560  19.115  0.00  0.00    +0.000 A 
ATOM      2  C   UNL     1       2.075   7.299  20.464  0.00  0.00    +0.000 A 
ATOM      3  C   UNL     1       1.814   5.992  20.882  0.00  0.00    +0.000 A 
ATOM      4  C   UNL     1       1.790   4.981  19.939  0.00  0.00    +0.000 A 
ATOM      5  C   UNL     1       2.138   5.286  18.619  0.00  0.00    +0.000 A 
ATOM      6  C   UNL     1       2.714   6.485  18.240  0.00  0.00    +0.000 A 
ATOM      7  C   UNL     1       4.128   6.195  17.657  0.00  0.00    +0.000 C 
ATOM      8  O   UNL     1       4.954   7.100  17.609  0.00  0.00    +0.000 OA
ATOM      9  C   UNL     1       4.552   4.666  17.337  0.00  0.00    +0.000 C 
ATOM     10  C   UNL     1       3.688   3.693  17.719  0.00  0.00    +0.000 C 
ATOM     11  C   UNL     1       2.322   4.224  17.679  0.00  0.00    +0.000 C 
ATOM     12  O   UNL     1       1.496   3.954  16.817  0.00  0.00    +0.000 OA
ENDROOT
BRANCH   9  13
ATOM     13  N   UNL     1       5.853   4.382  16.889  0.00  0.00    +0.000 N 
ATOM     14  C   UNL     1       5.912   3.712  15.569  0.00  0.00    +0.000 C 
ATOM     15  C   UNL     1       6.436   5.104  15.763  0.00  0.00    +0.000 C 
ENDBRANCH   9  13
BRANCH  10  16
ATOM     16  N   UNL     1       3.703   2.356  18.063  0.00  0.00    +0.000 N 
ATOM     17  C   UNL     1       4.073   1.968  19.409  0.00  0.00    +0.000 C 
ATOM     18  C   UNL     1       2.714   1.631  18.816  0.00  0.00    +0.000 C 
ENDBRANCH  10  16
BRANCH   1  19
ATOM     19  O   UNL     1       1.373   8.605  18.678  0.00  0.00    +0.000 OA
BRANCH  19  20
ATOM     20  C   UNL     1       1.446   9.980  18.447  0.00  0.00    +0.000 C 
ATOM     21  O   UNL     1       1.814  10.465  17.390  0.00  0.00    +0.000 OA
BRANCH  20  24
ATOM     22  C   UNL     1       0.124  13.048  20.310  0.00  0.00    +0.000 A 
ATOM     23  C   UNL     1       0.733  12.186  19.365  0.00  0.00    +0.000 A 
ATOM     24  C   UNL     1       0.966  10.826  19.620  0.00  0.00    +0.000 A 
ATOM     25  C   UNL     1       0.682  10.369  20.912  0.00  0.00    +0.000 A 
ATOM     26  C   UNL     1       0.129  11.234  21.905  0.00  0.00    +0.000 A 
ATOM     27  C   UNL     1      -0.166  12.590  21.610  0.00  0.00    +0.000 A 
BRANCH  22  29
ATOM     28  C   UNL     1      -0.097  14.629  18.566  0.00  0.00    +0.000 C 
ATOM     29  O   UNL     1      -0.195  14.337  19.962  0.00  0.00    +0.000 OA
ENDBRANCH  22  29
BRANCH  26  30
ATOM     30  O   UNL     1      -0.077  10.587  23.109  0.00  0.00    +0.000 OA
ATOM     31  C   UNL     1      -0.625   9.269  23.127  0.00  0.00    +0.000 C 
ENDBRANCH  26  30
BRANCH  27  32
ATOM     32  O   UNL     1      -0.762  13.305  22.603  0.00  0.00    +0.000 OA
ATOM     33  C   UNL     1      -2.164  13.389  22.786  0.00  0.00    +0.000 C 
ENDBRANCH  27  32
ENDBRANCH  20  24
ENDBRANCH  19  20
ENDBRANCH   1  19
TORSDOF 8
ENDMDL
MODEL 9
REMARK VINA RESULT:      -7.3      2.251      3.596
REMARK  Name = 
REMARK  11 active torsions:
REMARK  status: ('A' for Active; 'I' for Inactive)
REMARK    1  A    between atoms: C_1  and  O_2
REMARK    2  A    between atoms: O_2  and  C_3
REMARK    3  A    between atoms: C_5  and  C_6
REMARK    4  A    between atoms: C_6  and  O_8
REMARK    5  A    between atoms: O_8  and  C_9
REMARK    6  A    between atoms: C_17  and  N_18
REMARK    7  A    between atoms: C_21  and  N_22
REMARK    8  A    between atoms: C_28  and  O_29
REMARK    9  A    between atoms: O_29  and  C_30
REMARK   10  A    between atoms: C_31  and  O_32
REMARK   11  A    between atoms: O_32  and  C_33
REMARK                            x       y       z     vdW  Elec       q    Type
REMARK                         _______ _______ _______ _____ _____    ______ ____
ROOT
ATOM      1  C   UNL     1       2.458   8.052  18.374  0.00  0.00    +0.000 A 
ATOM      2  C   UNL     1       2.028   8.131  19.727  0.00  0.00    +0.000 A 
ATOM      3  C   UNL     1       1.728   6.968  20.439  0.00  0.00    +0.000 A 
ATOM      4  C   UNL     1       1.731   5.757  19.771  0.00  0.00    +0.000 A 
ATOM      5  C   UNL     1       2.144   5.727  18.435  0.00  0.00    +0.000 A 
ATOM      6  C   UNL     1       2.755   6.794  17.803  0.00  0.00    +0.000 A 
ATOM      7  C   UNL     1       4.189   6.365  17.377  0.00  0.00    +0.000 C 
ATOM      8  O   UNL     1       5.031   7.227  17.148  0.00  0.00    +0.000 OA
ATOM      9  C   UNL     1       4.603   4.803  17.461  0.00  0.00    +0.000 C 
ATOM     10  C   UNL     1       3.707   3.956  18.028  0.00  0.00    +0.000 C 
ATOM     11  C   UNL     1       2.354   4.467  17.793  0.00  0.00    +0.000 C 
ATOM     12  O   UNL     1       1.563   3.997  16.985  0.00  0.00    +0.000 OA
ENDROOT
BRANCH   9  13
ATOM     13  N   UNL     1       5.918   4.412  17.159  0.00  0.00    +0.000 N 
ATOM     14  C   UNL     1       6.067   3.721  15.856  0.00  0.00    +0.000 C 
ATOM     15  C   UNL     1       6.675   5.070  16.100  0.00  0.00    +0.000 C 
ENDBRANCH   9  13
BRANCH  10  16
ATOM     16  N   UNL     1       3.686   2.744  18.688  0.00  0.00    +0.000 N 
ATOM     17  C   UNL     1       4.302   2.631  19.995  0.00  0.00    +0.000 C 
ATOM     18  C   UNL     1       2.824   2.349  19.771  0.00  0.00    +0.000 C 
ENDBRANCH  10  16
BRANCH   1  19
ATOM     19  O   UNL     1       1.429   8.963  17.644  0.00  0.00    +0.000 OA
BRANCH  19  20
ATOM     20  C   UNL     1       0.356   9.725  18.109  0.00  0.00    +0.000 C 
ATOM     21  O   UNL     1      -0.812   9.432  17.911  0.00  0.00    +0.000 OA
BRANCH  20  24
ATOM     22  C   UNL     1       0.542  12.068  21.126  0.00  0.00    +0.000 A 
ATOM     23  C   UNL     1       0.134  11.097  20.179  0.00  0.00    +0.000 A 
ATOM     24  C   UNL     1       0.773  10.931  18.942  0.00  0.00    +0.000 A 
ATOM     25  C   UNL     1       1.770  11.859  18.617  0.00  0.00    +0.000 A 
ATOM     26  C   UNL     1       2.155  12.889  19.528  0.00  0.00    +0.000 A 
ATOM     27  C   UNL     1       1.548  13.000  20.804  0.00  0.00    +0.000 A 
BRANCH  22  29
ATOM     28  C   UNL     1      -1.326  12.718  22.422  0.00  0.00    +0.000 C 
ATOM     29  O   UNL     1      -0.036  12.103  22.371  0.00  0.00    +0.000 OA
ENDBRANCH  22  29
BRANCH  26  30
ATOM     30  O   UNL     1       3.155  13.695  19.016  0.00  0.00    +0.000 OA
ATOM     31  C   UNL     1       2.825  14.784  18.155  0.00  0.00    +0.000 C 
ENDBRANCH  26  30
BRANCH  27  32
ATOM     32  O   UNL     1       2.042  13.969  21.623  0.00  0.00    +0.000 OA
ATOM     33  C   UNL     1       1.458  15.249  21.776  0.00  0.00    +0.000 C 
ENDBRANCH  27  32
ENDBRANCH  20  24
ENDBRANCH  19  20
ENDBRANCH   1  19
TORSDOF 8
ENDMDL
