MODEL 1
REMARK VINA RESULT:      -7.2      0.000      0.000
REMARK  Name = 
REMARK  13 active torsions:
REMARK  status: ('A' for Active; 'I' for Inactive)
REMARK    1  A    between atoms: C_1  and  O_2
REMARK    2  A    between atoms: O_2  and  C_3
REMARK    3  A    between atoms: C_3  and  C_4
REMARK    4  A    between atoms: C_4  and  N_5
REMARK    5  A    between atoms: N_5  and  C_6
REMARK    6  A    between atoms: N_5  and  C_10
REMARK    7  A    between atoms: C_6  and  C_7
REMARK    8  A    between atoms: C_7  and  O_8
REMARK    9  A    between atoms: O_8  and  C_9
REMARK   10  A    between atoms: C_10  and  C_11
REMARK   11  A    between atoms: C_13  and  C_14
REMARK   12  A    between atoms: C_17  and  C_18
REMARK   13  A    between atoms: C_26  and  C_27
REMARK                            x       y       z     vdW  Elec       q    Type
REMARK                         _______ _______ _______ _____ _____    ______ ____
ROOT
ATOM      1  C   UNL     1       3.299   5.041  18.364  0.00  0.00    +0.000 A 
ATOM      2  C   UNL     1       2.978   4.104  19.288  0.00  0.00    +0.000 A 
ATOM      3  C   UNL     1       2.161   4.575  20.436  0.00  0.00    +0.000 A 
ATOM      4  C   UNL     1       1.641   3.520  21.380  0.00  0.00    +0.000 C 
ATOM      5  N   UNL     1       1.824   5.811  20.658  0.00  0.00    +0.000 NA
ATOM      6  C   UNL     1       2.138   6.731  19.686  0.00  0.00    +0.000 A 
ATOM      7  C   UNL     1       1.773   8.057  19.510  0.00  0.00    +0.000 A 
ATOM      8  C   UNL     1       2.475   8.453  18.327  0.00  0.00    +0.000 A 
ATOM      9  C   UNL     1       2.577   9.777  17.652  0.00  0.00    +0.000 C 
ATOM     10  N   UNL     1       3.128   7.432  17.761  0.00  0.00    +0.000 NA
ATOM     11  N   UNL     1       2.893   6.364  18.565  0.00  0.00    +0.000 N 
ENDROOT
BRANCH   7  12
ATOM     12  C   UNL     1       0.893   8.837  20.401  0.00  0.00    +0.000 A 
ATOM     13  C   UNL     1       1.158   8.792  21.786  0.00  0.00    +0.000 A 
ATOM     14  C   UNL     1       0.483   9.611  22.696  0.00  0.00    +0.000 A 
ATOM     15  C   UNL     1      -0.542  10.432  22.250  0.00  0.00    +0.000 A 
ATOM     16 CL   UNL     1      -1.375  11.444  23.363  0.00  0.00    +0.000 Cl
ATOM     17  C   UNL     1      -0.881  10.449  20.905  0.00  0.00    +0.000 A 
ATOM     18  C   UNL     1      -0.150   9.690  19.977  0.00  0.00    +0.000 A 
ATOM     19 CL   UNL     1      -0.568   9.999  18.323  0.00  0.00    +0.000 Cl
ENDBRANCH   7  12
BRANCH   1  20
ATOM     20  C   UNL     1       4.030   4.666  17.102  0.00  0.00    +0.000 C 
BRANCH  20  21
ATOM     21  N   UNL     1       5.286   5.437  16.880  0.00  0.00    +0.000 NA
BRANCH  21  22
ATOM     22  C   UNL     1       6.382   4.846  17.699  0.00  0.00    +0.000 C 
BRANCH  22  23
ATOM     23  C   UNL     1       6.823   5.584  18.984  0.00  0.00    +0.000 C 
BRANCH  23  25
ATOM     24  C   UNL     1       7.832   7.448  17.974  0.00  0.00    +0.000 C 
ATOM     25  O   UNL     1       8.041   6.309  18.805  0.00  0.00    +0.000 OA
ENDBRANCH  23  25
ENDBRANCH  22  23
ENDBRANCH  21  22
BRANCH  21  26
ATOM     26  C   UNL     1       5.638   5.455  15.444  0.00  0.00    +0.000 C 
BRANCH  26  27
ATOM     27  C   UNL     1       6.270   4.159  14.880  0.00  0.00    +0.000 C 
BRANCH  27  28
ATOM     28  O   UNL     1       6.730   4.259  13.530  0.00  0.00    +0.000 OA
ATOM     29  C   UNL     1       5.978   3.467  12.620  0.00  0.00    +0.000 C 
ENDBRANCH  27  28
ENDBRANCH  26  27
ENDBRANCH  21  26
ENDBRANCH  20  21
ENDBRANCH   1  20
TORSDOF 9
ENDMDL
MODEL 2
REMARK VINA RESULT:      -7.1      0.571      2.820
REMARK  Name = 
REMARK  13 active torsions:
REMARK  status: ('A' for Active; 'I' for Inactive)
REMARK    1  A    between atoms: C_1  and  O_2
REMARK    2  A    between atoms: O_2  and  C_3
REMARK    3  A    between atoms: C_3  and  C_4
REMARK    4  A    between atoms: C_4  and  N_5
REMARK    5  A    between atoms: N_5  and  C_6
REMARK    6  A    between atoms: N_5  and  C_10
REMARK    7  A    between atoms: C_6  and  C_7
REMARK    8  A    between atoms: C_7  and  O_8
REMARK    9  A    between atoms: O_8  and  C_9
REMARK   10  A    between atoms: C_10  and  C_11
REMARK   11  A    between atoms: C_13  and  C_14
REMARK   12  A    between atoms: C_17  and  C_18
REMARK   13  A    between atoms: C_26  and  C_27
REMARK                            x       y       z     vdW  Elec       q    Type
REMARK                         _______ _______ _______ _____ _____    ______ ____
ROOT
ATOM      1  C   UNL     1       3.525   5.271  18.310  0.00  0.00    +0.000 A 
ATOM      2  C   UNL     1       3.242   4.312  19.223  0.00  0.00    +0.000 A 
ATOM      3  C   UNL     1       2.388   4.732  20.365  0.00  0.00    +0.000 A 
ATOM      4  C   UNL     1       1.911   3.645  21.295  0.00  0.00    +0.000 C 
ATOM      5  N   UNL     1       1.985   5.948  20.591  0.00  0.00    +0.000 NA
ATOM      6  C   UNL     1       2.264   6.890  19.629  0.00  0.00    +0.000 A 
ATOM      7  C   UNL     1       1.833   8.196  19.458  0.00  0.00    +0.000 A 
ATOM      8  C   UNL     1       2.528   8.637  18.286  0.00  0.00    +0.000 A 
ATOM      9  C   UNL     1       2.571   9.970  17.621  0.00  0.00    +0.000 C 
ATOM     10  N   UNL     1       3.239   7.654  17.722  0.00  0.00    +0.000 NA
ATOM     11  N   UNL     1       3.050   6.570  18.515  0.00  0.00    +0.000 N 
ENDROOT
BRANCH   7  12
ATOM     12  C   UNL     1       0.905   8.924  20.343  0.00  0.00    +0.000 A 
ATOM     13  C   UNL     1       1.141   8.862  21.733  0.00  0.00    +0.000 A 
ATOM     14  C   UNL     1       0.414   9.635  22.643  0.00  0.00    +0.000 A 
ATOM     15  C   UNL     1      -0.632  10.425  22.189  0.00  0.00    +0.000 A 
ATOM     16 CL   UNL     1      -1.528  11.382  23.303  0.00  0.00    +0.000 Cl
ATOM     17  C   UNL     1      -0.942  10.457  20.837  0.00  0.00    +0.000 A 
ATOM     18  C   UNL     1      -0.161   9.745  19.912  0.00  0.00    +0.000 A 
ATOM     19 CL   UNL     1      -0.554  10.071  18.255  0.00  0.00    +0.000 Cl
ENDBRANCH   7  12
BRANCH   1  20
ATOM     20  C   UNL     1       4.290   4.944  17.055  0.00  0.00    +0.000 C 
BRANCH  20  21
ATOM     21  N   UNL     1       5.765   4.867  17.248  0.00  0.00    +0.000 NA
BRANCH  21  22
ATOM     22  C   UNL     1       6.412   4.448  15.973  0.00  0.00    +0.000 C 
BRANCH  22  23
ATOM     23  C   UNL     1       5.522   4.253  14.723  0.00  0.00    +0.000 C 
BRANCH  23  25
ATOM     24  C   UNL     1       5.401   3.555  12.485  0.00  0.00    +0.000 C 
ATOM     25  O   UNL     1       6.226   3.637  13.644  0.00  0.00    +0.000 OA
ENDBRANCH  23  25
ENDBRANCH  22  23
ENDBRANCH  21  22
BRANCH  21  26
ATOM     26  C   UNL     1       6.296   6.165  17.718  0.00  0.00    +0.000 C 
BRANCH  26  27
ATOM     27  C   UNL     1       7.514   6.098  18.673  0.00  0.00    +0.000 C 
BRANCH  27  28
ATOM     28  O   UNL     1       8.364   7.246  18.634  0.00  0.00    +0.000 OA
ATOM     29  C   UNL     1       7.933   8.234  17.707  0.00  0.00    +0.000 C 
ENDBRANCH  27  28
ENDBRANCH  26  27
ENDBRANCH  21  26
ENDBRANCH  20  21
ENDBRANCH   1  20
TORSDOF 9
ENDMDL
MODEL 3
REMARK VINA RESULT:      -6.4      3.127      5.043
REMARK  Name = 
REMARK  13 active torsions:
REMARK  status: ('A' for Active; 'I' for Inactive)
REMARK    1  A    between atoms: C_1  and  O_2
REMARK    2  A    between atoms: O_2  and  C_3
REMARK    3  A    between atoms: C_3  and  C_4
REMARK    4  A    between atoms: C_4  and  N_5
REMARK    5  A    between atoms: N_5  and  C_6
REMARK    6  A    between atoms: N_5  and  C_10
REMARK    7  A    between atoms: C_6  and  C_7
REMARK    8  A    between atoms: C_7  and  O_8
REMARK    9  A    between atoms: O_8  and  C_9
REMARK   10  A    between atoms: C_10  and  C_11
REMARK   11  A    between atoms: C_13  and  C_14
REMARK   12  A    between atoms: C_17  and  C_18
REMARK   13  A    between atoms: C_26  and  C_27
REMARK                            x       y       z     vdW  Elec       q    Type
REMARK                         _______ _______ _______ _____ _____    ______ ____
ROOT
ATOM      1  C   UNL     1       2.206   6.288  20.136  0.00  0.00    +0.000 A 
ATOM      2  C   UNL     1       2.894   6.296  18.969  0.00  0.00    +0.000 A 
ATOM      3  C   UNL     1       2.838   7.561  18.189  0.00  0.00    +0.000 A 
ATOM      4  C   UNL     1       3.738   7.656  16.983  0.00  0.00    +0.000 C 
ATOM      5  N   UNL     1       2.115   8.598  18.495  0.00  0.00    +0.000 NA
ATOM      6  C   UNL     1       1.454   8.568  19.700  0.00  0.00    +0.000 A 
ATOM      7  C   UNL     1       0.772   9.545  20.408  0.00  0.00    +0.000 A 
ATOM      8  C   UNL     1       0.283   8.854  21.563  0.00  0.00    +0.000 A 
ATOM      9  C   UNL     1      -0.597   9.315  22.674  0.00  0.00    +0.000 C 
ATOM     10  N   UNL     1       0.717   7.591  21.617  0.00  0.00    +0.000 NA
ATOM     11  N   UNL     1       1.470   7.420  20.501  0.00  0.00    +0.000 N 
ENDROOT
BRANCH   7  12
ATOM     12  C   UNL     1       0.589  10.948  19.990  0.00  0.00    +0.000 A 
ATOM     13  C   UNL     1       1.346  11.934  20.658  0.00  0.00    +0.000 A 
ATOM     14  C   UNL     1       1.360  13.267  20.238  0.00  0.00    +0.000 A 
ATOM     15  C   UNL     1       0.542  13.664  19.190  0.00  0.00    +0.000 A 
ATOM     16 CL   UNL     1       0.556  15.303  18.666  0.00  0.00    +0.000 Cl
ATOM     17  C   UNL     1      -0.272  12.737  18.555  0.00  0.00    +0.000 A 
ATOM     18  C   UNL     1      -0.226  11.382  18.921  0.00  0.00    +0.000 A 
ATOM     19 CL   UNL     1      -1.140  10.338  17.883  0.00  0.00    +0.000 Cl
ENDBRANCH   7  12
BRANCH   1  20
ATOM     20  C   UNL     1       2.272   5.106  21.066  0.00  0.00    +0.000 C 
BRANCH  20  21
ATOM     21  N   UNL     1       1.251   4.057  20.785  0.00  0.00    +0.000 NA
BRANCH  21  22
ATOM     22  C   UNL     1       1.023   3.968  19.315  0.00  0.00    +0.000 C 
BRANCH  22  23
ATOM     23  C   UNL     1       0.749   2.579  18.693  0.00  0.00    +0.000 C 
BRANCH  23  25
ATOM     24  C   UNL     1       2.339   3.298  17.122  0.00  0.00    +0.000 C 
ATOM     25  O   UNL     1       1.781   2.172  17.794  0.00  0.00    +0.000 OA
ENDBRANCH  23  25
ENDBRANCH  22  23
ENDBRANCH  21  22
BRANCH  21  26
ATOM     26  C   UNL     1       1.676   2.755  21.343  0.00  0.00    +0.000 C 
BRANCH  26  27
ATOM     27  C   UNL     1       3.204   2.525  21.450  0.00  0.00    +0.000 C 
BRANCH  27  28
ATOM     28  O   UNL     1       3.819   2.043  20.254  0.00  0.00    +0.000 OA
ATOM     29  C   UNL     1       4.716   2.978  19.668  0.00  0.00    +0.000 C 
ENDBRANCH  27  28
ENDBRANCH  26  27
ENDBRANCH  21  26
ENDBRANCH  20  21
ENDBRANCH   1  20
TORSDOF 9
ENDMDL
MODEL 4
REMARK VINA RESULT:      -6.3      3.030      4.671
REMARK  Name = 
REMARK  13 active torsions:
REMARK  status: ('A' for Active; 'I' for Inactive)
REMARK    1  A    between atoms: C_1  and  O_2
REMARK    2  A    between atoms: O_2  and  C_3
REMARK    3  A    between atoms: C_3  and  C_4
REMARK    4  A    between atoms: C_4  and  N_5
REMARK    5  A    between atoms: N_5  and  C_6
REMARK    6  A    between atoms: N_5  and  C_10
REMARK    7  A    between atoms: C_6  and  C_7
REMARK    8  A    between atoms: C_7  and  O_8
REMARK    9  A    between atoms: O_8  and  C_9
REMARK   10  A    between atoms: C_10  and  C_11
REMARK   11  A    between atoms: C_13  and  C_14
REMARK   12  A    between atoms: C_17  and  C_18
REMARK   13  A    between atoms: C_26  and  C_27
REMARK                            x       y       z     vdW  Elec       q    Type
REMARK                         _______ _______ _______ _____ _____    ______ ____
ROOT
ATOM      1  C   UNL     1       1.918   6.590  20.163  0.00  0.00    +0.000 A 
ATOM      2  C   UNL     1       2.589   6.553  18.988  0.00  0.00    +0.000 A 
ATOM      3  C   UNL     1       2.610   7.820  18.211  0.00  0.00    +0.000 A 
ATOM      4  C   UNL     1       3.499   7.857  16.993  0.00  0.00    +0.000 C 
ATOM      5  N   UNL     1       1.964   8.904  18.527  0.00  0.00    +0.000 NA
ATOM      6  C   UNL     1       1.318   8.916  19.741  0.00  0.00    +0.000 A 
ATOM      7  C   UNL     1       0.713   9.936  20.459  0.00  0.00    +0.000 A 
ATOM      8  C   UNL     1       0.192   9.277  21.619  0.00  0.00    +0.000 A 
ATOM      9  C   UNL     1      -0.640   9.794  22.742  0.00  0.00    +0.000 C 
ATOM     10  N   UNL     1       0.541   7.987  21.666  0.00  0.00    +0.000 NA
ATOM     11  N   UNL     1       1.265   7.768  20.540  0.00  0.00    +0.000 N 
ENDROOT
BRANCH   7  12
ATOM     12  C   UNL     1       0.621  11.349  20.045  0.00  0.00    +0.000 A 
ATOM     13  C   UNL     1       1.513  12.265  20.642  0.00  0.00    +0.000 A 
ATOM     14  C   UNL     1       1.610  13.591  20.212  0.00  0.00    +0.000 A 
ATOM     15  C   UNL     1       0.749  14.058  19.230  0.00  0.00    +0.000 A 
ATOM     16 CL   UNL     1       0.865  15.688  18.693  0.00  0.00    +0.000 Cl
ATOM     17  C   UNL     1      -0.192  13.206  18.670  0.00  0.00    +0.000 A 
ATOM     18  C   UNL     1      -0.237  11.852  19.042  0.00  0.00    +0.000 A 
ATOM     19 CL   UNL     1      -1.320  10.892  18.089  0.00  0.00    +0.000 Cl
ENDBRANCH   7  12
BRANCH   1  20
ATOM     20  C   UNL     1       1.915   5.403  21.090  0.00  0.00    +0.000 C 
BRANCH  20  21
ATOM     21  N   UNL     1       2.123   4.098  20.403  0.00  0.00    +0.000 NA
BRANCH  21  22
ATOM     22  C   UNL     1       3.109   3.284  21.169  0.00  0.00    +0.000 C 
BRANCH  22  23
ATOM     23  C   UNL     1       3.960   2.244  20.405  0.00  0.00    +0.000 C 
BRANCH  23  25
ATOM     24  C   UNL     1       5.052   3.886  19.132  0.00  0.00    +0.000 C 
ATOM     25  O   UNL     1       5.224   2.768  19.998  0.00  0.00    +0.000 OA
ENDBRANCH  23  25
ENDBRANCH  22  23
ENDBRANCH  21  22
BRANCH  21  26
ATOM     26  C   UNL     1       0.839   3.381  20.248  0.00  0.00    +0.000 C 
BRANCH  26  27
ATOM     27  C   UNL     1       0.608   2.681  18.886  0.00  0.00    +0.000 C 
BRANCH  27  28
ATOM     28  O   UNL     1       1.394   3.197  17.810  0.00  0.00    +0.000 OA
ATOM     29  C   UNL     1       2.394   2.292  17.361  0.00  0.00    +0.000 C 
ENDBRANCH  27  28
ENDBRANCH  26  27
ENDBRANCH  21  26
ENDBRANCH  20  21
ENDBRANCH   1  20
TORSDOF 9
ENDMDL
MODEL 5
REMARK VINA RESULT:      -6.1      1.719      2.491
REMARK  Name = 
REMARK  13 active torsions:
REMARK  status: ('A' for Active; 'I' for Inactive)
REMARK    1  A    between atoms: C_1  and  O_2
REMARK    2  A    between atoms: O_2  and  C_3
REMARK    3  A    between atoms: C_3  and  C_4
REMARK    4  A    between atoms: C_4  and  N_5
REMARK    5  A    between atoms: N_5  and  C_6
REMARK    6  A    between atoms: N_5  and  C_10
REMARK    7  A    between atoms: C_6  and  C_7
REMARK    8  A    between atoms: C_7  and  O_8
REMARK    9  A    between atoms: O_8  and  C_9
REMARK   10  A    between atoms: C_10  and  C_11
REMARK   11  A    between atoms: C_13  and  C_14
REMARK   12  A    between atoms: C_17  and  C_18
REMARK   13  A    between atoms: C_26  and  C_27
REMARK                            x       y       z     vdW  Elec       q    Type
REMARK                         _______ _______ _______ _____ _____    ______ ____
ROOT
ATOM      1  C   UNL     1       3.469   5.907  18.405  0.00  0.00    +0.000 A 
ATOM      2  C   UNL     1       3.220   4.931  19.311  0.00  0.00    +0.000 A 
ATOM      3  C   UNL     1       2.316   5.300  20.432  0.00  0.00    +0.000 A 
ATOM      4  C   UNL     1       1.881   4.186  21.350  0.00  0.00    +0.000 C 
ATOM      5  N   UNL     1       1.839   6.490  20.649  0.00  0.00    +0.000 NA
ATOM      6  C   UNL     1       2.086   7.448  19.694  0.00  0.00    +0.000 A 
ATOM      7  C   UNL     1       1.585   8.728  19.513  0.00  0.00    +0.000 A 
ATOM      8  C   UNL     1       2.281   9.210  18.358  0.00  0.00    +0.000 A 
ATOM      9  C   UNL     1       2.263  10.544  17.695  0.00  0.00    +0.000 C 
ATOM     10  N   UNL     1       3.061   8.271  17.811  0.00  0.00    +0.000 NA
ATOM     11  N   UNL     1       2.915   7.176  18.599  0.00  0.00    +0.000 N 
ENDROOT
BRANCH   7  12
ATOM     12  C   UNL     1       0.595   9.400  20.376  0.00  0.00    +0.000 A 
ATOM     13  C   UNL     1       0.862   9.450  21.761  0.00  0.00    +0.000 A 
ATOM     14  C   UNL     1       0.068  10.192  22.641  0.00  0.00    +0.000 A 
ATOM     15  C   UNL     1      -1.069  10.829  22.167  0.00  0.00    +0.000 A 
ATOM     16 CL   UNL     1      -2.049  11.746  23.243  0.00  0.00    +0.000 Cl
ATOM     17  C   UNL     1      -1.405  10.742  20.824  0.00  0.00    +0.000 A 
ATOM     18  C   UNL     1      -0.564  10.067  19.923  0.00  0.00    +0.000 A 
ATOM     19 CL   UNL     1      -1.021  10.244  18.261  0.00  0.00    +0.000 Cl
ENDBRANCH   7  12
BRANCH   1  20
ATOM     20  C   UNL     1       4.281   5.626  17.168  0.00  0.00    +0.000 C 
BRANCH  20  21
ATOM     21  N   UNL     1       4.259   4.198  16.742  0.00  0.00    +0.000 NA
BRANCH  21  22
ATOM     22  C   UNL     1       5.390   3.943  15.805  0.00  0.00    +0.000 C 
BRANCH  22  23
ATOM     23  C   UNL     1       6.618   4.881  15.858  0.00  0.00    +0.000 C 
BRANCH  23  25
ATOM     24  C   UNL     1       7.739   4.722  17.915  0.00  0.00    +0.000 C 
ATOM     25  O   UNL     1       7.720   4.297  16.555  0.00  0.00    +0.000 OA
ENDBRANCH  23  25
ENDBRANCH  22  23
ENDBRANCH  21  22
BRANCH  21  26
ATOM     26  C   UNL     1       4.322   3.303  17.917  0.00  0.00    +0.000 C 
BRANCH  26  27
ATOM     27  C   UNL     1       3.474   2.009  17.834  0.00  0.00    +0.000 C 
BRANCH  27  28
ATOM     28  O   UNL     1       2.116   2.211  17.439  0.00  0.00    +0.000 OA
ATOM     29  C   UNL     1       1.199   2.135  18.521  0.00  0.00    +0.000 C 
ENDBRANCH  27  28
ENDBRANCH  26  27
ENDBRANCH  21  26
ENDBRANCH  20  21
ENDBRANCH   1  20
TORSDOF 9
ENDMDL
MODEL 6
REMARK VINA RESULT:      -6.0      1.624      2.389
REMARK  Name = 
REMARK  13 active torsions:
REMARK  status: ('A' for Active; 'I' for Inactive)
REMARK    1  A    between atoms: C_1  and  O_2
REMARK    2  A    between atoms: O_2  and  C_3
REMARK    3  A    between atoms: C_3  and  C_4
REMARK    4  A    between atoms: C_4  and  N_5
REMARK    5  A    between atoms: N_5  and  C_6
REMARK    6  A    between atoms: N_5  and  C_10
REMARK    7  A    between atoms: C_6  and  C_7
REMARK    8  A    between atoms: C_7  and  O_8
REMARK    9  A    between atoms: O_8  and  C_9
REMARK   10  A    between atoms: C_10  and  C_11
REMARK   11  A    between atoms: C_13  and  C_14
REMARK   12  A    between atoms: C_17  and  C_18
REMARK   13  A    between atoms: C_26  and  C_27
REMARK                            x       y       z     vdW  Elec       q    Type
REMARK                         _______ _______ _______ _____ _____    ______ ____
ROOT
ATOM      1  C   UNL     1       3.430   5.980  18.499  0.00  0.00    +0.000 A 
ATOM      2  C   UNL     1       3.164   5.010  19.407  0.00  0.00    +0.000 A 
ATOM      3  C   UNL     1       2.247   5.388  20.514  0.00  0.00    +0.000 A 
ATOM      4  C   UNL     1       1.795   4.279  21.431  0.00  0.00    +0.000 C 
ATOM      5  N   UNL     1       1.772   6.581  20.718  0.00  0.00    +0.000 NA
ATOM      6  C   UNL     1       2.036   7.533  19.763  0.00  0.00    +0.000 A 
ATOM      7  C   UNL     1       1.543   8.814  19.568  0.00  0.00    +0.000 A 
ATOM      8  C   UNL     1       2.256   9.287  18.421  0.00  0.00    +0.000 A 
ATOM      9  C   UNL     1       2.252  10.618  17.751  0.00  0.00    +0.000 C 
ATOM     10  N   UNL     1       3.039   8.342  17.888  0.00  0.00    +0.000 NA
ATOM     11  N   UNL     1       2.878   7.252  18.680  0.00  0.00    +0.000 N 
ENDROOT
BRANCH   7  12
ATOM     12  C   UNL     1       0.544   9.494  20.415  0.00  0.00    +0.000 A 
ATOM     13  C   UNL     1       0.813   9.589  21.797  0.00  0.00    +0.000 A 
ATOM     14  C   UNL     1       0.010  10.342  22.658  0.00  0.00    +0.000 A 
ATOM     15  C   UNL     1      -1.139  10.947  22.169  0.00  0.00    +0.000 A 
ATOM     16 CL   UNL     1      -2.131  11.878  23.222  0.00  0.00    +0.000 Cl
ATOM     17  C   UNL     1      -1.477  10.815  20.830  0.00  0.00    +0.000 A 
ATOM     18  C   UNL     1      -0.628  10.128  19.946  0.00  0.00    +0.000 A 
ATOM     19 CL   UNL     1      -1.092  10.250  18.281  0.00  0.00    +0.000 Cl
ENDBRANCH   7  12
BRANCH   1  20
ATOM     20  C   UNL     1       4.257   5.689  17.275  0.00  0.00    +0.000 C 
BRANCH  20  21
ATOM     21  N   UNL     1       4.430   4.237  16.992  0.00  0.00    +0.000 NA
BRANCH  21  22
ATOM     22  C   UNL     1       3.110   3.638  16.646  0.00  0.00    +0.000 C 
BRANCH  22  23
ATOM     23  C   UNL     1       2.702   2.309  17.322  0.00  0.00    +0.000 C 
BRANCH  23  25
ATOM     24  C   UNL     1       3.705   1.694  19.354  0.00  0.00    +0.000 C 
ATOM     25  O   UNL     1       3.810   1.646  17.934  0.00  0.00    +0.000 OA
ENDBRANCH  23  25
ENDBRANCH  22  23
ENDBRANCH  21  22
BRANCH  21  26
ATOM     26  C   UNL     1       5.415   4.031  15.909  0.00  0.00    +0.000 C 
BRANCH  26  27
ATOM     27  C   UNL     1       6.826   4.623  16.148  0.00  0.00    +0.000 C 
BRANCH  27  28
ATOM     28  O   UNL     1       7.323   5.429  15.078  0.00  0.00    +0.000 OA
ATOM     29  C   UNL     1       7.133   4.842  13.798  0.00  0.00    +0.000 C 
ENDBRANCH  27  28
ENDBRANCH  26  27
ENDBRANCH  21  26
ENDBRANCH  20  21
ENDBRANCH   1  20
TORSDOF 9
ENDMDL
MODEL 7
REMARK VINA RESULT:      -6.0      1.683      2.833
REMARK  Name = 
REMARK  13 active torsions:
REMARK  status: ('A' for Active; 'I' for Inactive)
REMARK    1  A    between atoms: C_1  and  O_2
REMARK    2  A    between atoms: O_2  and  C_3
REMARK    3  A    between atoms: C_3  and  C_4
REMARK    4  A    between atoms: C_4  and  N_5
REMARK    5  A    between atoms: N_5  and  C_6
REMARK    6  A    between atoms: N_5  and  C_10
REMARK    7  A    between atoms: C_6  and  C_7
REMARK    8  A    between atoms: C_7  and  O_8
REMARK    9  A    between atoms: O_8  and  C_9
REMARK   10  A    between atoms: C_10  and  C_11
REMARK   11  A    between atoms: C_13  and  C_14
REMARK   12  A    between atoms: C_17  and  C_18
REMARK   13  A    between atoms: C_26  and  C_27
REMARK                            x       y       z     vdW  Elec       q    Type
REMARK                         _______ _______ _______ _____ _____    ______ ____
ROOT
ATOM      1  C   UNL     1       3.315   6.064  18.451  0.00  0.00    +0.000 A 
ATOM      2  C   UNL     1       3.030   5.092  19.351  0.00  0.00    +0.000 A 
ATOM      3  C   UNL     1       2.112   5.478  20.455  0.00  0.00    +0.000 A 
ATOM      4  C   UNL     1       1.638   4.371  21.363  0.00  0.00    +0.000 C 
ATOM      5  N   UNL     1       1.654   6.676  20.664  0.00  0.00    +0.000 NA
ATOM      6  C   UNL     1       1.937   7.630  19.715  0.00  0.00    +0.000 A 
ATOM      7  C   UNL     1       1.464   8.919  19.526  0.00  0.00    +0.000 A 
ATOM      8  C   UNL     1       2.191   9.388  18.385  0.00  0.00    +0.000 A 
ATOM      9  C   UNL     1       2.211  10.723  17.723  0.00  0.00    +0.000 C 
ATOM     10  N   UNL     1       2.963   8.435  17.852  0.00  0.00    +0.000 NA
ATOM     11  N   UNL     1       2.782   7.343  18.636  0.00  0.00    +0.000 N 
ENDROOT
BRANCH   7  12
ATOM     12  C   UNL     1       0.470   9.609  20.370  0.00  0.00    +0.000 A 
ATOM     13  C   UNL     1       0.722   9.673  21.757  0.00  0.00    +0.000 A 
ATOM     14  C   UNL     1      -0.075  10.431  22.620  0.00  0.00    +0.000 A 
ATOM     15  C   UNL     1      -1.201  11.072  22.127  0.00  0.00    +0.000 A 
ATOM     16 CL   UNL     1      -2.185  12.010  23.182  0.00  0.00    +0.000 Cl
ATOM     17  C   UNL     1      -1.523  10.973  20.781  0.00  0.00    +0.000 A 
ATOM     18  C   UNL     1      -0.679  10.280  19.897  0.00  0.00    +0.000 A 
ATOM     19 CL   UNL     1      -1.117  10.442  18.228  0.00  0.00    +0.000 Cl
ENDBRANCH   7  12
BRANCH   1  20
ATOM     20  C   UNL     1       4.145   5.768  17.230  0.00  0.00    +0.000 C 
BRANCH  20  21
ATOM     21  N   UNL     1       4.921   4.499  17.319  0.00  0.00    +0.000 NA
BRANCH  21  22
ATOM     22  C   UNL     1       4.047   3.355  16.932  0.00  0.00    +0.000 C 
BRANCH  22  23
ATOM     23  C   UNL     1       4.210   2.015  17.685  0.00  0.00    +0.000 C 
BRANCH  23  25
ATOM     24  C   UNL     1       1.896   2.275  17.984  0.00  0.00    +0.000 C 
ATOM     25  O   UNL     1       3.093   1.724  18.526  0.00  0.00    +0.000 OA
ENDBRANCH  23  25
ENDBRANCH  22  23
ENDBRANCH  21  22
BRANCH  21  26
ATOM     26  C   UNL     1       6.127   4.566  16.466  0.00  0.00    +0.000 C 
BRANCH  26  27
ATOM     27  C   UNL     1       7.488   4.550  17.207  0.00  0.00    +0.000 C 
BRANCH  27  28
ATOM     28  O   UNL     1       7.562   5.423  18.335  0.00  0.00    +0.000 OA
ATOM     29  C   UNL     1       7.622   6.798  17.979  0.00  0.00    +0.000 C 
ENDBRANCH  27  28
ENDBRANCH  26  27
ENDBRANCH  21  26
ENDBRANCH  20  21
ENDBRANCH   1  20
TORSDOF 9
ENDMDL
MODEL 8
REMARK VINA RESULT:      -5.9      1.670      3.029
REMARK  Name = 
REMARK  13 active torsions:
REMARK  status: ('A' for Active; 'I' for Inactive)
REMARK    1  A    between atoms: C_1  and  O_2
REMARK    2  A    between atoms: O_2  and  C_3
REMARK    3  A    between atoms: C_3  and  C_4
REMARK    4  A    between atoms: C_4  and  N_5
REMARK    5  A    between atoms: N_5  and  C_6
REMARK    6  A    between atoms: N_5  and  C_10
REMARK    7  A    between atoms: C_6  and  C_7
REMARK    8  A    between atoms: C_7  and  O_8
REMARK    9  A    between atoms: O_8  and  C_9
REMARK   10  A    between atoms: C_10  and  C_11
REMARK   11  A    between atoms: C_13  and  C_14
REMARK   12  A    between atoms: C_17  and  C_18
REMARK   13  A    between atoms: C_26  and  C_27
REMARK                            x       y       z     vdW  Elec       q    Type
REMARK                         _______ _______ _______ _____ _____    ______ ____
ROOT
ATOM      1  C   UNL     1       3.072   7.268  18.083  0.00  0.00    +0.000 A 
ATOM      2  C   UNL     1       2.824   6.191  18.865  0.00  0.00    +0.000 A 
ATOM      3  C   UNL     1       1.890   6.413  20.000  0.00  0.00    +0.000 A 
ATOM      4  C   UNL     1       1.458   5.193  20.775  0.00  0.00    +0.000 C 
ATOM      5  N   UNL     1       1.385   7.562  20.341  0.00  0.00    +0.000 NA
ATOM      6  C   UNL     1       1.633   8.627  19.508  0.00  0.00    +0.000 A 
ATOM      7  C   UNL     1       1.110   9.910  19.462  0.00  0.00    +0.000 A 
ATOM      8  C   UNL     1       1.821  10.533  18.386  0.00  0.00    +0.000 A 
ATOM      9  C   UNL     1       1.790  11.934  17.880  0.00  0.00    +0.000 C 
ATOM     10  N   UNL     1       2.630   9.677  17.753  0.00  0.00    +0.000 NA
ATOM     11  N   UNL     1       2.490   8.496  18.408  0.00  0.00    +0.000 N 
ENDROOT
BRANCH   7  12
ATOM     12  C   UNL     1       0.089  10.461  20.373  0.00  0.00    +0.000 A 
ATOM     13  C   UNL     1       0.303  10.315  21.760  0.00  0.00    +0.000 A 
ATOM     14  C   UNL     1      -0.522  10.932  22.706  0.00  0.00    +0.000 A 
ATOM     15  C   UNL     1      -1.639  11.637  22.284  0.00  0.00    +0.000 A 
ATOM     16 CL   UNL     1      -2.658  12.401  23.441  0.00  0.00    +0.000 Cl
ATOM     17  C   UNL     1      -1.924  11.741  20.930  0.00  0.00    +0.000 A 
ATOM     18  C   UNL     1      -1.051  11.193  19.975  0.00  0.00    +0.000 A 
ATOM     19 CL   UNL     1      -1.444  11.605  18.338  0.00  0.00    +0.000 Cl
ENDBRANCH   7  12
BRANCH   1  20
ATOM     20  C   UNL     1       3.916   7.144  16.841  0.00  0.00    +0.000 C 
BRANCH  20  21
ATOM     21  N   UNL     1       5.236   6.492  17.069  0.00  0.00    +0.000 NA
BRANCH  21  22
ATOM     22  C   UNL     1       5.579   5.643  15.893  0.00  0.00    +0.000 C 
BRANCH  22  23
ATOM     23  C   UNL     1       5.302   4.124  15.975  0.00  0.00    +0.000 C 
BRANCH  23  25
ATOM     24  C   UNL     1       3.689   3.123  17.356  0.00  0.00    +0.000 C 
ATOM     25  O   UNL     1       4.992   3.697  17.302  0.00  0.00    +0.000 OA
ENDBRANCH  23  25
ENDBRANCH  22  23
ENDBRANCH  21  22
BRANCH  21  26
ATOM     26  C   UNL     1       6.281   7.507  17.322  0.00  0.00    +0.000 C 
BRANCH  26  27
ATOM     27  C   UNL     1       7.734   6.980  17.421  0.00  0.00    +0.000 C 
BRANCH  27  28
ATOM     28  O   UNL     1       8.211   6.797  18.755  0.00  0.00    +0.000 OA
ATOM     29  C   UNL     1       7.571   5.728  19.439  0.00  0.00    +0.000 C 
ENDBRANCH  27  28
ENDBRANCH  26  27
ENDBRANCH  21  26
ENDBRANCH  20  21
ENDBRANCH   1  20
TORSDOF 9
ENDMDL
MODEL 9
REMARK VINA RESULT:      -5.9      5.603      9.849
REMARK  Name = 
REMARK  13 active torsions:
REMARK  status: ('A' for Active; 'I' for Inactive)
REMARK    1  A    between atoms: C_1  and  O_2
REMARK    2  A    between atoms: O_2  and  C_3
REMARK    3  A    between atoms: C_3  and  C_4
REMARK    4  A    between atoms: C_4  and  N_5
REMARK    5  A    between atoms: N_5  and  C_6
REMARK    6  A    between atoms: N_5  and  C_10
REMARK    7  A    between atoms: C_6  and  C_7
REMARK    8  A    between atoms: C_7  and  O_8
REMARK    9  A    between atoms: O_8  and  C_9
REMARK   10  A    between atoms: C_10  and  C_11
REMARK   11  A    between atoms: C_13  and  C_14
REMARK   12  A    between atoms: C_17  and  C_18
REMARK   13  A    between atoms: C_26  and  C_27
REMARK                            x       y       z     vdW  Elec       q    Type
REMARK                         _______ _______ _______ _____ _____    ______ ____
ROOT
ATOM      1  C   UNL     1      -1.465  11.809  20.255  0.00  0.00    +0.000 A 
ATOM      2  C   UNL     1      -1.969  11.725  19.000  0.00  0.00    +0.000 A 
ATOM      3  C   UNL     1      -1.427  10.630  18.154  0.00  0.00    +0.000 A 
ATOM      4  C   UNL     1      -2.099  10.404  16.822  0.00  0.00    +0.000 C 
ATOM      5  N   UNL     1      -0.460   9.830  18.492  0.00  0.00    +0.000 NA
ATOM      6  C   UNL     1       0.008   9.922  19.782  0.00  0.00    +0.000 A 
ATOM      7  C   UNL     1       0.870   9.122  20.516  0.00  0.00    +0.000 A 
ATOM      8  C   UNL     1       0.976   9.795  21.775  0.00  0.00    +0.000 A 
ATOM      9  C   UNL     1       1.813   9.499  22.971  0.00  0.00    +0.000 C 
ATOM     10  N   UNL     1       0.165  10.856  21.850  0.00  0.00    +0.000 NA
ATOM     11  N   UNL     1      -0.462  10.917  20.648  0.00  0.00    +0.000 N 
ENDROOT
BRANCH   7  12
ATOM     12  C   UNL     1       1.531   7.894  20.035  0.00  0.00    +0.000 A 
ATOM     13  C   UNL     1       1.339   6.713  20.782  0.00  0.00    +0.000 A 
ATOM     14  C   UNL     1       1.794   5.470  20.331  0.00  0.00    +0.000 A 
ATOM     15  C   UNL     1       2.534   5.394  19.161  0.00  0.00    +0.000 A 
ATOM     16 CL   UNL     1       3.094   3.868  18.598  0.00  0.00    +0.000 Cl
ATOM     17  C   UNL     1       2.806   6.545  18.436  0.00  0.00    +0.000 A 
ATOM     18  C   UNL     1       2.280   7.783  18.843  0.00  0.00    +0.000 A 
ATOM     19 CL   UNL     1       2.535   9.067  17.707  0.00  0.00    +0.000 Cl
ENDBRANCH   7  12
BRANCH   1  20
ATOM     20  C   UNL     1      -2.009  12.807  21.243  0.00  0.00    +0.000 C 
BRANCH  20  21
ATOM     21  N   UNL     1      -3.181  12.312  22.018  0.00  0.00    +0.000 NA
BRANCH  21  22
ATOM     22  C   UNL     1      -2.907  12.454  23.476  0.00  0.00    +0.000 C 
BRANCH  22  23
ATOM     23  C   UNL     1      -3.906  13.259  24.340  0.00  0.00    +0.000 C 
BRANCH  23  25
ATOM     24  C   UNL     1      -2.599  15.207  24.248  0.00  0.00    +0.000 C 
ATOM     25  O   UNL     1      -3.264  14.282  25.103  0.00  0.00    +0.000 OA
ENDBRANCH  23  25
ENDBRANCH  22  23
ENDBRANCH  21  22
BRANCH  21  26
ATOM     26  C   UNL     1      -4.408  13.040  21.628  0.00  0.00    +0.000 C 
BRANCH  26  27
ATOM     27  C   UNL     1      -5.259  12.392  20.509  0.00  0.00    +0.000 C 
BRANCH  27  28
ATOM     28  O   UNL     1      -6.671  12.445  20.728  0.00  0.00    +0.000 OA
ATOM     29  C   UNL     1      -7.407  12.800  19.566  0.00  0.00    +0.000 C 
ENDBRANCH  27  28
ENDBRANCH  26  27
ENDBRANCH  21  26
ENDBRANCH  20  21
ENDBRANCH   1  20
TORSDOF 9
ENDMDL
