MODEL 1
REMARK VINA RESULT:      -6.4      0.000      0.000
REMARK  Name = 
REMARK  7 active torsions:
REMARK  status: ('A' for Active; 'I' for Inactive)
REMARK    1  A    between atoms: C_1  and  C_2
REMARK    2  A    between atoms: C_2  and  C_4
REMARK    3  A    between atoms: C_8  and  C_10
REMARK    4  A    between atoms: C_10  and  P_11
REMARK    5  A    between atoms: P_11  and  O_13
REMARK    6  A    between atoms: P_11  and  O_14
REMARK    7  A    between atoms: C_16  and  C_17
REMARK                            x       y       z     vdW  Elec       q    Type
REMARK                         _______ _______ _______ _____ _____    ______ ____
ROOT
ATOM      1  C   UNL     1       6.093   4.490  16.381  0.00  0.00    +0.000 A 
ATOM      2  S   UNL     1       4.432   4.092  16.424  0.00  0.00    +0.000 S 
ATOM      3  C   UNL     1       4.493   3.927  18.116  0.00  0.00    +0.000 A 
ATOM      4  N   UNL     1       3.378   3.587  18.851  0.00  0.00    +0.000 N 
ATOM      5  C   UNL     1       2.234   3.004  18.341  0.00  0.00    +0.000 C 
ATOM      6  O   UNL     1       2.069   2.604  17.190  0.00  0.00    +0.000 OA
ATOM      7  N   UNL     1       5.647   4.208  18.666  0.00  0.00    +0.000 NA
ATOM      8  C   UNL     1       6.591   4.501  17.676  0.00  0.00    +0.000 A 
ATOM      9  C   UNL     1       7.996   4.787  18.084  0.00  0.00    +0.000 C 
ATOM     10  H   UNL     1       3.524   3.595  19.856  0.00  0.00    +0.000 HD
ENDROOT
BRANCH   1  12
ATOM     11  C   UNL     1       6.395   3.983  13.895  0.00  0.00    +0.000 C 
ATOM     12  C   UNL     1       6.796   4.757  15.134  0.00  0.00    +0.000 C 
ATOM     13  O   UNL     1       7.701   5.589  15.048  0.00  0.00    +0.000 OA
ENDBRANCH   1  12
BRANCH   5  14
ATOM     14  C   UNL     1       1.134   2.777  19.336  0.00  0.00    +0.000 C 
BRANCH  14  15
ATOM     15  P   UNL     1       1.846   3.186  20.971  0.00  0.00    +0.000 P 
ATOM     16  O   UNL     1       1.401   4.644  20.830  0.00  0.00    +0.000 OA
BRANCH  15  17
ATOM     17  O   UNL     1       0.645   2.387  21.739  0.00  0.00    +0.000 OA
ATOM     18  H   UNL     1       0.341   2.843  22.548  0.00  0.00    +0.000 HD
ENDBRANCH  15  17
BRANCH  15  19
ATOM     19  O   UNL     1       2.519   3.574  22.517  0.00  0.00    +0.000 OA
ATOM     20  H   UNL     1       1.735   3.637  23.103  0.00  0.00    +0.000 HD
ENDBRANCH  15  19
ENDBRANCH  14  15
ENDBRANCH   5  14
TORSDOF 5
ENDMDL
MODEL 2
REMARK VINA RESULT:      -6.4      1.569      1.837
REMARK  Name = 
REMARK  7 active torsions:
REMARK  status: ('A' for Active; 'I' for Inactive)
REMARK    1  A    between atoms: C_1  and  C_2
REMARK    2  A    between atoms: C_2  and  C_4
REMARK    3  A    between atoms: C_8  and  C_10
REMARK    4  A    between atoms: C_10  and  P_11
REMARK    5  A    between atoms: P_11  and  O_13
REMARK    6  A    between atoms: P_11  and  O_14
REMARK    7  A    between atoms: C_16  and  C_17
REMARK                            x       y       z     vdW  Elec       q    Type
REMARK                         _______ _______ _______ _____ _____    ______ ____
ROOT
ATOM      1  C   UNL     1       6.341   4.951  16.346  0.00  0.00    +0.000 A 
ATOM      2  S   UNL     1       5.279   3.768  16.973  0.00  0.00    +0.000 S 
ATOM      3  C   UNL     1       5.315   4.515  18.502  0.00  0.00    +0.000 A 
ATOM      4  N   UNL     1       4.599   4.016  19.569  0.00  0.00    +0.000 N 
ATOM      5  C   UNL     1       4.095   2.733  19.660  0.00  0.00    +0.000 C 
ATOM      6  O   UNL     1       4.288   1.813  18.866  0.00  0.00    +0.000 OA
ATOM      7  N   UNL     1       6.011   5.621  18.569  0.00  0.00    +0.000 NA
ATOM      8  C   UNL     1       6.638   5.869  17.344  0.00  0.00    +0.000 A 
ATOM      9  C   UNL     1       7.538   7.051  17.222  0.00  0.00    +0.000 C 
ATOM     10  H   UNL     1       4.642   4.592  20.404  0.00  0.00    +0.000 HD
ENDROOT
BRANCH   1  12
ATOM     11  C   UNL     1       6.034   4.107  13.955  0.00  0.00    +0.000 C 
ATOM     12  C   UNL     1       6.811   4.920  14.969  0.00  0.00    +0.000 C 
ATOM     13  O   UNL     1       7.815   5.531  14.597  0.00  0.00    +0.000 OA
ENDBRANCH   1  12
BRANCH   5  14
ATOM     14  C   UNL     1       3.304   2.444  20.901  0.00  0.00    +0.000 C 
BRANCH  14  15
ATOM     15  P   UNL     1       1.659   3.201  20.634  0.00  0.00    +0.000 P 
ATOM     16  O   UNL     1       2.147   4.531  21.215  0.00  0.00    +0.000 OA
BRANCH  15  17
ATOM     17  O   UNL     1       1.903   3.261  19.019  0.00  0.00    +0.000 OA
ATOM     18  H   UNL     1       1.471   4.028  18.597  0.00  0.00    +0.000 HD
ENDBRANCH  15  17
BRANCH  15  19
ATOM     19  O   UNL     1       0.105   3.918  20.383  0.00  0.00    +0.000 OA
ATOM     20  H   UNL     1      -0.132   4.277  21.265  0.00  0.00    +0.000 HD
ENDBRANCH  15  19
ENDBRANCH  14  15
ENDBRANCH   5  14
TORSDOF 5
ENDMDL
MODEL 3
REMARK VINA RESULT:      -6.3      1.169      1.355
REMARK  Name = 
REMARK  7 active torsions:
REMARK  status: ('A' for Active; 'I' for Inactive)
REMARK    1  A    between atoms: C_1  and  C_2
REMARK    2  A    between atoms: C_2  and  C_4
REMARK    3  A    between atoms: C_8  and  C_10
REMARK    4  A    between atoms: C_10  and  P_11
REMARK    5  A    between atoms: P_11  and  O_13
REMARK    6  A    between atoms: P_11  and  O_14
REMARK    7  A    between atoms: C_16  and  C_17
REMARK                            x       y       z     vdW  Elec       q    Type
REMARK                         _______ _______ _______ _____ _____    ______ ____
ROOT
ATOM      1  C   UNL     1       5.896   5.053  15.978  0.00  0.00    +0.000 A 
ATOM      2  S   UNL     1       4.407   4.226  16.111  0.00  0.00    +0.000 S 
ATOM      3  C   UNL     1       4.127   4.931  17.634  0.00  0.00    +0.000 A 
ATOM      4  N   UNL     1       2.987   4.660  18.359  0.00  0.00    +0.000 N 
ATOM      5  C   UNL     1       2.154   3.576  18.158  0.00  0.00    +0.000 C 
ATOM      6  O   UNL     1       2.346   2.640  17.384  0.00  0.00    +0.000 OA
ATOM      7  N   UNL     1       5.032   5.790  18.029  0.00  0.00    +0.000 NA
ATOM      8  C   UNL     1       6.077   5.847  17.102  0.00  0.00    +0.000 A 
ATOM      9  C   UNL     1       7.250   6.720  17.392  0.00  0.00    +0.000 C 
ATOM     10  H   UNL     1       2.900   5.200  19.215  0.00  0.00    +0.000 HD
ENDROOT
BRANCH   1  12
ATOM     11  C   UNL     1       6.343   3.963  13.711  0.00  0.00    +0.000 C 
ATOM     12  C   UNL     1       6.776   4.888  14.829  0.00  0.00    +0.000 C 
ATOM     13  O   UNL     1       7.858   5.472  14.733  0.00  0.00    +0.000 OA
ENDBRANCH   1  12
BRANCH   5  14
ATOM     14  C   UNL     1       0.944   3.528  19.043  0.00  0.00    +0.000 C 
BRANCH  14  15
ATOM     15  P   UNL     1       1.571   3.200  20.731  0.00  0.00    +0.000 P 
ATOM     16  O   UNL     1       2.825   2.527  20.163  0.00  0.00    +0.000 OA
BRANCH  15  17
ATOM     17  O   UNL     1       1.929   4.780  20.949  0.00  0.00    +0.000 OA
ATOM     18  H   UNL     1       2.843   5.003  20.687  0.00  0.00    +0.000 HD
ENDBRANCH  15  17
BRANCH  15  19
ATOM     19  O   UNL     1       2.166   2.889  22.325  0.00  0.00    +0.000 OA
ATOM     20  H   UNL     1       2.926   2.287  22.178  0.00  0.00    +0.000 HD
ENDBRANCH  15  19
ENDBRANCH  14  15
ENDBRANCH   5  14
TORSDOF 5
ENDMDL
MODEL 4
REMARK VINA RESULT:      -6.2      2.991      6.817
REMARK  Name = 
REMARK  7 active torsions:
REMARK  status: ('A' for Active; 'I' for Inactive)
REMARK    1  A    between atoms: C_1  and  C_2
REMARK    2  A    between atoms: C_2  and  C_4
REMARK    3  A    between atoms: C_8  and  C_10
REMARK    4  A    between atoms: C_10  and  P_11
REMARK    5  A    between atoms: P_11  and  O_13
REMARK    6  A    between atoms: P_11  and  O_14
REMARK    7  A    between atoms: C_16  and  C_17
REMARK                            x       y       z     vdW  Elec       q    Type
REMARK                         _______ _______ _______ _____ _____    ______ ____
ROOT
ATOM      1  C   UNL     1       2.813   3.100  19.861  0.00  0.00    +0.000 A 
ATOM      2  S   UNL     1       4.192   4.002  19.409  0.00  0.00    +0.000 S 
ATOM      3  C   UNL     1       3.641   4.080  17.801  0.00  0.00    +0.000 A 
ATOM      4  N   UNL     1       4.356   4.734  16.821  0.00  0.00    +0.000 N 
ATOM      5  C   UNL     1       5.696   5.065  16.899  0.00  0.00    +0.000 C 
ATOM      6  O   UNL     1       6.477   4.744  17.792  0.00  0.00    +0.000 OA
ATOM      7  N   UNL     1       2.470   3.538  17.583  0.00  0.00    +0.000 NA
ATOM      8  C   UNL     1       1.994   2.937  18.752  0.00  0.00    +0.000 A 
ATOM      9  C   UNL     1       0.698   2.201  18.707  0.00  0.00    +0.000 C 
ATOM     10  H   UNL     1       3.886   4.776  15.922  0.00  0.00    +0.000 HD
ENDROOT
BRANCH   1  12
ATOM     11  C   UNL     1       1.274   2.859  21.886  0.00  0.00    +0.000 C 
ATOM     12  C   UNL     1       2.612   2.616  21.220  0.00  0.00    +0.000 C 
ATOM     13  O   UNL     1       3.489   2.016  21.846  0.00  0.00    +0.000 OA
ENDBRANCH   1  12
BRANCH   5  14
ATOM     14  C   UNL     1       6.235   5.823  15.722  0.00  0.00    +0.000 C 
BRANCH  14  15
ATOM     15  P   UNL     1       6.363   4.608  14.360  0.00  0.00    +0.000 P 
ATOM     16  O   UNL     1       7.766   5.111  14.007  0.00  0.00    +0.000 OA
BRANCH  15  17
ATOM     17  O   UNL     1       6.545   3.377  15.420  0.00  0.00    +0.000 OA
ATOM     18  H   UNL     1       5.719   2.879  15.571  0.00  0.00    +0.000 HD
ENDBRANCH  15  17
BRANCH  15  19
ATOM     19  O   UNL     1       6.486   3.460  13.072  0.00  0.00    +0.000 OA
ATOM     20  H   UNL     1       6.864   2.664  13.503  0.00  0.00    +0.000 HD
ENDBRANCH  15  19
ENDBRANCH  14  15
ENDBRANCH   5  14
TORSDOF 5
ENDMDL
MODEL 5
REMARK VINA RESULT:      -6.2      1.238      1.393
REMARK  Name = 
REMARK  7 active torsions:
REMARK  status: ('A' for Active; 'I' for Inactive)
REMARK    1  A    between atoms: C_1  and  C_2
REMARK    2  A    between atoms: C_2  and  C_4
REMARK    3  A    between atoms: C_8  and  C_10
REMARK    4  A    between atoms: C_10  and  P_11
REMARK    5  A    between atoms: P_11  and  O_13
REMARK    6  A    between atoms: P_11  and  O_14
REMARK    7  A    between atoms: C_16  and  C_17
REMARK                            x       y       z     vdW  Elec       q    Type
REMARK                         _______ _______ _______ _____ _____    ______ ____
ROOT
ATOM      1  C   UNL     1       6.313   4.855  15.916  0.00  0.00    +0.000 A 
ATOM      2  S   UNL     1       5.114   3.690  16.270  0.00  0.00    +0.000 S 
ATOM      3  C   UNL     1       4.962   4.295  17.853  0.00  0.00    +0.000 A 
ATOM      4  N   UNL     1       4.074   3.749  18.755  0.00  0.00    +0.000 N 
ATOM      5  C   UNL     1       3.499   2.497  18.649  0.00  0.00    +0.000 C 
ATOM      6  O   UNL     1       3.762   1.641  17.806  0.00  0.00    +0.000 OA
ATOM      7  N   UNL     1       5.694   5.345  18.124  0.00  0.00    +0.000 NA
ATOM      8  C   UNL     1       6.505   5.661  17.030  0.00  0.00    +0.000 A 
ATOM      9  C   UNL     1       7.470   6.791  17.151  0.00  0.00    +0.000 C 
ATOM     10  H   UNL     1       4.022   4.246  19.639  0.00  0.00    +0.000 HD
ENDROOT
BRANCH   1  12
ATOM     11  C   UNL     1       6.433   4.076  13.486  0.00  0.00    +0.000 C 
ATOM     12  C   UNL     1       6.978   4.916  14.622  0.00  0.00    +0.000 C 
ATOM     13  O   UNL     1       7.965   5.626  14.417  0.00  0.00    +0.000 OA
ENDBRANCH   1  12
BRANCH   5  14
ATOM     14  C   UNL     1       2.522   2.150  19.733  0.00  0.00    +0.000 C 
BRANCH  14  15
ATOM     15  P   UNL     1       1.820   3.741  20.302  0.00  0.00    +0.000 P 
ATOM     16  O   UNL     1       1.170   3.974  18.936  0.00  0.00    +0.000 OA
BRANCH  15  17
ATOM     17  O   UNL     1       0.720   2.969  21.233  0.00  0.00    +0.000 OA
ATOM     18  H   UNL     1       0.883   2.008  21.298  0.00  0.00    +0.000 HD
ENDBRANCH  15  17
BRANCH  15  19
ATOM     19  O   UNL     1       1.155   5.245  20.839  0.00  0.00    +0.000 OA
ATOM     20  H   UNL     1       1.080   5.774  20.017  0.00  0.00    +0.000 HD
ENDBRANCH  15  19
ENDBRANCH  14  15
ENDBRANCH   5  14
TORSDOF 5
ENDMDL
MODEL 6
REMARK VINA RESULT:      -6.1      2.936      6.852
REMARK  Name = 
REMARK  7 active torsions:
REMARK  status: ('A' for Active; 'I' for Inactive)
REMARK    1  A    between atoms: C_1  and  C_2
REMARK    2  A    between atoms: C_2  and  C_4
REMARK    3  A    between atoms: C_8  and  C_10
REMARK    4  A    between atoms: C_10  and  P_11
REMARK    5  A    between atoms: P_11  and  O_13
REMARK    6  A    between atoms: P_11  and  O_14
REMARK    7  A    between atoms: C_16  and  C_17
REMARK                            x       y       z     vdW  Elec       q    Type
REMARK                         _______ _______ _______ _____ _____    ______ ____
ROOT
ATOM      1  C   UNL     1       3.080   3.011  19.980  0.00  0.00    +0.000 A 
ATOM      2  S   UNL     1       4.530   3.887  19.752  0.00  0.00    +0.000 S 
ATOM      3  C   UNL     1       4.286   3.893  18.067  0.00  0.00    +0.000 A 
ATOM      4  N   UNL     1       5.178   4.499  17.209  0.00  0.00    +0.000 N 
ATOM      5  C   UNL     1       6.483   4.829  17.518  0.00  0.00    +0.000 C 
ATOM      6  O   UNL     1       7.083   4.546  18.554  0.00  0.00    +0.000 OA
ATOM      7  N   UNL     1       3.170   3.344  17.661  0.00  0.00    +0.000 NA
ATOM      8  C   UNL     1       2.478   2.799  18.747  0.00  0.00    +0.000 A 
ATOM      9  C   UNL     1       1.205   2.066  18.496  0.00  0.00    +0.000 C 
ATOM     10  H   UNL     1       4.883   4.501  16.237  0.00  0.00    +0.000 HD
ENDROOT
BRANCH   1  12
ATOM     11  C   UNL     1       1.251   3.019  21.763  0.00  0.00    +0.000 C 
ATOM     12  C   UNL     1       2.627   2.590  21.298  0.00  0.00    +0.000 C 
ATOM     13  O   UNL     1       3.319   1.898  22.048  0.00  0.00    +0.000 OA
ENDBRANCH   1  12
BRANCH   5  14
ATOM     14  C   UNL     1       7.240   5.530  16.430  0.00  0.00    +0.000 C 
BRANCH  14  15
ATOM     15  P   UNL     1       6.639   4.811  14.858  0.00  0.00    +0.000 P 
ATOM     16  O   UNL     1       5.529   5.862  14.771  0.00  0.00    +0.000 OA
BRANCH  15  17
ATOM     17  O   UNL     1       7.928   5.402  14.047  0.00  0.00    +0.000 OA
ATOM     18  H   UNL     1       8.698   4.801  14.065  0.00  0.00    +0.000 HD
ENDBRANCH  15  17
BRANCH  15  19
ATOM     19  O   UNL     1       6.069   4.131  13.373  0.00  0.00    +0.000 OA
ATOM     20  H   UNL     1       5.615   3.308  13.651  0.00  0.00    +0.000 HD
ENDBRANCH  15  19
ENDBRANCH  14  15
ENDBRANCH   5  14
TORSDOF 5
ENDMDL
MODEL 7
REMARK VINA RESULT:      -6.0      4.816      6.217
REMARK  Name = 
REMARK  7 active torsions:
REMARK  status: ('A' for Active; 'I' for Inactive)
REMARK    1  A    between atoms: C_1  and  C_2
REMARK    2  A    between atoms: C_2  and  C_4
REMARK    3  A    between atoms: C_8  and  C_10
REMARK    4  A    between atoms: C_10  and  P_11
REMARK    5  A    between atoms: P_11  and  O_13
REMARK    6  A    between atoms: P_11  and  O_14
REMARK    7  A    between atoms: C_16  and  C_17
REMARK                            x       y       z     vdW  Elec       q    Type
REMARK                         _______ _______ _______ _____ _____    ______ ____
ROOT
ATOM      1  C   UNL     1       1.293   9.029  19.304  0.00  0.00    +0.000 A 
ATOM      2  S   UNL     1       2.295   7.920  18.475  0.00  0.00    +0.000 S 
ATOM      3  C   UNL     1       2.389   6.936  19.860  0.00  0.00    +0.000 A 
ATOM      4  N   UNL     1       3.113   5.764  19.868  0.00  0.00    +0.000 N 
ATOM      5  C   UNL     1       4.100   5.431  18.960  0.00  0.00    +0.000 C 
ATOM      6  O   UNL     1       4.557   6.156  18.078  0.00  0.00    +0.000 OA
ATOM      7  N   UNL     1       1.676   7.337  20.882  0.00  0.00    +0.000 NA
ATOM      8  C   UNL     1       1.066   8.561  20.591  0.00  0.00    +0.000 A 
ATOM      9  C   UNL     1       0.256   9.231  21.648  0.00  0.00    +0.000 C 
ATOM     10  H   UNL     1       3.028   5.229  20.727  0.00  0.00    +0.000 HD
ENDROOT
BRANCH   1  12
ATOM     11  C   UNL     1      -0.616  10.278  18.154  0.00  0.00    +0.000 C 
ATOM     12  C   UNL     1       0.804  10.251  18.680  0.00  0.00    +0.000 C 
ATOM     13  O   UNL     1       1.500  11.262  18.566  0.00  0.00    +0.000 OA
ENDBRANCH   1  12
BRANCH   5  14
ATOM     14  C   UNL     1       4.708   4.073  19.148  0.00  0.00    +0.000 C 
BRANCH  14  15
ATOM     15  P   UNL     1       3.529   2.889  18.403  0.00  0.00    +0.000 P 
ATOM     16  O   UNL     1       2.723   2.831  19.703  0.00  0.00    +0.000 OA
BRANCH  15  17
ATOM     17  O   UNL     1       2.869   4.064  17.478  0.00  0.00    +0.000 OA
ATOM     18  H   UNL     1       3.291   4.141  16.601  0.00  0.00    +0.000 HD
ENDBRANCH  15  17
BRANCH  15  19
ATOM     19  O   UNL     1       2.413   1.769  17.700  0.00  0.00    +0.000 OA
ATOM     20  H   UNL     1       2.702   0.900  18.051  0.00  0.00    +0.000 HD
ENDBRANCH  15  19
ENDBRANCH  14  15
ENDBRANCH   5  14
TORSDOF 5
ENDMDL
MODEL 8
REMARK VINA RESULT:      -6.0      1.936      2.182
REMARK  Name = 
REMARK  7 active torsions:
REMARK  status: ('A' for Active; 'I' for Inactive)
REMARK    1  A    between atoms: C_1  and  C_2
REMARK    2  A    between atoms: C_2  and  C_4
REMARK    3  A    between atoms: C_8  and  C_10
REMARK    4  A    between atoms: C_10  and  P_11
REMARK    5  A    between atoms: P_11  and  O_13
REMARK    6  A    between atoms: P_11  and  O_14
REMARK    7  A    between atoms: C_16  and  C_17
REMARK                            x       y       z     vdW  Elec       q    Type
REMARK                         _______ _______ _______ _____ _____    ______ ____
ROOT
ATOM      1  C   UNL     1       6.722   6.290  17.996  0.00  0.00    +0.000 A 
ATOM      2  S   UNL     1       5.090   5.969  17.602  0.00  0.00    +0.000 S 
ATOM      3  C   UNL     1       4.945   4.941  18.951  0.00  0.00    +0.000 A 
ATOM      4  N   UNL     1       3.763   4.295  19.245  0.00  0.00    +0.000 N 
ATOM      5  C   UNL     1       2.724   4.092  18.358  0.00  0.00    +0.000 C 
ATOM      6  O   UNL     1       2.725   4.357  17.157  0.00  0.00    +0.000 OA
ATOM      7  N   UNL     1       6.005   4.865  19.715  0.00  0.00    +0.000 NA
ATOM      8  C   UNL     1       7.051   5.610  19.160  0.00  0.00    +0.000 A 
ATOM      9  C   UNL     1       8.377   5.606  19.841  0.00  0.00    +0.000 C 
ATOM     10  H   UNL     1       3.781   3.772  20.116  0.00  0.00    +0.000 HD
ENDROOT
BRANCH   1  12
ATOM     11  C   UNL     1       7.916   8.529  17.702  0.00  0.00    +0.000 C 
ATOM     12  C   UNL     1       7.562   7.153  17.178  0.00  0.00    +0.000 C 
ATOM     13  O   UNL     1       7.997   6.806  16.078  0.00  0.00    +0.000 OA
ENDBRANCH   1  12
BRANCH   5  14
ATOM     14  C   UNL     1       1.520   3.405  18.931  0.00  0.00    +0.000 C 
BRANCH  14  15
ATOM     15  P   UNL     1       1.829   3.271  20.729  0.00  0.00    +0.000 P 
ATOM     16  O   UNL     1       1.557   4.766  20.915  0.00  0.00    +0.000 OA
BRANCH  15  17
ATOM     17  O   UNL     1       0.411   2.491  20.956  0.00  0.00    +0.000 OA
ATOM     18  H   UNL     1       0.369   1.633  20.491  0.00  0.00    +0.000 HD
ENDBRANCH  15  17
BRANCH  15  19
ATOM     19  O   UNL     1       2.121   3.145  22.430  0.00  0.00    +0.000 OA
ATOM     20  H   UNL     1       2.461   4.032  22.675  0.00  0.00    +0.000 HD
ENDBRANCH  15  19
ENDBRANCH  14  15
ENDBRANCH   5  14
TORSDOF 5
ENDMDL
MODEL 9
REMARK VINA RESULT:      -5.9      3.156      6.964
REMARK  Name = 
REMARK  7 active torsions:
REMARK  status: ('A' for Active; 'I' for Inactive)
REMARK    1  A    between atoms: C_1  and  C_2
REMARK    2  A    between atoms: C_2  and  C_4
REMARK    3  A    between atoms: C_8  and  C_10
REMARK    4  A    between atoms: C_10  and  P_11
REMARK    5  A    between atoms: P_11  and  O_13
REMARK    6  A    between atoms: P_11  and  O_14
REMARK    7  A    between atoms: C_16  and  C_17
REMARK                            x       y       z     vdW  Elec       q    Type
REMARK                         _______ _______ _______ _____ _____    ______ ____
ROOT
ATOM      1  C   UNL     1       3.335   3.101  19.451  0.00  0.00    +0.000 A 
ATOM      2  S   UNL     1       4.733   3.821  18.782  0.00  0.00    +0.000 S 
ATOM      3  C   UNL     1       4.010   3.845  17.242  0.00  0.00    +0.000 A 
ATOM      4  N   UNL     1       4.667   4.352  16.141  0.00  0.00    +0.000 N 
ATOM      5  C   UNL     1       6.031   4.546  16.047  0.00  0.00    +0.000 C 
ATOM      6  O   UNL     1       6.877   4.208  16.874  0.00  0.00    +0.000 OA
ATOM      7  N   UNL     1       2.776   3.413  17.195  0.00  0.00    +0.000 NA
ATOM      8  C   UNL     1       2.382   2.947  18.454  0.00  0.00    +0.000 A 
ATOM      9  C   UNL     1       1.026   2.348  18.608  0.00  0.00    +0.000 C 
ATOM     10  H   UNL     1       4.103   4.380  15.297  0.00  0.00    +0.000 HD
ENDROOT
BRANCH   1  12
ATOM     11  C   UNL     1       2.122   3.314  21.689  0.00  0.00    +0.000 C 
ATOM     12  C   UNL     1       3.248   2.735  20.858  0.00  0.00    +0.000 C 
ATOM     13  O   UNL     1       4.053   1.971  21.396  0.00  0.00    +0.000 OA
ENDBRANCH   1  12
BRANCH   5  14
ATOM     14  C   UNL     1       6.502   5.161  14.763  0.00  0.00    +0.000 C 
BRANCH  14  15
ATOM     15  P   UNL     1       6.455   3.819  13.519  0.00  0.00    +0.000 P 
ATOM     16  O   UNL     1       4.979   4.104  13.228  0.00  0.00    +0.000 OA
BRANCH  15  17
ATOM     17  O   UNL     1       7.334   4.709  12.467  0.00  0.00    +0.000 OA
ATOM     18  H   UNL     1       6.840   5.469  12.104  0.00  0.00    +0.000 HD
ENDBRANCH  15  17
BRANCH  15  19
ATOM     19  O   UNL     1       6.409   2.551  12.343  0.00  0.00    +0.000 OA
ATOM     20  H   UNL     1       6.315   3.027  11.491  0.00  0.00    +0.000 HD
ENDBRANCH  15  19
ENDBRANCH  14  15
ENDBRANCH   5  14
TORSDOF 5
ENDMDL
