MODEL 1
REMARK VINA RESULT:      -7.0      0.000      0.000
REMARK  Name = 
REMARK  6 active torsions:
REMARK  status: ('A' for Active; 'I' for Inactive)
REMARK    1  A    between atoms: C_1  and  O_2
REMARK    2  A    between atoms: O_2  and  P_3
REMARK    3  A    between atoms: P_3  and  O_5
REMARK    4  A    between atoms: P_3  and  C_7
REMARK    5  A    between atoms: O_5  and  C_6
REMARK    6  A    between atoms: C_8  and  C_9
REMARK                            x       y       z     vdW  Elec       q    Type
REMARK                         _______ _______ _______ _____ _____    ______ ____
ROOT
ATOM      1  C   UNL     1       3.924   5.508  18.289  0.00  0.00    +0.000 A 
ATOM      2  C   UNL     1       4.354   6.064  17.090  0.00  0.00    +0.000 A 
ATOM      3  C   UNL     1       5.332   5.701  16.042  0.00  0.00    +0.000 C 
ATOM      4  O   UNL     1       3.776   7.289  16.903  0.00  0.00    +0.000 OA
ATOM      5  C   UNL     1       3.008   7.525  17.988  0.00  0.00    +0.000 A 
ATOM      6  C   UNL     1       3.052   6.474  18.869  0.00  0.00    +0.000 A 
ATOM      7  C   UNL     1       2.305   6.514  20.094  0.00  0.00    +0.000 C 
ATOM      8  O   UNL     1       2.353   5.603  20.907  0.00  0.00    +0.000 OA
ATOM      9  C   UNL     1       1.467   7.741  20.308  0.00  0.00    +0.000 A 
ATOM     10  C   UNL     1       0.649   7.853  21.438  0.00  0.00    +0.000 A 
ATOM     11  C   UNL     1      -0.128   9.001  21.619  0.00  0.00    +0.000 A 
ATOM     12  C   UNL     1      -0.061  10.006  20.668  0.00  0.00    +0.000 A 
ATOM     13  N   UNL     1       0.712   9.933  19.566  0.00  0.00    +0.000 NA
ATOM     14  C   UNL     1       1.458   8.804  19.395  0.00  0.00    +0.000 A 
ATOM     15  C   UNL     1       2.279   8.755  18.136  0.00  0.00    +0.000 C 
ATOM     16  O   UNL     1       2.296   9.684  17.341  0.00  0.00    +0.000 OA
ENDROOT
BRANCH   1  17
ATOM     17  P   UNL     1       4.435   3.937  19.075  0.00  0.00    +0.000 P 
ATOM     18  O   UNL     1       5.864   4.463  18.925  0.00  0.00    +0.000 OA
BRANCH  17  20
ATOM     19  C   UNL     1       4.176   1.940  20.899  0.00  0.00    +0.000 C 
ATOM     20  O   UNL     1       4.919   2.451  19.818  0.00  0.00    +0.000 OA
ENDBRANCH  17  20
BRANCH  17  21
ATOM     21  O   UNL     1       4.020   3.097  17.711  0.00  0.00    +0.000 OA
ATOM     22  C   UNL     1       2.691   2.644  17.535  0.00  0.00    +0.000 C 
ENDBRANCH  17  21
ENDBRANCH   1  17
TORSDOF 3
ENDMDL
MODEL 2
REMARK VINA RESULT:      -6.9      3.680      5.009
REMARK  Name = 
REMARK  6 active torsions:
REMARK  status: ('A' for Active; 'I' for Inactive)
REMARK    1  A    between atoms: C_1  and  O_2
REMARK    2  A    between atoms: O_2  and  P_3
REMARK    3  A    between atoms: P_3  and  O_5
REMARK    4  A    between atoms: P_3  and  C_7
REMARK    5  A    between atoms: O_5  and  C_6
REMARK    6  A    between atoms: C_8  and  C_9
REMARK                            x       y       z     vdW  Elec       q    Type
REMARK                         _______ _______ _______ _____ _____    ______ ____
ROOT
ATOM      1  C   UNL     1       5.908   5.316  17.009  0.00  0.00    +0.000 A 
ATOM      2  C   UNL     1       5.823   4.723  15.755  0.00  0.00    +0.000 A 
ATOM      3  C   UNL     1       6.561   4.830  14.478  0.00  0.00    +0.000 C 
ATOM      4  O   UNL     1       4.726   3.910  15.690  0.00  0.00    +0.000 OA
ATOM      5  C   UNL     1       4.100   4.007  16.882  0.00  0.00    +0.000 A 
ATOM      6  C   UNL     1       4.774   4.847  17.733  0.00  0.00    +0.000 A 
ATOM      7  C   UNL     1       4.284   5.094  19.059  0.00  0.00    +0.000 C 
ATOM      8  O   UNL     1       4.851   5.861  19.823  0.00  0.00    +0.000 OA
ATOM      9  C   UNL     1       3.036   4.353  19.442  0.00  0.00    +0.000 A 
ATOM     10  C   UNL     1       2.509   4.471  20.733  0.00  0.00    +0.000 A 
ATOM     11  C   UNL     1       1.347   3.770  21.074  0.00  0.00    +0.000 A 
ATOM     12  C   UNL     1       0.744   2.976  20.112  0.00  0.00    +0.000 A 
ATOM     13  N   UNL     1       1.224   2.835  18.860  0.00  0.00    +0.000 NA
ATOM     14  C   UNL     1       2.362   3.516  18.543  0.00  0.00    +0.000 A 
ATOM     15  C   UNL     1       2.876   3.302  17.145  0.00  0.00    +0.000 C 
ATOM     16  O   UNL     1       2.287   2.590  16.344  0.00  0.00    +0.000 OA
ENDROOT
BRANCH   1  17
ATOM     17  P   UNL     1       7.117   6.547  17.617  0.00  0.00    +0.000 P 
ATOM     18  O   UNL     1       7.666   6.540  16.189  0.00  0.00    +0.000 OA
BRANCH  17  20
ATOM     19  C   UNL     1       8.064   9.077  17.911  0.00  0.00    +0.000 C 
ATOM     20  O   UNL     1       8.260   7.712  18.193  0.00  0.00    +0.000 OA
ENDBRANCH  17  20
BRANCH  17  21
ATOM     21  O   UNL     1       7.890   5.382  18.502  0.00  0.00    +0.000 OA
ATOM     22  C   UNL     1       8.167   5.600  19.872  0.00  0.00    +0.000 C 
ENDBRANCH  17  21
ENDBRANCH   1  17
TORSDOF 3
ENDMDL
MODEL 3
REMARK VINA RESULT:      -6.5      1.705      3.724
REMARK  Name = 
REMARK  6 active torsions:
REMARK  status: ('A' for Active; 'I' for Inactive)
REMARK    1  A    between atoms: C_1  and  O_2
REMARK    2  A    between atoms: O_2  and  P_3
REMARK    3  A    between atoms: P_3  and  O_5
REMARK    4  A    between atoms: P_3  and  C_7
REMARK    5  A    between atoms: O_5  and  C_6
REMARK    6  A    between atoms: C_8  and  C_9
REMARK                            x       y       z     vdW  Elec       q    Type
REMARK                         _______ _______ _______ _____ _____    ______ ____
ROOT
ATOM      1  C   UNL     1       4.469   4.798  18.373  0.00  0.00    +0.000 A 
ATOM      2  C   UNL     1       4.136   3.957  19.428  0.00  0.00    +0.000 A 
ATOM      3  C   UNL     1       4.472   2.573  19.829  0.00  0.00    +0.000 C 
ATOM      4  O   UNL     1       3.202   4.551  20.230  0.00  0.00    +0.000 OA
ATOM      5  C   UNL     1       2.919   5.748  19.673  0.00  0.00    +0.000 A 
ATOM      6  C   UNL     1       3.662   5.960  18.540  0.00  0.00    +0.000 A 
ATOM      7  C   UNL     1       3.521   7.174  17.788  0.00  0.00    +0.000 C 
ATOM      8  O   UNL     1       4.151   7.372  16.759  0.00  0.00    +0.000 OA
ATOM      9  C   UNL     1       2.554   8.179  18.345  0.00  0.00    +0.000 A 
ATOM     10  C   UNL     1       2.389   9.423  17.727  0.00  0.00    +0.000 A 
ATOM     11  C   UNL     1       1.487  10.349  18.262  0.00  0.00    +0.000 A 
ATOM     12  C   UNL     1       0.773  10.000  19.397  0.00  0.00    +0.000 A 
ATOM     13  N   UNL     1       0.908   8.813  20.023  0.00  0.00    +0.000 NA
ATOM     14  C   UNL     1       1.797   7.923  19.497  0.00  0.00    +0.000 A 
ATOM     15  C   UNL     1       1.936   6.627  20.246  0.00  0.00    +0.000 C 
ATOM     16  O   UNL     1       1.268   6.383  21.241  0.00  0.00    +0.000 OA
ENDROOT
BRANCH   1  17
ATOM     17  P   UNL     1       5.594   4.484  16.964  0.00  0.00    +0.000 P 
ATOM     18  O   UNL     1       4.838   3.162  16.808  0.00  0.00    +0.000 OA
BRANCH  17  20
ATOM     19  C   UNL     1       6.212   4.429  14.319  0.00  0.00    +0.000 C 
ATOM     20  O   UNL     1       6.657   4.186  15.632  0.00  0.00    +0.000 OA
ENDBRANCH  17  20
BRANCH  17  21
ATOM     21  O   UNL     1       6.864   4.263  18.001  0.00  0.00    +0.000 OA
ATOM     22  C   UNL     1       7.506   5.382  18.583  0.00  0.00    +0.000 C 
ENDBRANCH  17  21
ENDBRANCH   1  17
TORSDOF 3
ENDMDL
MODEL 4
REMARK VINA RESULT:      -6.5      0.963      1.017
REMARK  Name = 
REMARK  6 active torsions:
REMARK  status: ('A' for Active; 'I' for Inactive)
REMARK    1  A    between atoms: C_1  and  O_2
REMARK    2  A    between atoms: O_2  and  P_3
REMARK    3  A    between atoms: P_3  and  O_5
REMARK    4  A    between atoms: P_3  and  C_7
REMARK    5  A    between atoms: O_5  and  C_6
REMARK    6  A    between atoms: C_8  and  C_9
REMARK                            x       y       z     vdW  Elec       q    Type
REMARK                         _______ _______ _______ _____ _____    ______ ____
ROOT
ATOM      1  C   UNL     1       3.197   5.872  18.679  0.00  0.00    +0.000 A 
ATOM      2  C   UNL     1       3.792   6.290  17.496  0.00  0.00    +0.000 A 
ATOM      3  C   UNL     1       4.766   5.722  16.539  0.00  0.00    +0.000 C 
ATOM      4  O   UNL     1       3.436   7.581  17.217  0.00  0.00    +0.000 OA
ATOM      5  C   UNL     1       2.645   7.992  18.231  0.00  0.00    +0.000 A 
ATOM      6  C   UNL     1       2.457   6.994  19.154  0.00  0.00    +0.000 A 
ATOM      7  C   UNL     1       1.645   7.215  20.316  0.00  0.00    +0.000 C 
ATOM      8  O   UNL     1       1.488   6.351  21.166  0.00  0.00    +0.000 OA
ATOM      9  C   UNL     1       1.007   8.570  20.418  0.00  0.00    +0.000 A 
ATOM     10  C   UNL     1       0.143   8.869  21.478  0.00  0.00    +0.000 A 
ATOM     11  C   UNL     1      -0.447  10.135  21.555  0.00  0.00    +0.000 A 
ATOM     12  C   UNL     1      -0.151  11.066  20.573  0.00  0.00    +0.000 A 
ATOM     13  N   UNL     1       0.672  10.814  19.536  0.00  0.00    +0.000 NA
ATOM     14  C   UNL     1       1.233   9.573  19.467  0.00  0.00    +0.000 A 
ATOM     15  C   UNL     1       2.119   9.329  18.276  0.00  0.00    +0.000 C 
ATOM     16  O   UNL     1       2.342  10.201  17.448  0.00  0.00    +0.000 OA
ENDROOT
BRANCH   1  17
ATOM     17  P   UNL     1       3.389   4.281  19.563  0.00  0.00    +0.000 P 
ATOM     18  O   UNL     1       4.893   4.550  19.476  0.00  0.00    +0.000 OA
BRANCH  17  20
ATOM     19  C   UNL     1       2.744   2.488  21.499  0.00  0.00    +0.000 C 
ATOM     20  O   UNL     1       3.572   2.777  20.398  0.00  0.00    +0.000 OA
ENDBRANCH  17  20
BRANCH  17  21
ATOM     21  O   UNL     1       2.908   3.452  18.214  0.00  0.00    +0.000 OA
ATOM     22  C   UNL     1       3.506   2.209  17.897  0.00  0.00    +0.000 C 
ENDBRANCH  17  21
ENDBRANCH   1  17
TORSDOF 3
ENDMDL
MODEL 5
REMARK VINA RESULT:      -6.3      1.755      3.690
REMARK  Name = 
REMARK  6 active torsions:
REMARK  status: ('A' for Active; 'I' for Inactive)
REMARK    1  A    between atoms: C_1  and  O_2
REMARK    2  A    between atoms: O_2  and  P_3
REMARK    3  A    between atoms: P_3  and  O_5
REMARK    4  A    between atoms: P_3  and  C_7
REMARK    5  A    between atoms: O_5  and  C_6
REMARK    6  A    between atoms: C_8  and  C_9
REMARK                            x       y       z     vdW  Elec       q    Type
REMARK                         _______ _______ _______ _____ _____    ______ ____
ROOT
ATOM      1  C   UNL     1       2.799   5.869  19.116  0.00  0.00    +0.000 A 
ATOM      2  C   UNL     1       2.363   5.232  20.272  0.00  0.00    +0.000 A 
ATOM      3  C   UNL     1       2.400   3.852  20.802  0.00  0.00    +0.000 C 
ATOM      4  O   UNL     1       1.656   6.103  21.053  0.00  0.00    +0.000 OA
ATOM      5  C   UNL     1       1.615   7.276  20.386  0.00  0.00    +0.000 A 
ATOM      6  C   UNL     1       2.298   7.200  19.199  0.00  0.00    +0.000 A 
ATOM      7  C   UNL     1       2.383   8.338  18.329  0.00  0.00    +0.000 C 
ATOM      8  O   UNL     1       2.960   8.285  17.253  0.00  0.00    +0.000 OA
ATOM      9  C   UNL     1       1.720   9.590  18.825  0.00  0.00    +0.000 A 
ATOM     10  C   UNL     1       1.799  10.776  18.086  0.00  0.00    +0.000 A 
ATOM     11  C   UNL     1       1.180  11.934  18.565  0.00  0.00    +0.000 A 
ATOM     12  C   UNL     1       0.495  11.871  19.768  0.00  0.00    +0.000 A 
ATOM     13  N   UNL     1       0.399  10.750  20.510  0.00  0.00    +0.000 NA
ATOM     14  C   UNL     1       1.016   9.630  20.036  0.00  0.00    +0.000 A 
ATOM     15  C   UNL     1       0.909   8.412  20.913  0.00  0.00    +0.000 C 
ATOM     16  O   UNL     1       0.281   8.427  21.963  0.00  0.00    +0.000 OA
ENDROOT
BRANCH   1  17
ATOM     17  P   UNL     1       3.709   5.168  17.692  0.00  0.00    +0.000 P 
ATOM     18  O   UNL     1       2.506   4.234  17.534  0.00  0.00    +0.000 OA
BRANCH  17  20
ATOM     19  C   UNL     1       5.441   5.324  15.605  0.00  0.00    +0.000 C 
ATOM     20  O   UNL     1       4.569   4.504  16.344  0.00  0.00    +0.000 OA
ENDBRANCH  17  20
BRANCH  17  21
ATOM     21  O   UNL     1       4.808   4.469  18.712  0.00  0.00    +0.000 OA
ATOM     22  C   UNL     1       5.882   5.234  19.226  0.00  0.00    +0.000 C 
ENDBRANCH  17  21
ENDBRANCH   1  17
TORSDOF 3
ENDMDL
MODEL 6
REMARK VINA RESULT:      -6.3      2.923      6.879
REMARK  Name = 
REMARK  6 active torsions:
REMARK  status: ('A' for Active; 'I' for Inactive)
REMARK    1  A    between atoms: C_1  and  O_2
REMARK    2  A    between atoms: O_2  and  P_3
REMARK    3  A    between atoms: P_3  and  O_5
REMARK    4  A    between atoms: P_3  and  C_7
REMARK    5  A    between atoms: O_5  and  C_6
REMARK    6  A    between atoms: C_8  and  C_9
REMARK                            x       y       z     vdW  Elec       q    Type
REMARK                         _______ _______ _______ _____ _____    ______ ____
ROOT
ATOM      1  C   UNL     1       0.979   9.194  20.040  0.00  0.00    +0.000 A 
ATOM      2  C   UNL     1       0.484   8.630  21.210  0.00  0.00    +0.000 A 
ATOM      3  C   UNL     1      -0.339   9.096  22.348  0.00  0.00    +0.000 C 
ATOM      4  O   UNL     1       0.962   7.358  21.360  0.00  0.00    +0.000 OA
ATOM      5  C   UNL     1       1.779   7.125  20.311  0.00  0.00    +0.000 A 
ATOM      6  C   UNL     1       1.829   8.205  19.467  0.00  0.00    +0.000 A 
ATOM      7  C   UNL     1       2.638   8.172  18.282  0.00  0.00    +0.000 C 
ATOM      8  O   UNL     1       2.720   9.133  17.531  0.00  0.00    +0.000 OA
ATOM      9  C   UNL     1       3.372   6.887  18.029  0.00  0.00    +0.000 A 
ATOM     10  C   UNL     1       4.138   6.724  16.869  0.00  0.00    +0.000 A 
ATOM     11  C   UNL     1       4.811   5.519  16.646  0.00  0.00    +0.000 A 
ATOM     12  C   UNL     1       4.703   4.514  17.593  0.00  0.00    +0.000 A 
ATOM     13  N   UNL     1       3.973   4.631  18.720  0.00  0.00    +0.000 NA
ATOM     14  C   UNL     1       3.313   5.808  18.921  0.00  0.00    +0.000 A 
ATOM     15  C   UNL     1       2.487   5.881  20.175  0.00  0.00    +0.000 C 
ATOM     16  O   UNL     1       2.442   4.954  20.973  0.00  0.00    +0.000 OA
ENDROOT
BRANCH   1  17
ATOM     17  P   UNL     1       0.736  10.887  19.390  0.00  0.00    +0.000 P 
ATOM     18  O   UNL     1       1.052  11.353  20.813  0.00  0.00    +0.000 OA
BRANCH  17  20
ATOM     19  C   UNL     1       1.617  13.222  18.317  0.00  0.00    +0.000 C 
ATOM     20  O   UNL     1       0.507  12.488  18.775  0.00  0.00    +0.000 OA
ENDBRANCH  17  20
BRANCH  17  21
ATOM     21  O   UNL     1      -0.891  10.624  19.254  0.00  0.00    +0.000 OA
ATOM     22  C   UNL     1      -1.445  10.241  18.009  0.00  0.00    +0.000 C 
ENDBRANCH  17  21
ENDBRANCH   1  17
TORSDOF 3
ENDMDL
MODEL 7
REMARK VINA RESULT:      -5.9      1.002      1.207
REMARK  Name = 
REMARK  6 active torsions:
REMARK  status: ('A' for Active; 'I' for Inactive)
REMARK    1  A    between atoms: C_1  and  O_2
REMARK    2  A    between atoms: O_2  and  P_3
REMARK    3  A    between atoms: P_3  and  O_5
REMARK    4  A    between atoms: P_3  and  C_7
REMARK    5  A    between atoms: O_5  and  C_6
REMARK    6  A    between atoms: C_8  and  C_9
REMARK                            x       y       z     vdW  Elec       q    Type
REMARK                         _______ _______ _______ _____ _____    ______ ____
ROOT
ATOM      1  C   UNL     1       3.870   6.116  18.060  0.00  0.00    +0.000 A 
ATOM      2  C   UNL     1       4.207   6.784  16.889  0.00  0.00    +0.000 A 
ATOM      3  C   UNL     1       5.160   6.566  15.779  0.00  0.00    +0.000 C 
ATOM      4  O   UNL     1       3.539   7.975  16.815  0.00  0.00    +0.000 OA
ATOM      5  C   UNL     1       2.806   8.078  17.944  0.00  0.00    +0.000 A 
ATOM      6  C   UNL     1       2.961   6.975  18.744  0.00  0.00    +0.000 A 
ATOM      7  C   UNL     1       2.269   6.875  19.997  0.00  0.00    +0.000 C 
ATOM      8  O   UNL     1       2.415   5.915  20.739  0.00  0.00    +0.000 OA
ATOM      9  C   UNL     1       1.359   8.021  20.333  0.00  0.00    +0.000 A 
ATOM     10  C   UNL     1       0.587   7.995  21.499  0.00  0.00    +0.000 A 
ATOM     11  C   UNL     1      -0.259   9.069  21.795  0.00  0.00    +0.000 A 
ATOM     12  C   UNL     1      -0.303  10.140  20.917  0.00  0.00    +0.000 A 
ATOM     13  N   UNL     1       0.423  10.200  19.783  0.00  0.00    +0.000 NA
ATOM     14  C   UNL     1       1.236   9.142  19.501  0.00  0.00    +0.000 A 
ATOM     15  C   UNL     1       2.002   9.240  18.210  0.00  0.00    +0.000 C 
ATOM     16  O   UNL     1       1.919  10.221  17.484  0.00  0.00    +0.000 OA
ENDROOT
BRANCH   1  17
ATOM     17  P   UNL     1       4.522   4.534  18.709  0.00  0.00    +0.000 P 
ATOM     18  O   UNL     1       5.285   5.398  19.717  0.00  0.00    +0.000 OA
BRANCH  17  20
ATOM     19  C   UNL     1       4.356   2.275  20.208  0.00  0.00    +0.000 C 
ATOM     20  O   UNL     1       5.139   3.039  19.323  0.00  0.00    +0.000 OA
ENDBRANCH  17  20
BRANCH  17  21
ATOM     21  O   UNL     1       5.450   4.338  17.353  0.00  0.00    +0.000 OA
ATOM     22  C   UNL     1       6.859   4.265  17.463  0.00  0.00    +0.000 C 
ENDBRANCH  17  21
ENDBRANCH   1  17
TORSDOF 3
ENDMDL
MODEL 8
REMARK VINA RESULT:      -5.8      1.694      2.196
REMARK  Name = 
REMARK  6 active torsions:
REMARK  status: ('A' for Active; 'I' for Inactive)
REMARK    1  A    between atoms: C_1  and  O_2
REMARK    2  A    between atoms: O_2  and  P_3
REMARK    3  A    between atoms: P_3  and  O_5
REMARK    4  A    between atoms: P_3  and  C_7
REMARK    5  A    between atoms: O_5  and  C_6
REMARK    6  A    between atoms: C_8  and  C_9
REMARK                            x       y       z     vdW  Elec       q    Type
REMARK                         _______ _______ _______ _____ _____    ______ ____
ROOT
ATOM      1  C   UNL     1       2.506   6.929  19.132  0.00  0.00    +0.000 A 
ATOM      2  C   UNL     1       3.062   7.430  17.961  0.00  0.00    +0.000 A 
ATOM      3  C   UNL     1       3.983   6.923  16.921  0.00  0.00    +0.000 C 
ATOM      4  O   UNL     1       2.724   8.746  17.803  0.00  0.00    +0.000 OA
ATOM      5  C   UNL     1       1.986   9.088  18.880  0.00  0.00    +0.000 A 
ATOM      6  C   UNL     1       1.813   8.022  19.726  0.00  0.00    +0.000 A 
ATOM      7  C   UNL     1       1.055   8.163  20.937  0.00  0.00    +0.000 C 
ATOM      8  O   UNL     1       0.913   7.236  21.720  0.00  0.00    +0.000 OA
ATOM      9  C   UNL     1       0.452   9.518  21.175  0.00  0.00    +0.000 A 
ATOM     10  C   UNL     1      -0.360   9.746  22.292  0.00  0.00    +0.000 A 
ATOM     11  C   UNL     1      -0.917  11.013  22.496  0.00  0.00    +0.000 A 
ATOM     12  C   UNL     1      -0.641  12.015  21.580  0.00  0.00    +0.000 A 
ATOM     13  N   UNL     1       0.133  11.832  20.491  0.00  0.00    +0.000 NA
ATOM     14  C   UNL     1       0.662  10.591  20.298  0.00  0.00    +0.000 A 
ATOM     15  C   UNL     1       1.493  10.427  19.055  0.00  0.00    +0.000 C 
ATOM     16  O   UNL     1       1.700  11.359  18.291  0.00  0.00    +0.000 OA
ENDROOT
BRANCH   1  17
ATOM     17  P   UNL     1       2.699   5.268  19.875  0.00  0.00    +0.000 P 
ATOM     18  O   UNL     1       4.197   5.461  19.631  0.00  0.00    +0.000 OA
BRANCH  17  20
ATOM     19  C   UNL     1       1.910   3.221  21.479  0.00  0.00    +0.000 C 
ATOM     20  O   UNL     1       2.881   3.697  20.578  0.00  0.00    +0.000 OA
ENDBRANCH  17  20
BRANCH  17  21
ATOM     21  O   UNL     1       2.018   4.569  18.539  0.00  0.00    +0.000 OA
ATOM     22  C   UNL     1       2.726   3.576  17.820  0.00  0.00    +0.000 C 
ENDBRANCH  17  21
ENDBRANCH   1  17
TORSDOF 3
ENDMDL
MODEL 9
REMARK VINA RESULT:      -5.8      3.753      7.095
REMARK  Name = 
REMARK  6 active torsions:
REMARK  status: ('A' for Active; 'I' for Inactive)
REMARK    1  A    between atoms: C_1  and  O_2
REMARK    2  A    between atoms: O_2  and  P_3
REMARK    3  A    between atoms: P_3  and  O_5
REMARK    4  A    between atoms: P_3  and  C_7
REMARK    5  A    between atoms: O_5  and  C_6
REMARK    6  A    between atoms: C_8  and  C_9
REMARK                            x       y       z     vdW  Elec       q    Type
REMARK                         _______ _______ _______ _____ _____    ______ ____
ROOT
ATOM      1  C   UNL     1       0.587  11.017  20.288  0.00  0.00    +0.000 A 
ATOM      2  C   UNL     1       0.856  11.724  19.123  0.00  0.00    +0.000 A 
ATOM      3  C   UNL     1       0.549  13.075  18.605  0.00  0.00    +0.000 C 
ATOM      4  O   UNL     1       1.489  10.918  18.216  0.00  0.00    +0.000 OA
ATOM      5  C   UNL     1       1.594   9.700  18.789  0.00  0.00    +0.000 A 
ATOM      6  C   UNL     1       1.067   9.695  20.055  0.00  0.00    +0.000 A 
ATOM      7  C   UNL     1       1.075   8.499  20.847  0.00  0.00    +0.000 C 
ATOM      8  O   UNL     1       0.584   8.464  21.966  0.00  0.00    +0.000 OA
ATOM      9  C   UNL     1       1.723   7.301  20.215  0.00  0.00    +0.000 A 
ATOM     10  C   UNL     1       1.844   6.102  20.925  0.00  0.00    +0.000 A 
ATOM     11  C   UNL     1       2.454   4.998  20.322  0.00  0.00    +0.000 A 
ATOM     12  C   UNL     1       2.921   5.124  19.024  0.00  0.00    +0.000 A 
ATOM     13  N   UNL     1       2.826   6.263  18.309  0.00  0.00    +0.000 NA
ATOM     14  C   UNL     1       2.238   7.335  18.912  0.00  0.00    +0.000 A 
ATOM     15  C   UNL     1       2.183   8.592  18.087  0.00  0.00    +0.000 C 
ATOM     16  O   UNL     1       2.610   8.631  16.941  0.00  0.00    +0.000 OA
ENDROOT
BRANCH   1  17
ATOM     17  P   UNL     1      -0.308  11.568  21.785  0.00  0.00    +0.000 P 
ATOM     18  O   UNL     1      -1.480  11.842  20.840  0.00  0.00    +0.000 OA
BRANCH  17  20
ATOM     19  C   UNL     1      -2.557  11.969  23.257  0.00  0.00    +0.000 C 
ATOM     20  O   UNL     1      -1.156  12.090  23.201  0.00  0.00    +0.000 OA
ENDBRANCH  17  20
BRANCH  17  21
ATOM     21  O   UNL     1       0.640  12.921  21.879  0.00  0.00    +0.000 OA
ATOM     22  C   UNL     1       0.048  14.188  22.093  0.00  0.00    +0.000 C 
ENDBRANCH  17  21
ENDBRANCH   1  17
TORSDOF 3
ENDMDL
