MODEL 1
REMARK VINA RESULT:      -7.4      0.000      0.000
REMARK  Name = 
REMARK  7 active torsions:
REMARK  status: ('A' for Active; 'I' for Inactive)
REMARK    1  A    between atoms: C_1  and  C_2
REMARK    2  A    between atoms: C_2  and  C_3
REMARK    3  A    between atoms: C_3  and  N_4
REMARK    4  A    between atoms: C_5  and  C_6
REMARK    5  A    between atoms: C_6  and  S_7
REMARK    6  A    between atoms: S_7  and  C_10
REMARK    7  A    between atoms: C_13  and  N_14
REMARK                            x       y       z     vdW  Elec       q    Type
REMARK                         _______ _______ _______ _____ _____    ______ ____
ROOT
ATOM      1  C   UNL     1       3.109   4.357  18.260  0.00  0.00    +0.000 C 
ENDROOT
BRANCH   1   3
ATOM      2  N   UNL     1       2.115   5.988  19.981  0.00  0.00    +0.000 N 
ATOM      3  C   UNL     1       2.602   5.696  18.717  0.00  0.00    +0.000 A 
ATOM      4  N   UNL     1       2.599   6.790  17.980  0.00  0.00    +0.000 NA
ATOM      5  C   UNL     1       2.045   7.784  18.737  0.00  0.00    +0.000 A 
ATOM      6  C   UNL     1       1.781   9.120  18.401  0.00  0.00    +0.000 A 
ATOM      7  C   UNL     1       1.215   9.959  19.369  0.00  0.00    +0.000 A 
ATOM      8  C   UNL     1       0.918   9.475  20.643  0.00  0.00    +0.000 A 
ATOM      9  C   UNL     1       1.171   8.142  20.991  0.00  0.00    +0.000 A 
ATOM     10  C   UNL     1       1.735   7.317  20.007  0.00  0.00    +0.000 A 
BRANCH   2  11
ATOM     11  C   UNL     1       2.051   5.114  21.140  0.00  0.00    +0.000 C 
BRANCH  11  13
ATOM     12  C   UNL     1       1.859   2.638  21.550  0.00  0.00    +0.000 C 
ATOM     13  C   UNL     1       1.231   3.852  20.884  0.00  0.00    +0.000 C 
ENDBRANCH  11  13
ENDBRANCH   2  11
ENDBRANCH   1   3
BRANCH   1  14
ATOM     14  S   UNL     1       4.861   4.220  18.672  0.00  0.00    +0.000 S 
ATOM     15  O   UNL     1       5.275   5.415  19.394  0.00  0.00    +0.000 OA
ATOM     16  O   UNL     1       5.162   2.893  19.175  0.00  0.00    +0.000 OA
BRANCH  14  17
ATOM     17  C   UNL     1       5.717   4.320  17.092  0.00  0.00    +0.000 A 
ATOM     18  C   UNL     1       4.984   4.212  15.905  0.00  0.00    +0.000 A 
ATOM     19  C   UNL     1       5.606   4.475  14.679  0.00  0.00    +0.000 A 
ATOM     20  C   UNL     1       6.960   4.819  14.615  0.00  0.00    +0.000 A 
ATOM     21  C   UNL     1       7.659   4.999  15.813  0.00  0.00    +0.000 A 
ATOM     22  C   UNL     1       7.051   4.735  17.048  0.00  0.00    +0.000 A 
BRANCH  20  23
ATOM     23  N   UNL     1       7.526   5.224  13.401  0.00  0.00    +0.000 N 
ATOM     24  H   UNL     1       6.851   5.469  12.684  0.00  0.00    +0.000 HD
ATOM     25  H   UNL     1       8.256   4.612  13.052  0.00  0.00    +0.000 HD
ENDBRANCH  20  23
ENDBRANCH  14  17
ENDBRANCH   1  14
TORSDOF 6
ENDMDL
MODEL 2
REMARK VINA RESULT:      -7.1      2.344      6.208
REMARK  Name = 
REMARK  7 active torsions:
REMARK  status: ('A' for Active; 'I' for Inactive)
REMARK    1  A    between atoms: C_1  and  C_2
REMARK    2  A    between atoms: C_2  and  C_3
REMARK    3  A    between atoms: C_3  and  N_4
REMARK    4  A    between atoms: C_5  and  C_6
REMARK    5  A    between atoms: C_6  and  S_7
REMARK    6  A    between atoms: S_7  and  C_10
REMARK    7  A    between atoms: C_13  and  N_14
REMARK                            x       y       z     vdW  Elec       q    Type
REMARK                         _______ _______ _______ _____ _____    ______ ____
ROOT
ATOM      1  C   UNL     1       3.988   2.365  17.805  0.00  0.00    +0.000 C 
ENDROOT
BRANCH   1   3
ATOM      2  N   UNL     1       5.391   4.307  16.873  0.00  0.00    +0.000 N 
ATOM      3  C   UNL     1       4.960   3.505  17.919  0.00  0.00    +0.000 A 
ATOM      4  N   UNL     1       5.500   3.924  19.047  0.00  0.00    +0.000 NA
ATOM      5  C   UNL     1       6.339   4.957  18.733  0.00  0.00    +0.000 A 
ATOM      6  C   UNL     1       7.172   5.714  19.568  0.00  0.00    +0.000 A 
ATOM      7  C   UNL     1       7.935   6.745  19.005  0.00  0.00    +0.000 A 
ATOM      8  C   UNL     1       7.867   7.012  17.637  0.00  0.00    +0.000 A 
ATOM      9  C   UNL     1       7.043   6.260  16.790  0.00  0.00    +0.000 A 
ATOM     10  C   UNL     1       6.289   5.232  17.373  0.00  0.00    +0.000 A 
BRANCH   2  11
ATOM     11  C   UNL     1       4.961   4.278  15.486  0.00  0.00    +0.000 C 
BRANCH  11  13
ATOM     12  C   UNL     1       5.532   3.605  13.128  0.00  0.00    +0.000 C 
ATOM     13  C   UNL     1       6.068   3.830  14.534  0.00  0.00    +0.000 C 
ENDBRANCH  11  13
ENDBRANCH   2  11
ENDBRANCH   1   3
BRANCH   1  14
ATOM     14  S   UNL     1       2.309   3.025  17.769  0.00  0.00    +0.000 S 
ATOM     15  O   UNL     1       2.024   3.525  16.431  0.00  0.00    +0.000 OA
ATOM     16  O   UNL     1       1.396   2.126  18.448  0.00  0.00    +0.000 OA
BRANCH  14  17
ATOM     17  C   UNL     1       2.367   4.495  18.804  0.00  0.00    +0.000 A 
ATOM     18  C   UNL     1       2.501   5.752  18.206  0.00  0.00    +0.000 A 
ATOM     19  C   UNL     1       2.359   6.909  18.981  0.00  0.00    +0.000 A 
ATOM     20  C   UNL     1       2.112   6.831  20.356  0.00  0.00    +0.000 A 
ATOM     21  C   UNL     1       1.904   5.570  20.925  0.00  0.00    +0.000 A 
ATOM     22  C   UNL     1       2.046   4.404  20.162  0.00  0.00    +0.000 A 
BRANCH  20  23
ATOM     23  N   UNL     1       1.824   7.990  21.085  0.00  0.00    +0.000 N 
ATOM     24  H   UNL     1       1.179   8.625  20.627  0.00  0.00    +0.000 HD
ATOM     25  H   UNL     1       2.639   8.468  21.455  0.00  0.00    +0.000 HD
ENDBRANCH  20  23
ENDBRANCH  14  17
ENDBRANCH   1  14
TORSDOF 6
ENDMDL
MODEL 3
REMARK VINA RESULT:      -7.1      1.209      1.404
REMARK  Name = 
REMARK  7 active torsions:
REMARK  status: ('A' for Active; 'I' for Inactive)
REMARK    1  A    between atoms: C_1  and  C_2
REMARK    2  A    between atoms: C_2  and  C_3
REMARK    3  A    between atoms: C_3  and  N_4
REMARK    4  A    between atoms: C_5  and  C_6
REMARK    5  A    between atoms: C_6  and  S_7
REMARK    6  A    between atoms: S_7  and  C_10
REMARK    7  A    between atoms: C_13  and  N_14
REMARK                            x       y       z     vdW  Elec       q    Type
REMARK                         _______ _______ _______ _____ _____    ______ ____
ROOT
ATOM      1  C   UNL     1       4.311   4.261  19.018  0.00  0.00    +0.000 C 
ENDROOT
BRANCH   1   3
ATOM      2  N   UNL     1       2.582   5.929  19.937  0.00  0.00    +0.000 N 
ATOM      3  C   UNL     1       3.553   5.559  19.018  0.00  0.00    +0.000 A 
ATOM      4  N   UNL     1       3.748   6.544  18.164  0.00  0.00    +0.000 NA
ATOM      5  C   UNL     1       2.858   7.533  18.477  0.00  0.00    +0.000 A 
ATOM      6  C   UNL     1       2.637   8.766  17.849  0.00  0.00    +0.000 A 
ATOM      7  C   UNL     1       1.665   9.627  18.375  0.00  0.00    +0.000 A 
ATOM      8  C   UNL     1       0.931   9.263  19.504  0.00  0.00    +0.000 A 
ATOM      9  C   UNL     1       1.137   8.031  20.139  0.00  0.00    +0.000 A 
ATOM     10  C   UNL     1       2.112   7.183  19.595  0.00  0.00    +0.000 A 
BRANCH   2  11
ATOM     11  C   UNL     1       2.140   5.201  21.114  0.00  0.00    +0.000 C 
BRANCH  11  13
ATOM     12  C   UNL     1       1.581   2.786  21.552  0.00  0.00    +0.000 C 
ATOM     13  C   UNL     1       1.209   4.039  20.775  0.00  0.00    +0.000 C 
ENDBRANCH  11  13
ENDBRANCH   2  11
ENDBRANCH   1   3
BRANCH   1  14
ATOM     14  S   UNL     1       3.933   3.359  17.502  0.00  0.00    +0.000 S 
ATOM     15  O   UNL     1       4.138   1.935  17.732  0.00  0.00    +0.000 OA
ATOM     16  O   UNL     1       2.707   3.857  16.908  0.00  0.00    +0.000 OA
BRANCH  14  17
ATOM     17  C   UNL     1       5.231   3.828  16.348  0.00  0.00    +0.000 A 
ATOM     18  C   UNL     1       4.967   3.817  14.975  0.00  0.00    +0.000 A 
ATOM     19  C   UNL     1       5.902   4.356  14.083  0.00  0.00    +0.000 A 
ATOM     20  C   UNL     1       7.114   4.884  14.540  0.00  0.00    +0.000 A 
ATOM     21  C   UNL     1       7.330   4.959  15.920  0.00  0.00    +0.000 A 
ATOM     22  C   UNL     1       6.405   4.420  16.824  0.00  0.00    +0.000 A 
BRANCH  20  23
ATOM     23  N   UNL     1       7.967   5.553  13.656  0.00  0.00    +0.000 N 
ATOM     24  H   UNL     1       7.537   6.329  13.163  0.00  0.00    +0.000 HD
ATOM     25  H   UNL     1       8.490   4.944  13.034  0.00  0.00    +0.000 HD
ENDBRANCH  20  23
ENDBRANCH  14  17
ENDBRANCH   1  14
TORSDOF 6
ENDMDL
MODEL 4
REMARK VINA RESULT:      -7.1      2.902      4.774
REMARK  Name = 
REMARK  7 active torsions:
REMARK  status: ('A' for Active; 'I' for Inactive)
REMARK    1  A    between atoms: C_1  and  C_2
REMARK    2  A    between atoms: C_2  and  C_3
REMARK    3  A    between atoms: C_3  and  N_4
REMARK    4  A    between atoms: C_5  and  C_6
REMARK    5  A    between atoms: C_6  and  S_7
REMARK    6  A    between atoms: S_7  and  C_10
REMARK    7  A    between atoms: C_13  and  N_14
REMARK                            x       y       z     vdW  Elec       q    Type
REMARK                         _______ _______ _______ _____ _____    ______ ____
ROOT
ATOM      1  C   UNL     1       5.182   5.078  16.421  0.00  0.00    +0.000 C 
ENDROOT
BRANCH   1   3
ATOM      2  N   UNL     1       3.368   5.308  18.228  0.00  0.00    +0.000 N 
ATOM      3  C   UNL     1       4.100   4.556  17.323  0.00  0.00    +0.000 A 
ATOM      4  N   UNL     1       3.669   3.309  17.338  0.00  0.00    +0.000 NA
ATOM      5  C   UNL     1       2.703   3.228  18.301  0.00  0.00    +0.000 A 
ATOM      6  C   UNL     1       1.965   2.117  18.732  0.00  0.00    +0.000 A 
ATOM      7  C   UNL     1       1.006   2.292  19.738  0.00  0.00    +0.000 A 
ATOM      8  C   UNL     1       0.790   3.551  20.301  0.00  0.00    +0.000 A 
ATOM      9  C   UNL     1       1.524   4.669  19.883  0.00  0.00    +0.000 A 
ATOM     10  C   UNL     1       2.480   4.471  18.877  0.00  0.00    +0.000 A 
BRANCH   2  11
ATOM     11  C   UNL     1       3.427   6.743  18.455  0.00  0.00    +0.000 C 
BRANCH  11  13
ATOM     12  C   UNL     1       2.387   8.991  18.005  0.00  0.00    +0.000 C 
ATOM     13  C   UNL     1       2.236   7.485  17.853  0.00  0.00    +0.000 C 
ENDBRANCH  11  13
ENDBRANCH   2  11
ENDBRANCH   1   3
BRANCH   1  14
ATOM     14  S   UNL     1       6.781   4.841  17.223  0.00  0.00    +0.000 S 
ATOM     15  O   UNL     1       6.588   4.087  18.454  0.00  0.00    +0.000 OA
ATOM     16  O   UNL     1       7.784   4.453  16.250  0.00  0.00    +0.000 OA
BRANCH  14  17
ATOM     17  C   UNL     1       7.275   6.485  17.766  0.00  0.00    +0.000 A 
ATOM     18  C   UNL     1       8.180   6.615  18.824  0.00  0.00    +0.000 A 
ATOM     19  C   UNL     1       8.713   7.873  19.130  0.00  0.00    +0.000 A 
ATOM     20  C   UNL     1       8.335   9.012  18.412  0.00  0.00    +0.000 A 
ATOM     21  C   UNL     1       7.489   8.854  17.309  0.00  0.00    +0.000 A 
ATOM     22  C   UNL     1       6.945   7.601  16.993  0.00  0.00    +0.000 A 
BRANCH  20  23
ATOM     23  N   UNL     1       8.987  10.230  18.631  0.00  0.00    +0.000 N 
ATOM     24  H   UNL     1       9.145  10.453  19.609  0.00  0.00    +0.000 HD
ATOM     25  H   UNL     1       8.601  11.014  18.115  0.00  0.00    +0.000 HD
ENDBRANCH  20  23
ENDBRANCH  14  17
ENDBRANCH   1  14
TORSDOF 6
ENDMDL
MODEL 5
REMARK VINA RESULT:      -6.9      1.998      4.175
REMARK  Name = 
REMARK  7 active torsions:
REMARK  status: ('A' for Active; 'I' for Inactive)
REMARK    1  A    between atoms: C_1  and  C_2
REMARK    2  A    between atoms: C_2  and  C_3
REMARK    3  A    between atoms: C_3  and  N_4
REMARK    4  A    between atoms: C_5  and  C_6
REMARK    5  A    between atoms: C_6  and  S_7
REMARK    6  A    between atoms: S_7  and  C_10
REMARK    7  A    between atoms: C_13  and  N_14
REMARK                            x       y       z     vdW  Elec       q    Type
REMARK                         _______ _______ _______ _____ _____    ______ ____
ROOT
ATOM      1  C   UNL     1       4.819   6.436  16.629  0.00  0.00    +0.000 C 
ENDROOT
BRANCH   1   3
ATOM      2  N   UNL     1       3.030   5.857  18.382  0.00  0.00    +0.000 N 
ATOM      3  C   UNL     1       3.888   5.503  17.352  0.00  0.00    +0.000 A 
ATOM      4  N   UNL     1       3.731   4.225  17.067  0.00  0.00    +0.000 NA
ATOM      5  C   UNL     1       2.821   3.723  17.955  0.00  0.00    +0.000 A 
ATOM      6  C   UNL     1       2.343   2.413  18.096  0.00  0.00    +0.000 A 
ATOM      7  C   UNL     1       1.387   2.147  19.085  0.00  0.00    +0.000 A 
ATOM      8  C   UNL     1       0.920   3.167  19.914  0.00  0.00    +0.000 A 
ATOM      9  C   UNL     1       1.393   4.480  19.787  0.00  0.00    +0.000 A 
ATOM     10  C   UNL     1       2.352   4.724  18.793  0.00  0.00    +0.000 A 
BRANCH   2  11
ATOM     11  C   UNL     1       2.788   7.180  18.933  0.00  0.00    +0.000 C 
BRANCH  11  13
ATOM     12  C   UNL     1       1.449   9.293  18.655  0.00  0.00    +0.000 C 
ATOM     13  C   UNL     1       2.092   8.112  17.944  0.00  0.00    +0.000 C 
ENDBRANCH  11  13
ENDBRANCH   2  11
ENDBRANCH   1   3
BRANCH   1  14
ATOM     14  S   UNL     1       6.440   5.656  16.488  0.00  0.00    +0.000 S 
ATOM     15  O   UNL     1       7.469   6.687  16.527  0.00  0.00    +0.000 OA
ATOM     16  O   UNL     1       6.515   4.484  17.339  0.00  0.00    +0.000 OA
BRANCH  14  17
ATOM     17  C   UNL     1       6.501   5.013  14.808  0.00  0.00    +0.000 A 
ATOM     18  C   UNL     1       7.563   5.372  13.973  0.00  0.00    +0.000 A 
ATOM     19  C   UNL     1       7.721   4.735  12.736  0.00  0.00    +0.000 A 
ATOM     20  C   UNL     1       6.815   3.759  12.306  0.00  0.00    +0.000 A 
ATOM     21  C   UNL     1       5.804   3.356  13.185  0.00  0.00    +0.000 A 
ATOM     22  C   UNL     1       5.632   3.987  14.424  0.00  0.00    +0.000 A 
BRANCH  20  23
ATOM     23  N   UNL     1       7.070   3.028  11.142  0.00  0.00    +0.000 N 
ATOM     24  H   UNL     1       7.558   2.150  11.294  0.00  0.00    +0.000 HD
ATOM     25  H   UNL     1       7.477   3.568  10.385  0.00  0.00    +0.000 HD
ENDBRANCH  20  23
ENDBRANCH  14  17
ENDBRANCH   1  14
TORSDOF 6
ENDMDL
MODEL 6
REMARK VINA RESULT:      -6.8      3.205      7.288
REMARK  Name = 
REMARK  7 active torsions:
REMARK  status: ('A' for Active; 'I' for Inactive)
REMARK    1  A    between atoms: C_1  and  C_2
REMARK    2  A    between atoms: C_2  and  C_3
REMARK    3  A    between atoms: C_3  and  N_4
REMARK    4  A    between atoms: C_5  and  C_6
REMARK    5  A    between atoms: C_6  and  S_7
REMARK    6  A    between atoms: S_7  and  C_10
REMARK    7  A    between atoms: C_13  and  N_14
REMARK                            x       y       z     vdW  Elec       q    Type
REMARK                         _______ _______ _______ _____ _____    ______ ____
ROOT
ATOM      1  C   UNL     1       4.977   3.595  17.442  0.00  0.00    +0.000 C 
ENDROOT
BRANCH   1   3
ATOM      2  N   UNL     1       6.582   4.878  15.895  0.00  0.00    +0.000 N 
ATOM      3  C   UNL     1       5.626   3.900  16.120  0.00  0.00    +0.000 A 
ATOM      4  N   UNL     1       5.401   3.239  15.001  0.00  0.00    +0.000 NA
ATOM      5  C   UNL     1       6.156   3.827  14.026  0.00  0.00    +0.000 A 
ATOM      6  C   UNL     1       6.244   3.523  12.660  0.00  0.00    +0.000 A 
ATOM      7  C   UNL     1       7.115   4.270  11.857  0.00  0.00    +0.000 A 
ATOM      8  C   UNL     1       7.881   5.298  12.407  0.00  0.00    +0.000 A 
ATOM      9  C   UNL     1       7.800   5.616  13.769  0.00  0.00    +0.000 A 
ATOM     10  C   UNL     1       6.920   4.858  14.555  0.00  0.00    +0.000 A 
BRANCH   2  11
ATOM     11  C   UNL     1       7.210   5.757  16.867  0.00  0.00    +0.000 C 
BRANCH  11  13
ATOM     12  C   UNL     1       7.803   5.880  19.310  0.00  0.00    +0.000 C 
ATOM     13  C   UNL     1       7.773   5.002  18.068  0.00  0.00    +0.000 C 
ENDBRANCH  11  13
ENDBRANCH   2  11
ENDBRANCH   1   3
BRANCH   1  14
ATOM     14  S   UNL     1       3.310   4.283  17.451  0.00  0.00    +0.000 S 
ATOM     15  O   UNL     1       3.396   5.738  17.446  0.00  0.00    +0.000 OA
ATOM     16  O   UNL     1       2.463   3.575  16.511  0.00  0.00    +0.000 OA
BRANCH  14  17
ATOM     17  C   UNL     1       2.648   3.870  19.073  0.00  0.00    +0.000 A 
ATOM     18  C   UNL     1       1.274   3.996  19.307  0.00  0.00    +0.000 A 
ATOM     19  C   UNL     1       0.724   3.503  20.496  0.00  0.00    +0.000 A 
ATOM     20  C   UNL     1       1.530   2.907  21.472  0.00  0.00    +0.000 A 
ATOM     21  C   UNL     1       2.888   2.719  21.190  0.00  0.00    +0.000 A 
ATOM     22  C   UNL     1       3.453   3.211  20.006  0.00  0.00    +0.000 A 
BRANCH  20  23
ATOM     23  N   UNL     1       0.948   2.287  22.582  0.00  0.00    +0.000 N 
ATOM     24  H   UNL     1       0.342   1.504  22.356  0.00  0.00    +0.000 HD
ATOM     25  H   UNL     1       0.522   2.925  23.246  0.00  0.00    +0.000 HD
ENDBRANCH  20  23
ENDBRANCH  14  17
ENDBRANCH   1  14
TORSDOF 6
ENDMDL
MODEL 7
REMARK VINA RESULT:      -6.8      2.875      4.655
REMARK  Name = 
REMARK  7 active torsions:
REMARK  status: ('A' for Active; 'I' for Inactive)
REMARK    1  A    between atoms: C_1  and  C_2
REMARK    2  A    between atoms: C_2  and  C_3
REMARK    3  A    between atoms: C_3  and  N_4
REMARK    4  A    between atoms: C_5  and  C_6
REMARK    5  A    between atoms: C_6  and  S_7
REMARK    6  A    between atoms: S_7  and  C_10
REMARK    7  A    between atoms: C_13  and  N_14
REMARK                            x       y       z     vdW  Elec       q    Type
REMARK                         _______ _______ _______ _____ _____    ______ ____
ROOT
ATOM      1  C   UNL     1       5.321   5.092  16.530  0.00  0.00    +0.000 C 
ENDROOT
BRANCH   1   3
ATOM      2  N   UNL     1       3.493   5.307  18.325  0.00  0.00    +0.000 N 
ATOM      3  C   UNL     1       4.161   4.591  17.344  0.00  0.00    +0.000 A 
ATOM      4  N   UNL     1       3.593   3.410  17.197  0.00  0.00    +0.000 NA
ATOM      5  C   UNL     1       2.596   3.323  18.128  0.00  0.00    +0.000 A 
ATOM      6  C   UNL     1       1.726   2.260  18.407  0.00  0.00    +0.000 A 
ATOM      7  C   UNL     1       0.765   2.421  19.412  0.00  0.00    +0.000 A 
ATOM      8  C   UNL     1       0.675   3.617  20.124  0.00  0.00    +0.000 A 
ATOM      9  C   UNL     1       1.542   4.686  19.860  0.00  0.00    +0.000 A 
ATOM     10  C   UNL     1       2.498   4.504  18.852  0.00  0.00    +0.000 A 
BRANCH   2  11
ATOM     11  C   UNL     1       3.705   6.687  18.729  0.00  0.00    +0.000 C 
BRANCH  11  13
ATOM     12  C   UNL     1       2.004   8.444  18.134  0.00  0.00    +0.000 C 
ATOM     13  C   UNL     1       3.242   7.689  17.675  0.00  0.00    +0.000 C 
ENDBRANCH  11  13
ENDBRANCH   2  11
ENDBRANCH   1   3
BRANCH   1  14
ATOM     14  S   UNL     1       6.852   4.781  17.434  0.00  0.00    +0.000 S 
ATOM     15  O   UNL     1       6.526   4.274  18.760  0.00  0.00    +0.000 OA
ATOM     16  O   UNL     1       7.814   4.106  16.584  0.00  0.00    +0.000 OA
BRANCH  14  17
ATOM     17  C   UNL     1       7.556   6.411  17.727  0.00  0.00    +0.000 A 
ATOM     18  C   UNL     1       7.136   7.492  16.946  0.00  0.00    +0.000 A 
ATOM     19  C   UNL     1       7.534   8.791  17.286  0.00  0.00    +0.000 A 
ATOM     20  C   UNL     1       8.370   9.026  18.382  0.00  0.00    +0.000 A 
ATOM     21  C   UNL     1       8.719   7.944  19.197  0.00  0.00    +0.000 A 
ATOM     22  C   UNL     1       8.331   6.639  18.868  0.00  0.00    +0.000 A 
BRANCH  20  23
ATOM     23  N   UNL     1       8.635  10.335  18.796  0.00  0.00    +0.000 N 
ATOM     24  H   UNL     1       8.619  11.024  18.049  0.00  0.00    +0.000 HD
ATOM     25  H   UNL     1       9.450  10.432  19.392  0.00  0.00    +0.000 HD
ENDBRANCH  20  23
ENDBRANCH  14  17
ENDBRANCH   1  14
TORSDOF 6
ENDMDL
MODEL 8
REMARK VINA RESULT:      -6.8      1.102      1.535
REMARK  Name = 
REMARK  7 active torsions:
REMARK  status: ('A' for Active; 'I' for Inactive)
REMARK    1  A    between atoms: C_1  and  C_2
REMARK    2  A    between atoms: C_2  and  C_3
REMARK    3  A    between atoms: C_3  and  N_4
REMARK    4  A    between atoms: C_5  and  C_6
REMARK    5  A    between atoms: C_6  and  S_7
REMARK    6  A    between atoms: S_7  and  C_10
REMARK    7  A    between atoms: C_13  and  N_14
REMARK                            x       y       z     vdW  Elec       q    Type
REMARK                         _______ _______ _______ _____ _____    ______ ____
ROOT
ATOM      1  C   UNL     1       4.075   4.704  18.070  0.00  0.00    +0.000 C 
ENDROOT
BRANCH   1   3
ATOM      2  N   UNL     1       2.596   6.182  19.565  0.00  0.00    +0.000 N 
ATOM      3  C   UNL     1       3.334   5.966  18.412  0.00  0.00    +0.000 A 
ATOM      4  N   UNL     1       3.329   7.059  17.674  0.00  0.00    +0.000 NA
ATOM      5  C   UNL     1       2.530   7.970  18.308  0.00  0.00    +0.000 A 
ATOM      6  C   UNL     1       2.170   9.266  17.916  0.00  0.00    +0.000 A 
ATOM      7  C   UNL     1       1.341  10.020  18.756  0.00  0.00    +0.000 A 
ATOM      8  C   UNL     1       0.882   9.489  19.962  0.00  0.00    +0.000 A 
ATOM      9  C   UNL     1       1.229   8.193  20.364  0.00  0.00    +0.000 A 
ATOM     10  C   UNL     1       2.058   7.455  19.508  0.00  0.00    +0.000 A 
BRANCH   2  11
ATOM     11  C   UNL     1       2.433   5.295  20.704  0.00  0.00    +0.000 C 
BRANCH  11  13
ATOM     12  C   UNL     1       1.479   3.050  21.330  0.00  0.00    +0.000 C 
ATOM     13  C   UNL     1       1.261   4.330  20.538  0.00  0.00    +0.000 C 
ENDBRANCH  11  13
ENDBRANCH   2  11
ENDBRANCH   1   3
BRANCH   1  14
ATOM     14  S   UNL     1       5.809   5.102  17.769  0.00  0.00    +0.000 S 
ATOM     15  O   UNL     1       6.015   6.526  17.997  0.00  0.00    +0.000 OA
ATOM     16  O   UNL     1       6.671   4.108  18.378  0.00  0.00    +0.000 OA
BRANCH  14  17
ATOM     17  C   UNL     1       6.033   4.885  15.997  0.00  0.00    +0.000 A 
ATOM     18  C   UNL     1       7.294   5.103  15.432  0.00  0.00    +0.000 A 
ATOM     19  C   UNL     1       7.525   4.758  14.095  0.00  0.00    +0.000 A 
ATOM     20  C   UNL     1       6.506   4.223  13.301  0.00  0.00    +0.000 A 
ATOM     21  C   UNL     1       5.274   3.940  13.900  0.00  0.00    +0.000 A 
ATOM     22  C   UNL     1       5.027   4.283  15.236  0.00  0.00    +0.000 A 
BRANCH  20  23
ATOM     23  N   UNL     1       6.792   3.745  12.017  0.00  0.00    +0.000 N 
ATOM     24  H   UNL     1       6.307   2.888  11.770  0.00  0.00    +0.000 HD
ATOM     25  H   UNL     1       7.780   3.708  11.792  0.00  0.00    +0.000 HD
ENDBRANCH  20  23
ENDBRANCH  14  17
ENDBRANCH   1  14
TORSDOF 6
ENDMDL
MODEL 9
REMARK VINA RESULT:      -6.7      2.568      6.589
REMARK  Name = 
REMARK  7 active torsions:
REMARK  status: ('A' for Active; 'I' for Inactive)
REMARK    1  A    between atoms: C_1  and  C_2
REMARK    2  A    between atoms: C_2  and  C_3
REMARK    3  A    between atoms: C_3  and  N_4
REMARK    4  A    between atoms: C_5  and  C_6
REMARK    5  A    between atoms: C_6  and  S_7
REMARK    6  A    between atoms: S_7  and  C_10
REMARK    7  A    between atoms: C_13  and  N_14
REMARK                            x       y       z     vdW  Elec       q    Type
REMARK                         _______ _______ _______ _____ _____    ______ ____
ROOT
ATOM      1  C   UNL     1       6.004   6.288  17.716  0.00  0.00    +0.000 C 
ENDROOT
BRANCH   1   3
ATOM      2  N   UNL     1       5.234   4.840  15.735  0.00  0.00    +0.000 N 
ATOM      3  C   UNL     1       6.155   5.672  16.353  0.00  0.00    +0.000 A 
ATOM      4  N   UNL     1       7.173   5.882  15.541  0.00  0.00    +0.000 NA
ATOM      5  C   UNL     1       6.954   5.133  14.418  0.00  0.00    +0.000 A 
ATOM      6  C   UNL     1       7.756   4.980  13.279  0.00  0.00    +0.000 A 
ATOM      7  C   UNL     1       7.301   4.159  12.239  0.00  0.00    +0.000 A 
ATOM      8  C   UNL     1       6.072   3.505  12.336  0.00  0.00    +0.000 A 
ATOM      9  C   UNL     1       5.263   3.646  13.472  0.00  0.00    +0.000 A 
ATOM     10  C   UNL     1       5.738   4.470  14.502  0.00  0.00    +0.000 A 
BRANCH   2  11
ATOM     11  C   UNL     1       3.922   4.443  16.216  0.00  0.00    +0.000 C 
BRANCH  11  13
ATOM     12  C   UNL     1       2.498   2.615  17.200  0.00  0.00    +0.000 C 
ATOM     13  C   UNL     1       3.889   3.004  16.725  0.00  0.00    +0.000 C 
ENDBRANCH  11  13
ENDBRANCH   2  11
ENDBRANCH   1   3
BRANCH   1  14
ATOM     14  S   UNL     1       6.397   5.050  18.968  0.00  0.00    +0.000 S 
ATOM     15  O   UNL     1       6.836   3.828  18.307  0.00  0.00    +0.000 OA
ATOM     16  O   UNL     1       7.168   5.644  20.044  0.00  0.00    +0.000 OA
BRANCH  14  17
ATOM     17  C   UNL     1       4.815   4.624  19.711  0.00  0.00    +0.000 A 
ATOM     18  C   UNL     1       3.752   5.530  19.631  0.00  0.00    +0.000 A 
ATOM     19  C   UNL     1       2.472   5.136  20.038  0.00  0.00    +0.000 A 
ATOM     20  C   UNL     1       2.239   3.856  20.551  0.00  0.00    +0.000 A 
ATOM     21  C   UNL     1       3.294   2.937  20.553  0.00  0.00    +0.000 A 
ATOM     22  C   UNL     1       4.582   3.319  20.153  0.00  0.00    +0.000 A 
BRANCH  20  23
ATOM     23  N   UNL     1       0.933   3.429  20.810  0.00  0.00    +0.000 N 
ATOM     24  H   UNL     1       0.796   3.033  21.735  0.00  0.00    +0.000 HD
ATOM     25  H   UNL     1       0.525   2.854  20.080  0.00  0.00    +0.000 HD
ENDBRANCH  20  23
ENDBRANCH  14  17
ENDBRANCH   1  14
TORSDOF 6
ENDMDL
