MODEL 1
REMARK VINA RESULT:      -6.6      0.000      0.000
REMARK  Name = 
REMARK  14 active torsions:
REMARK  status: ('A' for Active; 'I' for Inactive)
REMARK    1  A    between atoms: C_1  and  C_2
REMARK    2  A    between atoms: C_6  and  O_7
REMARK    3  A    between atoms: O_7  and  C_8
REMARK    4  A    between atoms: C_8  and  C_9
REMARK    5  A    between atoms: C_9  and  O_10
REMARK    6  A    between atoms: C_9  and  C_11
REMARK    7  A    between atoms: C_11  and  N_12
REMARK    8  A    between atoms: C_14  and  C_15
REMARK    9  A    between atoms: N_16  and  C_17
REMARK   10  A    between atoms: C_17  and  C_18
REMARK   11  A    between atoms: N_20  and  C_21
REMARK   12  A    between atoms: C_22  and  C_23
REMARK   13  A    between atoms: C_27  and  C_28
REMARK   14  A    between atoms: C_30  and  C_31
REMARK                            x       y       z     vdW  Elec       q    Type
REMARK                         _______ _______ _______ _____ _____    ______ ____
ROOT
ATOM      1  N   UNL     1       0.569  12.497  19.992  0.00  0.00    +0.000 NA
ATOM      2  C   UNL     1       0.853  11.555  21.105  0.00  0.00    +0.000 C 
ATOM      3  C   UNL     1       0.172  10.156  20.973  0.00  0.00    +0.000 C 
ATOM      4  C   UNL     1       0.401   9.328  22.242  0.00  0.00    +0.000 C 
ATOM      5  N   UNL     1       0.523   9.434  19.716  0.00  0.00    +0.000 NA
ATOM      6  C   UNL     1       0.271  10.365  18.585  0.00  0.00    +0.000 C 
ATOM      7  C   UNL     1       0.797  11.832  18.687  0.00  0.00    +0.000 C 
ATOM      8  C   UNL     1       2.284  11.941  18.317  0.00  0.00    +0.000 C 
ENDROOT
BRANCH   1   9
ATOM      9  C   UNL     1      -0.766  13.113  20.183  0.00  0.00    +0.000 C 
BRANCH   9  10
ATOM     10  C   UNL     1      -0.859  14.609  20.604  0.00  0.00    +0.000 C 
BRANCH  10  11
ATOM     11  O   UNL     1      -0.276  14.803  21.904  0.00  0.00    +0.000 OA
ATOM     12  H   UNL     1       0.180  13.986  22.160  0.00  0.00    +0.000 HD
ENDBRANCH  10  11
BRANCH  10  13
ATOM     13  C   UNL     1      -0.084  15.481  19.585  0.00  0.00    +0.000 C 
BRANCH  13  14
ATOM     14  O   UNL     1       1.132  15.954  20.178  0.00  0.00    +0.000 OA
BRANCH  14  20
ATOM     15  C   UNL     1       8.255  14.535  20.043  0.00  0.00    +0.000 C 
ATOM     16  C   UNL     1       6.854  14.825  19.632  0.00  0.00    +0.000 A 
ATOM     17  N   UNL     1       5.862  15.026  20.470  0.00  0.00    +0.000 NA
ATOM     18  C   UNL     1       4.687  15.256  19.769  0.00  0.00    +0.000 A 
ATOM     19  C   UNL     1       3.416  15.507  20.329  0.00  0.00    +0.000 A 
ATOM     20  C   UNL     1       2.301  15.716  19.505  0.00  0.00    +0.000 A 
ATOM     21  C   UNL     1       2.453  15.676  18.121  0.00  0.00    +0.000 A 
ATOM     22  C   UNL     1       3.705  15.430  17.538  0.00  0.00    +0.000 A 
ATOM     23  C   UNL     1       4.805  15.221  18.379  0.00  0.00    +0.000 A 
ATOM     24  S   UNL     1       6.451  14.905  17.967  0.00  0.00    +0.000 S 
ENDBRANCH  14  20
ENDBRANCH  13  14
ENDBRANCH  10  13
ENDBRANCH   9  10
ENDBRANCH   1   9
BRANCH   5  25
ATOM     25  C   UNL     1       1.907   8.900  19.755  0.00  0.00    +0.000 C 
BRANCH  25  26
ATOM     26  C   UNL     1       2.117   7.657  18.889  0.00  0.00    +0.000 C 
ATOM     27  O   UNL     1       1.801   7.653  17.702  0.00  0.00    +0.000 OA
ATOM     28  N   UNL     1       2.709   6.605  19.578  0.00  0.00    +0.000 N 
ATOM     29  H   UNL     1       2.469   6.613  20.563  0.00  0.00    +0.000 HD
BRANCH  28  30
ATOM     30  C   UNL     1       2.970   5.356  18.963  0.00  0.00    +0.000 A 
ATOM     31  C   UNL     1       4.016   5.188  18.030  0.00  0.00    +0.000 A 
ATOM     32  C   UNL     1       5.043   6.243  17.711  0.00  0.00    +0.000 C 
ATOM     33  C   UNL     1       4.159   3.952  17.374  0.00  0.00    +0.000 A 
ATOM     34  C   UNL     1       3.317   2.885  17.669  0.00  0.00    +0.000 A 
ATOM     35  C   UNL     1       2.337   3.030  18.645  0.00  0.00    +0.000 A 
ATOM     36  C   UNL     1       2.159   4.253  19.312  0.00  0.00    +0.000 A 
ATOM     37  C   UNL     1       1.059   4.360  20.334  0.00  0.00    +0.000 C 
ENDBRANCH  28  30
ENDBRANCH  25  26
ENDBRANCH   5  25
TORSDOF 9
ENDMDL
MODEL 2
REMARK VINA RESULT:      -6.4      3.035      9.450
REMARK  Name = 
REMARK  14 active torsions:
REMARK  status: ('A' for Active; 'I' for Inactive)
REMARK    1  A    between atoms: C_1  and  C_2
REMARK    2  A    between atoms: C_6  and  O_7
REMARK    3  A    between atoms: O_7  and  C_8
REMARK    4  A    between atoms: C_8  and  C_9
REMARK    5  A    between atoms: C_9  and  O_10
REMARK    6  A    between atoms: C_9  and  C_11
REMARK    7  A    between atoms: C_11  and  N_12
REMARK    8  A    between atoms: C_14  and  C_15
REMARK    9  A    between atoms: N_16  and  C_17
REMARK   10  A    between atoms: C_17  and  C_18
REMARK   11  A    between atoms: N_20  and  C_21
REMARK   12  A    between atoms: C_22  and  C_23
REMARK   13  A    between atoms: C_27  and  C_28
REMARK   14  A    between atoms: C_30  and  C_31
REMARK                            x       y       z     vdW  Elec       q    Type
REMARK                         _______ _______ _______ _____ _____    ______ ____
ROOT
ATOM      1  N   UNL     1       0.746   8.498  20.245  0.00  0.00    +0.000 NA
ATOM      2  C   UNL     1      -0.264   9.013  21.204  0.00  0.00    +0.000 C 
ATOM      3  C   UNL     1       0.142  10.325  21.947  0.00  0.00    +0.000 C 
ATOM      4  C   UNL     1      -0.895  10.675  23.020  0.00  0.00    +0.000 C 
ATOM      5  N   UNL     1       0.462  11.458  21.032  0.00  0.00    +0.000 NA
ATOM      6  C   UNL     1       1.455  10.961  20.043  0.00  0.00    +0.000 C 
ATOM      7  C   UNL     1       1.202   9.587  19.348  0.00  0.00    +0.000 C 
ATOM      8  C   UNL     1       0.230   9.707  18.165  0.00  0.00    +0.000 C 
ENDROOT
BRANCH   1   9
ATOM      9  C   UNL     1       1.810   7.771  20.977  0.00  0.00    +0.000 C 
BRANCH   9  10
ATOM     10  C   UNL     1       2.102   6.285  20.616  0.00  0.00    +0.000 C 
BRANCH  10  11
ATOM     11  O   UNL     1       0.874   5.553  20.463  0.00  0.00    +0.000 OA
ATOM     12  H   UNL     1       0.823   4.890  21.171  0.00  0.00    +0.000 HD
ENDBRANCH  10  11
BRANCH  10  13
ATOM     13  C   UNL     1       2.877   6.222  19.276  0.00  0.00    +0.000 C 
BRANCH  13  14
ATOM     14  O   UNL     1       4.061   5.432  19.437  0.00  0.00    +0.000 OA
BRANCH  14  20
ATOM     15  C   UNL     1       5.928   3.558  12.671  0.00  0.00    +0.000 C 
ATOM     16  C   UNL     1       5.957   4.103  14.055  0.00  0.00    +0.000 A 
ATOM     17  N   UNL     1       4.961   4.015  14.909  0.00  0.00    +0.000 NA
ATOM     18  C   UNL     1       5.303   4.633  16.104  0.00  0.00    +0.000 A 
ATOM     19  C   UNL     1       4.487   4.743  17.250  0.00  0.00    +0.000 A 
ATOM     20  C   UNL     1       4.952   5.403  18.396  0.00  0.00    +0.000 A 
ATOM     21  C   UNL     1       6.231   5.954  18.400  0.00  0.00    +0.000 A 
ATOM     22  C   UNL     1       7.063   5.858  17.276  0.00  0.00    +0.000 A 
ATOM     23  C   UNL     1       6.579   5.196  16.140  0.00  0.00    +0.000 A 
ATOM     24  S   UNL     1       7.357   4.915  14.625  0.00  0.00    +0.000 S 
ENDBRANCH  14  20
ENDBRANCH  13  14
ENDBRANCH  10  13
ENDBRANCH   9  10
ENDBRANCH   1   9
BRANCH   5  25
ATOM     25  C   UNL     1      -0.761  12.032  20.417  0.00  0.00    +0.000 C 
BRANCH  25  26
ATOM     26  C   UNL     1      -0.485  13.178  19.443  0.00  0.00    +0.000 C 
ATOM     27  O   UNL     1      -0.832  13.107  18.266  0.00  0.00    +0.000 OA
ATOM     28  N   UNL     1       0.148  14.262  20.041  0.00  0.00    +0.000 N 
ATOM     29  H   UNL     1       0.740  13.977  20.813  0.00  0.00    +0.000 HD
BRANCH  28  30
ATOM     30  C   UNL     1       0.512  15.418  19.309  0.00  0.00    +0.000 A 
ATOM     31  C   UNL     1       1.752  15.517  18.639  0.00  0.00    +0.000 A 
ATOM     32  C   UNL     1       2.729  14.380  18.495  0.00  0.00    +0.000 C 
ATOM     33  C   UNL     1       2.101  16.731  18.018  0.00  0.00    +0.000 A 
ATOM     34  C   UNL     1       1.224  17.810  18.015  0.00  0.00    +0.000 A 
ATOM     35  C   UNL     1      -0.028  17.684  18.609  0.00  0.00    +0.000 A 
ATOM     36  C   UNL     1      -0.406  16.491  19.247  0.00  0.00    +0.000 A 
ATOM     37  C   UNL     1      -1.759  16.424  19.902  0.00  0.00    +0.000 C 
ENDBRANCH  28  30
ENDBRANCH  25  26
ENDBRANCH   5  25
TORSDOF 9
ENDMDL
MODEL 3
REMARK VINA RESULT:      -6.4      3.891     10.122
REMARK  Name = 
REMARK  14 active torsions:
REMARK  status: ('A' for Active; 'I' for Inactive)
REMARK    1  A    between atoms: C_1  and  C_2
REMARK    2  A    between atoms: C_6  and  O_7
REMARK    3  A    between atoms: O_7  and  C_8
REMARK    4  A    between atoms: C_8  and  C_9
REMARK    5  A    between atoms: C_9  and  O_10
REMARK    6  A    between atoms: C_9  and  C_11
REMARK    7  A    between atoms: C_11  and  N_12
REMARK    8  A    between atoms: C_14  and  C_15
REMARK    9  A    between atoms: N_16  and  C_17
REMARK   10  A    between atoms: C_17  and  C_18
REMARK   11  A    between atoms: N_20  and  C_21
REMARK   12  A    between atoms: C_22  and  C_23
REMARK   13  A    between atoms: C_27  and  C_28
REMARK   14  A    between atoms: C_30  and  C_31
REMARK                            x       y       z     vdW  Elec       q    Type
REMARK                         _______ _______ _______ _____ _____    ______ ____
ROOT
ATOM      1  N   UNL     1       0.753   8.589  19.950  0.00  0.00    +0.000 NA
ATOM      2  C   UNL     1      -0.003   8.683  21.225  0.00  0.00    +0.000 C 
ATOM      3  C   UNL     1       0.512   9.774  22.217  0.00  0.00    +0.000 C 
ATOM      4  C   UNL     1      -0.232   9.677  23.553  0.00  0.00    +0.000 C 
ATOM      5  N   UNL     1       0.527  11.150  21.640  0.00  0.00    +0.000 NA
ATOM      6  C   UNL     1       1.258  11.079  20.347  0.00  0.00    +0.000 C 
ATOM      7  C   UNL     1       0.906   9.934  19.345  0.00  0.00    +0.000 C 
ATOM      8  C   UNL     1      -0.341  10.258  18.511  0.00  0.00    +0.000 C 
ENDROOT
BRANCH   1   9
ATOM      9  C   UNL     1       2.005   7.825  20.163  0.00  0.00    +0.000 C 
BRANCH   9  10
ATOM     10  C   UNL     1       2.512   6.869  19.043  0.00  0.00    +0.000 C 
BRANCH  10  11
ATOM     11  O   UNL     1       2.996   7.622  17.919  0.00  0.00    +0.000 OA
ATOM     12  H   UNL     1       3.290   8.491  18.237  0.00  0.00    +0.000 HD
ENDBRANCH  10  11
BRANCH  10  13
ATOM     13  C   UNL     1       3.675   6.005  19.590  0.00  0.00    +0.000 C 
BRANCH  13  14
ATOM     14  O   UNL     1       3.892   4.882  18.729  0.00  0.00    +0.000 OA
BRANCH  14  20
ATOM     15  C   UNL     1       6.379   3.370  12.073  0.00  0.00    +0.000 C 
ATOM     16  C   UNL     1       6.243   3.916  13.451  0.00  0.00    +0.000 A 
ATOM     17  N   UNL     1       5.245   3.644  14.261  0.00  0.00    +0.000 NA
ATOM     18  C   UNL     1       5.410   4.320  15.462  0.00  0.00    +0.000 A 
ATOM     19  C   UNL     1       4.538   4.277  16.571  0.00  0.00    +0.000 A 
ATOM     20  C   UNL     1       4.817   5.018  17.728  0.00  0.00    +0.000 A 
ATOM     21  C   UNL     1       5.967   5.801  17.780  0.00  0.00    +0.000 A 
ATOM     22  C   UNL     1       6.852   5.861  16.694  0.00  0.00    +0.000 A 
ATOM     23  C   UNL     1       6.553   5.115  15.546  0.00  0.00    +0.000 A 
ATOM     24  S   UNL     1       7.437   4.981  14.070  0.00  0.00    +0.000 S 
ENDBRANCH  14  20
ENDBRANCH  13  14
ENDBRANCH  10  13
ENDBRANCH   9  10
ENDBRANCH   1   9
BRANCH   5  25
ATOM     25  C   UNL     1      -0.840  11.715  21.525  0.00  0.00    +0.000 C 
BRANCH  25  26
ATOM     26  C   UNL     1      -1.065  12.968  22.373  0.00  0.00    +0.000 C 
ATOM     27  O   UNL     1      -0.193  13.385  23.130  0.00  0.00    +0.000 OA
ATOM     28  N   UNL     1      -2.308  13.554  22.160  0.00  0.00    +0.000 N 
ATOM     29  H   UNL     1      -3.011  12.871  21.904  0.00  0.00    +0.000 HD
BRANCH  28  30
ATOM     30  C   UNL     1      -2.723  14.711  22.862  0.00  0.00    +0.000 A 
ATOM     31  C   UNL     1      -2.355  16.010  22.445  0.00  0.00    +0.000 A 
ATOM     32  C   UNL     1      -1.636  16.312  21.157  0.00  0.00    +0.000 C 
ATOM     33  C   UNL     1      -2.708  17.113  23.243  0.00  0.00    +0.000 A 
ATOM     34  C   UNL     1      -3.454  16.944  24.405  0.00  0.00    +0.000 A 
ATOM     35  C   UNL     1      -3.882  15.673  24.772  0.00  0.00    +0.000 A 
ATOM     36  C   UNL     1      -3.538  14.547  24.005  0.00  0.00    +0.000 A 
ATOM     37  C   UNL     1      -4.000  13.193  24.470  0.00  0.00    +0.000 C 
ENDBRANCH  28  30
ENDBRANCH  25  26
ENDBRANCH   5  25
TORSDOF 9
ENDMDL
MODEL 4
REMARK VINA RESULT:      -6.4      3.881     10.064
REMARK  Name = 
REMARK  14 active torsions:
REMARK  status: ('A' for Active; 'I' for Inactive)
REMARK    1  A    between atoms: C_1  and  C_2
REMARK    2  A    between atoms: C_6  and  O_7
REMARK    3  A    between atoms: O_7  and  C_8
REMARK    4  A    between atoms: C_8  and  C_9
REMARK    5  A    between atoms: C_9  and  O_10
REMARK    6  A    between atoms: C_9  and  C_11
REMARK    7  A    between atoms: C_11  and  N_12
REMARK    8  A    between atoms: C_14  and  C_15
REMARK    9  A    between atoms: N_16  and  C_17
REMARK   10  A    between atoms: C_17  and  C_18
REMARK   11  A    between atoms: N_20  and  C_21
REMARK   12  A    between atoms: C_22  and  C_23
REMARK   13  A    between atoms: C_27  and  C_28
REMARK   14  A    between atoms: C_30  and  C_31
REMARK                            x       y       z     vdW  Elec       q    Type
REMARK                         _______ _______ _______ _____ _____    ______ ____
ROOT
ATOM      1  N   UNL     1       0.036   9.826  19.575  0.00  0.00    +0.000 NA
ATOM      2  C   UNL     1      -0.391   9.367  20.922  0.00  0.00    +0.000 C 
ATOM      3  C   UNL     1       0.216  10.172  22.114  0.00  0.00    +0.000 C 
ATOM      4  C   UNL     1      -0.161   9.519  23.448  0.00  0.00    +0.000 C 
ATOM      5  N   UNL     1      -0.076  11.634  22.061  0.00  0.00    +0.000 NA
ATOM      6  C   UNL     1       0.319  12.115  20.711  0.00  0.00    +0.000 C 
ATOM      7  C   UNL     1      -0.127  11.294  19.460  0.00  0.00    +0.000 C 
ATOM      8  C   UNL     1      -1.570  11.613  19.043  0.00  0.00    +0.000 C 
ENDROOT
BRANCH   1   9
ATOM      9  C   UNL     1       1.385   9.294  19.266  0.00  0.00    +0.000 C 
BRANCH   9  10
ATOM     10  C   UNL     1       1.910   9.357  17.802  0.00  0.00    +0.000 C 
BRANCH  10  11
ATOM     11  O   UNL     1       2.100  10.723  17.394  0.00  0.00    +0.000 OA
ATOM     12  H   UNL     1       2.969  10.797  16.969  0.00  0.00    +0.000 HD
ENDBRANCH  10  11
BRANCH  10  13
ATOM     13  C   UNL     1       3.272   8.626  17.711  0.00  0.00    +0.000 C 
BRANCH  13  14
ATOM     14  O   UNL     1       3.113   7.392  17.001  0.00  0.00    +0.000 OA
BRANCH  14  20
ATOM     15  C   UNL     1       1.525   2.341  21.975  0.00  0.00    +0.000 C 
ATOM     16  C   UNL     1       2.208   3.121  20.908  0.00  0.00    +0.000 A 
ATOM     17  N   UNL     1       1.746   4.240  20.396  0.00  0.00    +0.000 NA
ATOM     18  C   UNL     1       2.611   4.706  19.415  0.00  0.00    +0.000 A 
ATOM     19  C   UNL     1       2.445   5.876  18.643  0.00  0.00    +0.000 A 
ATOM     20  C   UNL     1       3.394   6.232  17.674  0.00  0.00    +0.000 A 
ATOM     21  C   UNL     1       4.508   5.421  17.474  0.00  0.00    +0.000 A 
ATOM     22  C   UNL     1       4.699   4.254  18.227  0.00  0.00    +0.000 A 
ATOM     23  C   UNL     1       3.739   3.915  19.189  0.00  0.00    +0.000 A 
ATOM     24  S   UNL     1       3.696   2.564  20.262  0.00  0.00    +0.000 S 
ENDBRANCH  14  20
ENDBRANCH  13  14
ENDBRANCH  10  13
ENDBRANCH   9  10
ENDBRANCH   1   9
BRANCH   5  25
ATOM     25  C   UNL     1      -1.488  11.928  22.413  0.00  0.00    +0.000 C 
BRANCH  25  26
ATOM     26  C   UNL     1      -1.790  13.419  22.570  0.00  0.00    +0.000 C 
ATOM     27  O   UNL     1      -2.699  13.950  21.938  0.00  0.00    +0.000 OA
ATOM     28  N   UNL     1      -0.964  14.048  23.495  0.00  0.00    +0.000 N 
ATOM     29  H   UNL     1      -0.049  13.615  23.543  0.00  0.00    +0.000 HD
BRANCH  28  30
ATOM     30  C   UNL     1      -1.065  15.433  23.773  0.00  0.00    +0.000 A 
ATOM     31  C   UNL     1      -1.967  15.937  24.736  0.00  0.00    +0.000 A 
ATOM     32  C   UNL     1      -2.784  15.075  25.662  0.00  0.00    +0.000 C 
ATOM     33  C   UNL     1      -2.098  17.329  24.892  0.00  0.00    +0.000 A 
ATOM     34  C   UNL     1      -1.318  18.207  24.147  0.00  0.00    +0.000 A 
ATOM     35  C   UNL     1      -0.376  17.707  23.255  0.00  0.00    +0.000 A 
ATOM     36  C   UNL     1      -0.226  16.323  23.066  0.00  0.00    +0.000 A 
ATOM     37  C   UNL     1       0.786  15.841  22.062  0.00  0.00    +0.000 C 
ENDBRANCH  28  30
ENDBRANCH  25  26
ENDBRANCH   5  25
TORSDOF 9
ENDMDL
MODEL 5
REMARK VINA RESULT:      -6.4      1.068      1.370
REMARK  Name = 
REMARK  14 active torsions:
REMARK  status: ('A' for Active; 'I' for Inactive)
REMARK    1  A    between atoms: C_1  and  C_2
REMARK    2  A    between atoms: C_6  and  O_7
REMARK    3  A    between atoms: O_7  and  C_8
REMARK    4  A    between atoms: C_8  and  C_9
REMARK    5  A    between atoms: C_9  and  O_10
REMARK    6  A    between atoms: C_9  and  C_11
REMARK    7  A    between atoms: C_11  and  N_12
REMARK    8  A    between atoms: C_14  and  C_15
REMARK    9  A    between atoms: N_16  and  C_17
REMARK   10  A    between atoms: C_17  and  C_18
REMARK   11  A    between atoms: N_20  and  C_21
REMARK   12  A    between atoms: C_22  and  C_23
REMARK   13  A    between atoms: C_27  and  C_28
REMARK   14  A    between atoms: C_30  and  C_31
REMARK                            x       y       z     vdW  Elec       q    Type
REMARK                         _______ _______ _______ _____ _____    ______ ____
ROOT
ATOM      1  N   UNL     1       0.705  12.232  19.728  0.00  0.00    +0.000 NA
ATOM      2  C   UNL     1       0.977  11.467  20.973  0.00  0.00    +0.000 C 
ATOM      3  C   UNL     1       0.251  10.088  21.070  0.00  0.00    +0.000 C 
ATOM      4  C   UNL     1       0.473   9.462  22.451  0.00  0.00    +0.000 C 
ATOM      5  N   UNL     1       0.561   9.165  19.939  0.00  0.00    +0.000 NA
ATOM      6  C   UNL     1       0.321   9.916  18.678  0.00  0.00    +0.000 C 
ATOM      7  C   UNL     1       0.894  11.362  18.543  0.00  0.00    +0.000 C 
ATOM      8  C   UNL     1       2.377  11.363  18.146  0.00  0.00    +0.000 C 
ENDROOT
BRANCH   1   9
ATOM      9  C   UNL     1      -0.607  12.913  19.833  0.00  0.00    +0.000 C 
BRANCH   9  10
ATOM     10  C   UNL     1      -0.742  14.382  19.335  0.00  0.00    +0.000 C 
BRANCH  10  11
ATOM     11  O   UNL     1      -1.918  14.995  19.890  0.00  0.00    +0.000 OA
ATOM     12  H   UNL     1      -2.497  15.264  19.159  0.00  0.00    +0.000 HD
ENDBRANCH  10  11
BRANCH  10  13
ATOM     13  C   UNL     1       0.494  15.197  19.788  0.00  0.00    +0.000 C 
BRANCH  13  14
ATOM     14  O   UNL     1       1.566  15.011  18.857  0.00  0.00    +0.000 OA
BRANCH  14  20
ATOM     15  C   UNL     1       8.776  15.327  18.024  0.00  0.00    +0.000 C 
ATOM     16  C   UNL     1       7.417  15.183  18.613  0.00  0.00    +0.000 A 
ATOM     17  N   UNL     1       6.298  15.269  17.928  0.00  0.00    +0.000 NA
ATOM     18  C   UNL     1       5.210  15.103  18.773  0.00  0.00    +0.000 A 
ATOM     19  C   UNL     1       3.849  15.137  18.399  0.00  0.00    +0.000 A 
ATOM     20  C   UNL     1       2.841  14.961  19.356  0.00  0.00    +0.000 A 
ATOM     21  C   UNL     1       3.188  14.752  20.688  0.00  0.00    +0.000 A 
ATOM     22  C   UNL     1       4.532  14.712  21.088  0.00  0.00    +0.000 A 
ATOM     23  C   UNL     1       5.524  14.892  20.116  0.00  0.00    +0.000 A 
ATOM     24  S   UNL     1       7.240  14.891  20.294  0.00  0.00    +0.000 S 
ENDBRANCH  14  20
ENDBRANCH  13  14
ENDBRANCH  10  13
ENDBRANCH   9  10
ENDBRANCH   1   9
BRANCH   5  25
ATOM     25  C   UNL     1       1.928   8.599  20.049  0.00  0.00    +0.000 C 
BRANCH  25  26
ATOM     26  C   UNL     1       2.177   7.399  19.134  0.00  0.00    +0.000 C 
ATOM     27  O   UNL     1       1.970   7.471  17.925  0.00  0.00    +0.000 OA
ATOM     28  N   UNL     1       2.670   6.290  19.812  0.00  0.00    +0.000 N 
ATOM     29  H   UNL     1       2.342   6.254  20.770  0.00  0.00    +0.000 HD
BRANCH  28  30
ATOM     30  C   UNL     1       2.946   5.068  19.152  0.00  0.00    +0.000 A 
ATOM     31  C   UNL     1       4.083   4.905  18.329  0.00  0.00    +0.000 A 
ATOM     32  C   UNL     1       5.180   5.926  18.191  0.00  0.00    +0.000 C 
ATOM     33  C   UNL     1       4.247   3.702  17.616  0.00  0.00    +0.000 A 
ATOM     34  C   UNL     1       3.334   2.662  17.751  0.00  0.00    +0.000 A 
ATOM     35  C   UNL     1       2.258   2.796  18.622  0.00  0.00    +0.000 A 
ATOM     36  C   UNL     1       2.057   3.986  19.341  0.00  0.00    +0.000 A 
ATOM     37  C   UNL     1       0.856   4.086  20.242  0.00  0.00    +0.000 C 
ENDBRANCH  28  30
ENDBRANCH  25  26
ENDBRANCH   5  25
TORSDOF 9
ENDMDL
MODEL 6
REMARK VINA RESULT:      -6.4      3.288      5.912
REMARK  Name = 
REMARK  14 active torsions:
REMARK  status: ('A' for Active; 'I' for Inactive)
REMARK    1  A    between atoms: C_1  and  C_2
REMARK    2  A    between atoms: C_6  and  O_7
REMARK    3  A    between atoms: O_7  and  C_8
REMARK    4  A    between atoms: C_8  and  C_9
REMARK    5  A    between atoms: C_9  and  O_10
REMARK    6  A    between atoms: C_9  and  C_11
REMARK    7  A    between atoms: C_11  and  N_12
REMARK    8  A    between atoms: C_14  and  C_15
REMARK    9  A    between atoms: N_16  and  C_17
REMARK   10  A    between atoms: C_17  and  C_18
REMARK   11  A    between atoms: N_20  and  C_21
REMARK   12  A    between atoms: C_22  and  C_23
REMARK   13  A    between atoms: C_27  and  C_28
REMARK   14  A    between atoms: C_30  and  C_31
REMARK                            x       y       z     vdW  Elec       q    Type
REMARK                         _______ _______ _______ _____ _____    ______ ____
ROOT
ATOM      1  N   UNL     1       0.828  12.507  20.630  0.00  0.00    +0.000 NA
ATOM      2  C   UNL     1       1.247  11.243  21.289  0.00  0.00    +0.000 C 
ATOM      3  C   UNL     1       0.524   9.959  20.772  0.00  0.00    +0.000 C 
ATOM      4  C   UNL     1       0.913   8.746  21.623  0.00  0.00    +0.000 C 
ATOM      5  N   UNL     1       0.678   9.734  19.305  0.00  0.00    +0.000 NA
ATOM      6  C   UNL     1       0.288  10.995  18.621  0.00  0.00    +0.000 C 
ATOM      7  C   UNL     1       0.854  12.348  19.157  0.00  0.00    +0.000 C 
ATOM      8  C   UNL     1       2.275  12.624  18.644  0.00  0.00    +0.000 C 
ENDROOT
BRANCH   1   9
ATOM      9  C   UNL     1      -0.453  12.976  21.211  0.00  0.00    +0.000 C 
BRANCH   9  10
ATOM     10  C   UNL     1      -0.819  12.573  22.669  0.00  0.00    +0.000 C 
BRANCH  10  11
ATOM     11  O   UNL     1      -0.666  13.695  23.555  0.00  0.00    +0.000 OA
ATOM     12  H   UNL     1      -1.531  14.126  23.656  0.00  0.00    +0.000 HD
ENDBRANCH  10  11
BRANCH  10  13
ATOM     13  C   UNL     1      -2.295  12.108  22.721  0.00  0.00    +0.000 C 
BRANCH  13  14
ATOM     14  O   UNL     1      -3.145  13.131  22.191  0.00  0.00    +0.000 OA
BRANCH  14  20
ATOM     15  C   UNL     1      -3.854  10.732  15.370  0.00  0.00    +0.000 C 
ATOM     16  C   UNL     1      -4.145  11.273  16.725  0.00  0.00    +0.000 A 
ATOM     17  N   UNL     1      -3.235  11.501  17.645  0.00  0.00    +0.000 NA
ATOM     18  C   UNL     1      -3.836  11.990  18.797  0.00  0.00    +0.000 A 
ATOM     19  C   UNL     1      -3.179  12.344  19.995  0.00  0.00    +0.000 A 
ATOM     20  C   UNL     1      -3.907  12.821  21.094  0.00  0.00    +0.000 A 
ATOM     21  C   UNL     1      -5.290  12.946  20.999  0.00  0.00    +0.000 A 
ATOM     22  C   UNL     1      -5.968  12.603  19.821  0.00  0.00    +0.000 A 
ATOM     23  C   UNL     1      -5.223  12.127  18.735  0.00  0.00    +0.000 A 
ATOM     24  S   UNL     1      -5.762  11.636  17.171  0.00  0.00    +0.000 S 
ENDBRANCH  14  20
ENDBRANCH  13  14
ENDBRANCH  10  13
ENDBRANCH   9  10
ENDBRANCH   1   9
BRANCH   5  25
ATOM     25  C   UNL     1       2.042   9.262  18.960  0.00  0.00    +0.000 C 
BRANCH  25  26
ATOM     26  C   UNL     1       2.072   7.876  18.313  0.00  0.00    +0.000 C 
ATOM     27  O   UNL     1       1.314   7.592  17.390  0.00  0.00    +0.000 OA
ATOM     28  N   UNL     1       3.041   7.042  18.858  0.00  0.00    +0.000 N 
ATOM     29  H   UNL     1       3.216   7.250  19.835  0.00  0.00    +0.000 HD
BRANCH  28  30
ATOM     30  C   UNL     1       3.220   5.709  18.416  0.00  0.00    +0.000 A 
ATOM     31  C   UNL     1       2.551   4.624  19.025  0.00  0.00    +0.000 A 
ATOM     32  C   UNL     1       1.482   4.772  20.075  0.00  0.00    +0.000 C 
ATOM     33  C   UNL     1       2.851   3.313  18.611  0.00  0.00    +0.000 A 
ATOM     34  C   UNL     1       3.757   3.078  17.582  0.00  0.00    +0.000 A 
ATOM     35  C   UNL     1       4.356   4.152  16.932  0.00  0.00    +0.000 A 
ATOM     36  C   UNL     1       4.088   5.474  17.326  0.00  0.00    +0.000 A 
ATOM     37  C   UNL     1       4.793   6.593  16.608  0.00  0.00    +0.000 C 
ENDBRANCH  28  30
ENDBRANCH  25  26
ENDBRANCH   5  25
TORSDOF 9
ENDMDL
MODEL 7
REMARK VINA RESULT:      -6.4      1.787      2.967
REMARK  Name = 
REMARK  14 active torsions:
REMARK  status: ('A' for Active; 'I' for Inactive)
REMARK    1  A    between atoms: C_1  and  C_2
REMARK    2  A    between atoms: C_6  and  O_7
REMARK    3  A    between atoms: O_7  and  C_8
REMARK    4  A    between atoms: C_8  and  C_9
REMARK    5  A    between atoms: C_9  and  O_10
REMARK    6  A    between atoms: C_9  and  C_11
REMARK    7  A    between atoms: C_11  and  N_12
REMARK    8  A    between atoms: C_14  and  C_15
REMARK    9  A    between atoms: N_16  and  C_17
REMARK   10  A    between atoms: C_17  and  C_18
REMARK   11  A    between atoms: N_20  and  C_21
REMARK   12  A    between atoms: C_22  and  C_23
REMARK   13  A    between atoms: C_27  and  C_28
REMARK   14  A    between atoms: C_30  and  C_31
REMARK                            x       y       z     vdW  Elec       q    Type
REMARK                         _______ _______ _______ _____ _____    ______ ____
ROOT
ATOM      1  N   UNL     1       0.061  10.761  20.936  0.00  0.00    +0.000 NA
ATOM      2  C   UNL     1       0.131   9.943  19.697  0.00  0.00    +0.000 C 
ATOM      3  C   UNL     1       1.486   9.201  19.474  0.00  0.00    +0.000 C 
ATOM      4  C   UNL     1       1.504   8.522  18.100  0.00  0.00    +0.000 C 
ATOM      5  N   UNL     1       1.865   8.292  20.595  0.00  0.00    +0.000 NA
ATOM      6  C   UNL     1       1.779   9.081  21.852  0.00  0.00    +0.000 C 
ATOM      7  C   UNL     1       0.516   9.966  22.101  0.00  0.00    +0.000 C 
ATOM      8  C   UNL     1      -0.663   9.150  22.648  0.00  0.00    +0.000 C 
ENDROOT
BRANCH   1   9
ATOM      9  C   UNL     1       0.752  12.056  20.722  0.00  0.00    +0.000 C 
BRANCH   9  10
ATOM     10  C   UNL     1       0.707  12.718  19.314  0.00  0.00    +0.000 C 
BRANCH  10  11
ATOM     11  O   UNL     1      -0.042  13.945  19.359  0.00  0.00    +0.000 OA
ATOM     12  H   UNL     1      -0.272  14.129  20.283  0.00  0.00    +0.000 HD
ENDBRANCH  10  11
BRANCH  10  13
ATOM     13  C   UNL     1       2.148  13.042  18.850  0.00  0.00    +0.000 C 
BRANCH  13  14
ATOM     14  O   UNL     1       2.192  14.356  18.283  0.00  0.00    +0.000 OA
BRANCH  14  20
ATOM     15  C   UNL     1       9.329  15.620  17.799  0.00  0.00    +0.000 C 
ATOM     16  C   UNL     1       7.883  15.739  18.128  0.00  0.00    +0.000 A 
ATOM     17  N   UNL     1       6.968  14.862  17.778  0.00  0.00    +0.000 NA
ATOM     18  C   UNL     1       5.720  15.273  18.226  0.00  0.00    +0.000 A 
ATOM     19  C   UNL     1       4.499  14.592  18.035  0.00  0.00    +0.000 A 
ATOM     20  C   UNL     1       3.301  15.121  18.535  0.00  0.00    +0.000 A 
ATOM     21  C   UNL     1       3.320  16.329  19.226  0.00  0.00    +0.000 A 
ATOM     22  C   UNL     1       4.519  17.027  19.432  0.00  0.00    +0.000 A 
ATOM     23  C   UNL     1       5.705  16.482  18.922  0.00  0.00    +0.000 A 
ATOM     24  S   UNL     1       7.316  17.092  19.016  0.00  0.00    +0.000 S 
ENDBRANCH  14  20
ENDBRANCH  13  14
ENDBRANCH  10  13
ENDBRANCH   9  10
ENDBRANCH   1   9
BRANCH   5  25
ATOM     25  C   UNL     1       1.042   7.057  20.606  0.00  0.00    +0.000 C 
BRANCH  25  26
ATOM     26  C   UNL     1       1.831   5.784  20.296  0.00  0.00    +0.000 C 
ATOM     27  O   UNL     1       2.412   5.168  21.185  0.00  0.00    +0.000 OA
ATOM     28  N   UNL     1       1.777   5.422  18.955  0.00  0.00    +0.000 N 
ATOM     29  H   UNL     1       1.680   6.228  18.347  0.00  0.00    +0.000 HD
BRANCH  28  30
ATOM     30  C   UNL     1       2.459   4.286  18.455  0.00  0.00    +0.000 A 
ATOM     31  C   UNL     1       1.965   2.977  18.645  0.00  0.00    +0.000 A 
ATOM     32  C   UNL     1       0.619   2.658  19.240  0.00  0.00    +0.000 C 
ATOM     33  C   UNL     1       2.740   1.882  18.218  0.00  0.00    +0.000 A 
ATOM     34  C   UNL     1       3.956   2.077  17.572  0.00  0.00    +0.000 A 
ATOM     35  C   UNL     1       4.403   3.369  17.317  0.00  0.00    +0.000 A 
ATOM     36  C   UNL     1       3.661   4.485  17.739  0.00  0.00    +0.000 A 
ATOM     37  C   UNL     1       4.212   5.858  17.465  0.00  0.00    +0.000 C 
ENDBRANCH  28  30
ENDBRANCH  25  26
ENDBRANCH   5  25
TORSDOF 9
ENDMDL
MODEL 8
REMARK VINA RESULT:      -6.3      4.118     10.384
REMARK  Name = 
REMARK  14 active torsions:
REMARK  status: ('A' for Active; 'I' for Inactive)
REMARK    1  A    between atoms: C_1  and  C_2
REMARK    2  A    between atoms: C_6  and  O_7
REMARK    3  A    between atoms: O_7  and  C_8
REMARK    4  A    between atoms: C_8  and  C_9
REMARK    5  A    between atoms: C_9  and  O_10
REMARK    6  A    between atoms: C_9  and  C_11
REMARK    7  A    between atoms: C_11  and  N_12
REMARK    8  A    between atoms: C_14  and  C_15
REMARK    9  A    between atoms: N_16  and  C_17
REMARK   10  A    between atoms: C_17  and  C_18
REMARK   11  A    between atoms: N_20  and  C_21
REMARK   12  A    between atoms: C_22  and  C_23
REMARK   13  A    between atoms: C_27  and  C_28
REMARK   14  A    between atoms: C_30  and  C_31
REMARK                            x       y       z     vdW  Elec       q    Type
REMARK                         _______ _______ _______ _____ _____    ______ ____
ROOT
ATOM      1  N   UNL     1      -0.072  10.677  19.626  0.00  0.00    +0.000 NA
ATOM      2  C   UNL     1      -0.488   9.951  20.854  0.00  0.00    +0.000 C 
ATOM      3  C   UNL     1      -0.064  10.630  22.195  0.00  0.00    +0.000 C 
ATOM      4  C   UNL     1      -0.401   9.723  23.383  0.00  0.00    +0.000 C 
ATOM      5  N   UNL     1      -0.568  12.026  22.346  0.00  0.00    +0.000 NA
ATOM      6  C   UNL     1      -0.187  12.769  21.116  0.00  0.00    +0.000 C 
ATOM      7  C   UNL     1      -0.446  12.108  19.726  0.00  0.00    +0.000 C 
ATOM      8  C   UNL     1      -1.900  12.284  19.264  0.00  0.00    +0.000 C 
ENDROOT
BRANCH   1   9
ATOM      9  C   UNL     1       1.354  10.396  19.334  0.00  0.00    +0.000 C 
BRANCH   9  10
ATOM     10  C   UNL     1       1.788  10.110  17.867  0.00  0.00    +0.000 C 
BRANCH  10  11
ATOM     11  O   UNL     1       2.452  11.255  17.306  0.00  0.00    +0.000 OA
ATOM     12  H   UNL     1       2.603  11.089  16.361  0.00  0.00    +0.000 HD
ENDBRANCH  10  11
BRANCH  10  13
ATOM     13  C   UNL     1       2.772   8.914  17.844  0.00  0.00    +0.000 C 
BRANCH  13  14
ATOM     14  O   UNL     1       2.057   7.702  17.579  0.00  0.00    +0.000 OA
BRANCH  14  20
ATOM     15  C   UNL     1       4.046   0.816  18.760  0.00  0.00    +0.000 C 
ATOM     16  C   UNL     1       3.573   2.213  18.955  0.00  0.00    +0.000 A 
ATOM     17  N   UNL     1       3.426   3.089  17.986  0.00  0.00    +0.000 NA
ATOM     18  C   UNL     1       2.983   4.299  18.502  0.00  0.00    +0.000 A 
ATOM     19  C   UNL     1       2.719   5.474  17.766  0.00  0.00    +0.000 A 
ATOM     20  C   UNL     1       2.281   6.638  18.412  0.00  0.00    +0.000 A 
ATOM     21  C   UNL     1       2.106   6.631  19.794  0.00  0.00    +0.000 A 
ATOM     22  C   UNL     1       2.360   5.477  20.550  0.00  0.00    +0.000 A 
ATOM     23  C   UNL     1       2.799   4.326  19.885  0.00  0.00    +0.000 A 
ATOM     24  S   UNL     1       3.184   2.772  20.529  0.00  0.00    +0.000 S 
ENDBRANCH  14  20
ENDBRANCH  13  14
ENDBRANCH  10  13
ENDBRANCH   9  10
ENDBRANCH   1   9
BRANCH   5  25
ATOM     25  C   UNL     1      -2.022  12.058  22.639  0.00  0.00    +0.000 C 
BRANCH  25  26
ATOM     26  C   UNL     1      -2.591  13.469  22.797  0.00  0.00    +0.000 C 
ATOM     27  O   UNL     1      -2.567  14.269  21.865  0.00  0.00    +0.000 OA
ATOM     28  N   UNL     1      -3.137  13.700  24.054  0.00  0.00    +0.000 N 
ATOM     29  H   UNL     1      -2.673  13.159  24.775  0.00  0.00    +0.000 HD
BRANCH  28  30
ATOM     30  C   UNL     1      -3.697  14.950  24.413  0.00  0.00    +0.000 A 
ATOM     31  C   UNL     1      -5.030  15.289  24.094  0.00  0.00    +0.000 A 
ATOM     32  C   UNL     1      -6.028  14.331  23.499  0.00  0.00    +0.000 C 
ATOM     33  C   UNL     1      -5.497  16.585  24.382  0.00  0.00    +0.000 A 
ATOM     34  C   UNL     1      -4.679  17.514  25.017  0.00  0.00    +0.000 A 
ATOM     35  C   UNL     1      -3.391  17.152  25.399  0.00  0.00    +0.000 A 
ATOM     36  C   UNL     1      -2.889  15.870  25.118  0.00  0.00    +0.000 A 
ATOM     37  C   UNL     1      -1.477  15.548  25.525  0.00  0.00    +0.000 C 
ENDBRANCH  28  30
ENDBRANCH  25  26
ENDBRANCH   5  25
TORSDOF 9
ENDMDL
MODEL 9
REMARK VINA RESULT:      -6.3      6.043     11.998
REMARK  Name = 
REMARK  14 active torsions:
REMARK  status: ('A' for Active; 'I' for Inactive)
REMARK    1  A    between atoms: C_1  and  C_2
REMARK    2  A    between atoms: C_6  and  O_7
REMARK    3  A    between atoms: O_7  and  C_8
REMARK    4  A    between atoms: C_8  and  C_9
REMARK    5  A    between atoms: C_9  and  O_10
REMARK    6  A    between atoms: C_9  and  C_11
REMARK    7  A    between atoms: C_11  and  N_12
REMARK    8  A    between atoms: C_14  and  C_15
REMARK    9  A    between atoms: N_16  and  C_17
REMARK   10  A    between atoms: C_17  and  C_18
REMARK   11  A    between atoms: N_20  and  C_21
REMARK   12  A    between atoms: C_22  and  C_23
REMARK   13  A    between atoms: C_27  and  C_28
REMARK   14  A    between atoms: C_30  and  C_31
REMARK                            x       y       z     vdW  Elec       q    Type
REMARK                         _______ _______ _______ _____ _____    ______ ____
ROOT
ATOM      1  N   UNL     1       9.754  11.103  18.909  0.00  0.00    +0.000 NA
ATOM      2  C   UNL     1      10.911  11.790  18.279  0.00  0.00    +0.000 C 
ATOM      3  C   UNL     1      10.590  13.190  17.664  0.00  0.00    +0.000 C 
ATOM      4  C   UNL     1      11.807  13.733  16.907  0.00  0.00    +0.000 C 
ATOM      5  N   UNL     1      10.015  14.157  18.643  0.00  0.00    +0.000 NA
ATOM      6  C   UNL     1       8.868  13.484  19.308  0.00  0.00    +0.000 C 
ATOM      7  C   UNL     1       9.053  12.026  19.834  0.00  0.00    +0.000 C 
ATOM      8  C   UNL     1       9.743  11.989  21.205  0.00  0.00    +0.000 C 
ENDROOT
BRANCH   1   9
ATOM      9  C   UNL     1       8.916  10.468  17.865  0.00  0.00    +0.000 C 
BRANCH   9  10
ATOM     10  C   UNL     1       8.632   8.940  17.943  0.00  0.00    +0.000 C 
BRANCH  10  11
ATOM     11  O   UNL     1       8.881   8.450  19.272  0.00  0.00    +0.000 OA
ATOM     12  H   UNL     1       9.634   8.938  19.642  0.00  0.00    +0.000 HD
ENDBRANCH  10  11
BRANCH  10  13
ATOM     13  C   UNL     1       7.147   8.673  17.595  0.00  0.00    +0.000 C 
BRANCH  13  14
ATOM     14  O   UNL     1       7.032   7.445  16.867  0.00  0.00    +0.000 OA
BRANCH  14  20
ATOM     15  C   UNL     1       1.206   3.378  18.377  0.00  0.00    +0.000 C 
ATOM     16  C   UNL     1       2.589   3.925  18.345  0.00  0.00    +0.000 A 
ATOM     17  N   UNL     1       2.954   4.982  17.655  0.00  0.00    +0.000 NA
ATOM     18  C   UNL     1       4.310   5.219  17.829  0.00  0.00    +0.000 A 
ATOM     19  C   UNL     1       5.057   6.262  17.242  0.00  0.00    +0.000 A 
ATOM     20  C   UNL     1       6.431   6.387  17.495  0.00  0.00    +0.000 A 
ATOM     21  C   UNL     1       7.060   5.471  18.334  0.00  0.00    +0.000 A 
ATOM     22  C   UNL     1       6.341   4.425  18.932  0.00  0.00    +0.000 A 
ATOM     23  C   UNL     1       4.971   4.317  18.665  0.00  0.00    +0.000 A 
ATOM     24  S   UNL     1       3.832   3.159  19.247  0.00  0.00    +0.000 S 
ENDBRANCH  14  20
ENDBRANCH  13  14
ENDBRANCH  10  13
ENDBRANCH   9  10
ENDBRANCH   1   9
BRANCH   5  25
ATOM     25  C   UNL     1      11.041  14.664  19.587  0.00  0.00    +0.000 C 
BRANCH  25  26
ATOM     26  C   UNL     1      10.498  15.647  20.624  0.00  0.00    +0.000 C 
ATOM     27  O   UNL     1       9.994  16.714  20.282  0.00  0.00    +0.000 OA
ATOM     28  N   UNL     1      10.615  15.183  21.929  0.00  0.00    +0.000 N 
ATOM     29  H   UNL     1      11.418  14.574  22.045  0.00  0.00    +0.000 HD
BRANCH  28  30
ATOM     30  C   UNL     1      10.192  15.951  23.041  0.00  0.00    +0.000 A 
ATOM     31  C   UNL     1      11.014  16.942  23.620  0.00  0.00    +0.000 A 
ATOM     32  C   UNL     1      12.329  17.394  23.041  0.00  0.00    +0.000 C 
ATOM     33  C   UNL     1      10.581  17.597  24.788  0.00  0.00    +0.000 A 
ATOM     34  C   UNL     1       9.339  17.315  25.346  0.00  0.00    +0.000 A 
ATOM     35  C   UNL     1       8.498  16.394  24.730  0.00  0.00    +0.000 A 
ATOM     36  C   UNL     1       8.902  15.714  23.569  0.00  0.00    +0.000 A 
ATOM     37  C   UNL     1       7.964  14.703  22.966  0.00  0.00    +0.000 C 
ENDBRANCH  28  30
ENDBRANCH  25  26
ENDBRANCH   5  25
TORSDOF 9
ENDMDL
