MODEL 1
REMARK VINA RESULT:      -7.3      0.000      0.000
REMARK  Name = 
REMARK  5 active torsions:
REMARK  status: ('A' for Active; 'I' for Inactive)
REMARK    1  A    between atoms: C_1  and  C_2
REMARK    2  A    between atoms: C_2  and  C_3
REMARK    3  A    between atoms: C_5  and  O_6
REMARK    4  A    between atoms: C_13  and  C_14
REMARK    5  A    between atoms: C_15  and  O_16
REMARK                            x       y       z     vdW  Elec       q    Type
REMARK                         _______ _______ _______ _____ _____    ______ ____
ROOT
ATOM      1  C   UNL     1       2.359   5.315  20.068  0.00  0.00    +0.000 A 
ATOM      2  C   UNL     1       1.624   4.659  21.090  0.00  0.00    +0.000 A 
ATOM      3  C   UNL     1       1.579   3.282  21.178  0.00  0.00    +0.000 A 
ATOM      4  C   UNL     1       2.264   2.520  20.260  0.00  0.00    +0.000 A 
ATOM      5  C   UNL     1       2.983   3.142  19.223  0.00  0.00    +0.000 A 
ATOM      6  C   UNL     1       3.712   2.221  18.320  0.00  0.00    +0.000 A 
ATOM      7  O   UNL     1       3.653   1.001  18.441  0.00  0.00    +0.000 OA
ATOM      8  O   UNL     1       4.497   2.801  17.349  0.00  0.00    +0.000 OA
ATOM      9  C   UNL     1       4.535   4.188  17.087  0.00  0.00    +0.000 A 
ATOM     10  C   UNL     1       5.314   4.570  15.968  0.00  0.00    +0.000 A 
ATOM     11  C   UNL     1       6.055   3.558  15.139  0.00  0.00    +0.000 C 
ATOM     12  C   UNL     1       5.357   5.923  15.646  0.00  0.00    +0.000 A 
ATOM     13  C   UNL     1       4.628   6.838  16.384  0.00  0.00    +0.000 A 
ATOM     14  C   UNL     1       3.856   6.414  17.474  0.00  0.00    +0.000 A 
ATOM     15  C   UNL     1       3.804   5.079  17.895  0.00  0.00    +0.000 A 
ATOM     16  C   UNL     1       3.037   4.555  19.066  0.00  0.00    +0.000 A 
ENDROOT
BRANCH   1  18
ATOM     17  C   UNL     1       1.168   7.325  21.044  0.00  0.00    +0.000 C 
ATOM     18  C   UNL     1       2.338   6.827  20.201  0.00  0.00    +0.000 C 
ENDBRANCH   1  18
BRANCH   3  19
ATOM     19  O   UNL     1       0.890   2.647  22.164  0.00  0.00    +0.000 OA
ATOM     20  H   UNL     1       0.722   1.728  21.897  0.00  0.00    +0.000 HD
ENDBRANCH   3  19
BRANCH  12  21
ATOM     21  O   UNL     1       6.077   6.434  14.606  0.00  0.00    +0.000 OA
ATOM     22  H   UNL     1       6.678   5.757  14.257  0.00  0.00    +0.000 HD
ENDBRANCH  12  21
TORSDOF 3
ENDMDL
MODEL 2
REMARK VINA RESULT:      -7.3      2.150      4.853
REMARK  Name = 
REMARK  5 active torsions:
REMARK  status: ('A' for Active; 'I' for Inactive)
REMARK    1  A    between atoms: C_1  and  C_2
REMARK    2  A    between atoms: C_2  and  C_3
REMARK    3  A    between atoms: C_5  and  O_6
REMARK    4  A    between atoms: C_13  and  C_14
REMARK    5  A    between atoms: C_15  and  O_16
REMARK                            x       y       z     vdW  Elec       q    Type
REMARK                         _______ _______ _______ _____ _____    ______ ____
ROOT
ATOM      1  C   UNL     1       3.906   4.005  17.593  0.00  0.00    +0.000 A 
ATOM      2  C   UNL     1       4.317   2.649  17.683  0.00  0.00    +0.000 A 
ATOM      3  C   UNL     1       4.077   1.894  18.814  0.00  0.00    +0.000 A 
ATOM      4  C   UNL     1       3.422   2.460  19.883  0.00  0.00    +0.000 A 
ATOM      5  C   UNL     1       3.023   3.809  19.831  0.00  0.00    +0.000 A 
ATOM      6  C   UNL     1       2.292   4.296  21.024  0.00  0.00    +0.000 A 
ATOM      7  O   UNL     1       2.091   3.587  22.004  0.00  0.00    +0.000 OA
ATOM      8  O   UNL     1       1.809   5.585  20.969  0.00  0.00    +0.000 OA
ATOM      9  C   UNL     1       2.088   6.488  19.920  0.00  0.00    +0.000 A 
ATOM     10  C   UNL     1       1.597   7.804  20.111  0.00  0.00    +0.000 A 
ATOM     11  C   UNL     1       0.825   8.188  21.341  0.00  0.00    +0.000 C 
ATOM     12  C   UNL     1       1.874   8.743  19.122  0.00  0.00    +0.000 A 
ATOM     13  C   UNL     1       2.632   8.390  18.020  0.00  0.00    +0.000 A 
ATOM     14  C   UNL     1       3.111   7.082  17.879  0.00  0.00    +0.000 A 
ATOM     15  C   UNL     1       2.831   6.066  18.802  0.00  0.00    +0.000 A 
ATOM     16  C   UNL     1       3.272   4.641  18.705  0.00  0.00    +0.000 A 
ENDROOT
BRANCH   1  18
ATOM     17  C   UNL     1       5.511   4.129  15.640  0.00  0.00    +0.000 C 
ATOM     18  C   UNL     1       4.199   4.624  16.238  0.00  0.00    +0.000 C 
ENDBRANCH   1  18
BRANCH   3  19
ATOM     19  O   UNL     1       4.453   0.589  18.900  0.00  0.00    +0.000 OA
ATOM     20  H   UNL     1       3.661   0.032  18.978  0.00  0.00    +0.000 HD
ENDBRANCH   3  19
BRANCH  12  21
ATOM     21  O   UNL     1       1.454  10.040  19.166  0.00  0.00    +0.000 OA
ATOM     22  H   UNL     1       2.200  10.620  19.385  0.00  0.00    +0.000 HD
ENDBRANCH  12  21
TORSDOF 3
ENDMDL
MODEL 3
REMARK VINA RESULT:      -6.9      1.531      1.532
REMARK  Name = 
REMARK  5 active torsions:
REMARK  status: ('A' for Active; 'I' for Inactive)
REMARK    1  A    between atoms: C_1  and  C_2
REMARK    2  A    between atoms: C_2  and  C_3
REMARK    3  A    between atoms: C_5  and  O_6
REMARK    4  A    between atoms: C_13  and  C_14
REMARK    5  A    between atoms: C_15  and  O_16
REMARK                            x       y       z     vdW  Elec       q    Type
REMARK                         _______ _______ _______ _____ _____    ______ ____
ROOT
ATOM      1  C   UNL     1       2.001   5.217  20.098  0.00  0.00    +0.000 A 
ATOM      2  C   UNL     1       1.138   4.457  20.932  0.00  0.00    +0.000 A 
ATOM      3  C   UNL     1       1.490   3.201  21.383  0.00  0.00    +0.000 A 
ATOM      4  C   UNL     1       2.705   2.666  21.024  0.00  0.00    +0.000 A 
ATOM      5  C   UNL     1       3.571   3.386  20.180  0.00  0.00    +0.000 A 
ATOM      6  C   UNL     1       4.866   2.726  19.895  0.00  0.00    +0.000 A 
ATOM      7  O   UNL     1       5.143   1.611  20.326  0.00  0.00    +0.000 OA
ATOM      8  O   UNL     1       5.773   3.443  19.146  0.00  0.00    +0.000 OA
ATOM      9  C   UNL     1       5.487   4.683  18.535  0.00  0.00    +0.000 A 
ATOM     10  C   UNL     1       6.515   5.198  17.707  0.00  0.00    +0.000 A 
ATOM     11  C   UNL     1       7.816   4.471  17.518  0.00  0.00    +0.000 C 
ATOM     12  C   UNL     1       6.271   6.403  17.054  0.00  0.00    +0.000 A 
ATOM     13  C   UNL     1       5.049   7.036  17.194  0.00  0.00    +0.000 A 
ATOM     14  C   UNL     1       4.054   6.482  18.010  0.00  0.00    +0.000 A 
ATOM     15  C   UNL     1       4.241   5.303  18.743  0.00  0.00    +0.000 A 
ATOM     16  C   UNL     1       3.246   4.670  19.661  0.00  0.00    +0.000 A 
ENDROOT
BRANCH   1  18
ATOM     17  C   UNL     1       1.596   7.565  20.953  0.00  0.00    +0.000 C 
ATOM     18  C   UNL     1       1.454   6.598  19.782  0.00  0.00    +0.000 C 
ENDBRANCH   1  18
BRANCH   3  19
ATOM     19  O   UNL     1       0.675   2.475  22.195  0.00  0.00    +0.000 OA
ATOM     20  H   UNL     1       0.642   1.557  21.879  0.00  0.00    +0.000 HD
ENDBRANCH   3  19
BRANCH  12  21
ATOM     21  O   UNL     1       7.173   7.022  16.239  0.00  0.00    +0.000 OA
ATOM     22  H   UNL     1       8.038   6.589  16.317  0.00  0.00    +0.000 HD
ENDBRANCH  12  21
TORSDOF 3
ENDMDL
MODEL 4
REMARK VINA RESULT:      -6.9      2.322      4.580
REMARK  Name = 
REMARK  5 active torsions:
REMARK  status: ('A' for Active; 'I' for Inactive)
REMARK    1  A    between atoms: C_1  and  C_2
REMARK    2  A    between atoms: C_2  and  C_3
REMARK    3  A    between atoms: C_5  and  O_6
REMARK    4  A    between atoms: C_13  and  C_14
REMARK    5  A    between atoms: C_15  and  O_16
REMARK                            x       y       z     vdW  Elec       q    Type
REMARK                         _______ _______ _______ _____ _____    ______ ____
ROOT
ATOM      1  C   UNL     1       2.772   3.439  20.418  0.00  0.00    +0.000 A 
ATOM      2  C   UNL     1       3.275   2.162  20.050  0.00  0.00    +0.000 A 
ATOM      3  C   UNL     1       3.897   1.953  18.836  0.00  0.00    +0.000 A 
ATOM      4  C   UNL     1       4.040   3.001  17.956  0.00  0.00    +0.000 A 
ATOM      5  C   UNL     1       3.532   4.272  18.285  0.00  0.00    +0.000 A 
ATOM      6  C   UNL     1       3.781   5.330  17.278  0.00  0.00    +0.000 A 
ATOM      7  O   UNL     1       4.348   5.102  16.214  0.00  0.00    +0.000 OA
ATOM      8  O   UNL     1       3.375   6.604  17.608  0.00  0.00    +0.000 OA
ATOM      9  C   UNL     1       2.630   6.921  18.764  0.00  0.00    +0.000 A 
ATOM     10  C   UNL     1       2.208   8.270  18.858  0.00  0.00    +0.000 A 
ATOM     11  C   UNL     1       2.552   9.281  17.801  0.00  0.00    +0.000 C 
ATOM     12  C   UNL     1       1.440   8.628  19.963  0.00  0.00    +0.000 A 
ATOM     13  C   UNL     1       1.085   7.676  20.902  0.00  0.00    +0.000 A 
ATOM     14  C   UNL     1       1.511   6.349  20.761  0.00  0.00    +0.000 A 
ATOM     15  C   UNL     1       2.330   5.921  19.708  0.00  0.00    +0.000 A 
ATOM     16  C   UNL     1       2.855   4.536  19.507  0.00  0.00    +0.000 A 
ENDROOT
BRANCH   1  18
ATOM     17  C   UNL     1       1.117   2.410  22.035  0.00  0.00    +0.000 C 
ATOM     18  C   UNL     1       2.197   3.465  21.823  0.00  0.00    +0.000 C 
ENDBRANCH   1  18
BRANCH   3  19
ATOM     19  O   UNL     1       4.396   0.737  18.484  0.00  0.00    +0.000 OA
ATOM     20  H   UNL     1       3.756   0.047  18.724  0.00  0.00    +0.000 HD
ENDBRANCH   3  19
BRANCH  12  21
ATOM     21  O   UNL     1       0.978   9.891  20.190  0.00  0.00    +0.000 OA
ATOM     22  H   UNL     1       0.840  10.024  21.142  0.00  0.00    +0.000 HD
ENDBRANCH  12  21
TORSDOF 3
ENDMDL
MODEL 5
REMARK VINA RESULT:      -6.9      2.308      4.087
REMARK  Name = 
REMARK  5 active torsions:
REMARK  status: ('A' for Active; 'I' for Inactive)
REMARK    1  A    between atoms: C_1  and  C_2
REMARK    2  A    between atoms: C_2  and  C_3
REMARK    3  A    between atoms: C_5  and  O_6
REMARK    4  A    between atoms: C_13  and  C_14
REMARK    5  A    between atoms: C_15  and  O_16
REMARK                            x       y       z     vdW  Elec       q    Type
REMARK                         _______ _______ _______ _____ _____    ______ ____
ROOT
ATOM      1  C   UNL     1       1.924   5.904  20.600  0.00  0.00    +0.000 A 
ATOM      2  C   UNL     1       1.086   6.784  21.335  0.00  0.00    +0.000 A 
ATOM      3  C   UNL     1       0.858   8.081  20.919  0.00  0.00    +0.000 A 
ATOM      4  C   UNL     1       1.451   8.538  19.766  0.00  0.00    +0.000 A 
ATOM      5  C   UNL     1       2.303   7.695  19.029  0.00  0.00    +0.000 A 
ATOM      6  C   UNL     1       2.851   8.285  17.784  0.00  0.00    +0.000 A 
ATOM      7  O   UNL     1       2.613   9.440  17.446  0.00  0.00    +0.000 OA
ATOM      8  O   UNL     1       3.617   7.457  16.994  0.00  0.00    +0.000 OA
ATOM      9  C   UNL     1       4.013   6.154  17.366  0.00  0.00    +0.000 A 
ATOM     10  C   UNL     1       4.900   5.512  16.467  0.00  0.00    +0.000 A 
ATOM     11  C   UNL     1       5.362   6.181  15.203  0.00  0.00    +0.000 C 
ATOM     12  C   UNL     1       5.348   4.238  16.804  0.00  0.00    +0.000 A 
ATOM     13  C   UNL     1       4.956   3.656  17.996  0.00  0.00    +0.000 A 
ATOM     14  C   UNL     1       4.091   4.333  18.865  0.00  0.00    +0.000 A 
ATOM     15  C   UNL     1       3.553   5.593  18.573  0.00  0.00    +0.000 A 
ATOM     16  C   UNL     1       2.598   6.362  19.427  0.00  0.00    +0.000 A 
ENDROOT
BRANCH   1  18
ATOM     17  C   UNL     1       0.979   3.556  20.533  0.00  0.00    +0.000 C 
ATOM     18  C   UNL     1       1.975   4.506  21.190  0.00  0.00    +0.000 C 
ENDBRANCH   1  18
BRANCH   3  19
ATOM     19  O   UNL     1       0.044   8.924  21.610  0.00  0.00    +0.000 OA
ATOM     20  H   UNL     1       0.420   9.820  21.590  0.00  0.00    +0.000 HD
ENDBRANCH   3  19
BRANCH  12  21
ATOM     21  O   UNL     1       6.191   3.499  16.027  0.00  0.00    +0.000 OA
ATOM     22  H   UNL     1       6.187   2.576  16.325  0.00  0.00    +0.000 HD
ENDBRANCH  12  21
TORSDOF 3
ENDMDL
MODEL 6
REMARK VINA RESULT:      -6.5      9.631     12.569
REMARK  Name = 
REMARK  5 active torsions:
REMARK  status: ('A' for Active; 'I' for Inactive)
REMARK    1  A    between atoms: C_1  and  C_2
REMARK    2  A    between atoms: C_2  and  C_3
REMARK    3  A    between atoms: C_5  and  O_6
REMARK    4  A    between atoms: C_13  and  C_14
REMARK    5  A    between atoms: C_15  and  O_16
REMARK                            x       y       z     vdW  Elec       q    Type
REMARK                         _______ _______ _______ _____ _____    ______ ____
ROOT
ATOM      1  C   UNL     1      10.149  11.660  18.909  0.00  0.00    +0.000 A 
ATOM      2  C   UNL     1      10.756  11.775  17.630  0.00  0.00    +0.000 A 
ATOM      3  C   UNL     1      11.336  12.955  17.208  0.00  0.00    +0.000 A 
ATOM      4  C   UNL     1      11.332  14.049  18.041  0.00  0.00    +0.000 A 
ATOM      5  C   UNL     1      10.718  13.971  19.305  0.00  0.00    +0.000 A 
ATOM      6  C   UNL     1      10.813  15.200  20.128  0.00  0.00    +0.000 A 
ATOM      7  O   UNL     1      11.347  16.224  19.718  0.00  0.00    +0.000 OA
ATOM      8  O   UNL     1      10.301  15.128  21.405  0.00  0.00    +0.000 OA
ATOM      9  C   UNL     1       9.585  14.020  21.908  0.00  0.00    +0.000 A 
ATOM     10  C   UNL     1       9.038  14.194  23.204  0.00  0.00    +0.000 A 
ATOM     11  C   UNL     1       9.229  15.467  23.978  0.00  0.00    +0.000 C 
ATOM     12  C   UNL     1       8.294  13.143  23.733  0.00  0.00    +0.000 A 
ATOM     13  C   UNL     1       8.080  11.997  22.988  0.00  0.00    +0.000 A 
ATOM     14  C   UNL     1       8.626  11.874  21.704  0.00  0.00    +0.000 A 
ATOM     15  C   UNL     1       9.431  12.862  21.123  0.00  0.00    +0.000 A 
ATOM     16  C   UNL     1      10.079  12.792  19.778  0.00  0.00    +0.000 A 
ENDROOT
BRANCH   1  18
ATOM     17  C   UNL     1       8.577   9.802  18.210  0.00  0.00    +0.000 C 
ATOM     18  C   UNL     1       9.643  10.258  19.201  0.00  0.00    +0.000 C 
ENDBRANCH   1  18
BRANCH   3  19
ATOM     19  O   UNL     1      11.933  13.067  15.991  0.00  0.00    +0.000 OA
ATOM     20  H   UNL     1      12.358  12.223  15.764  0.00  0.00    +0.000 HD
ENDBRANCH   3  19
BRANCH  12  21
ATOM     21  O   UNL     1       7.721  13.165  24.971  0.00  0.00    +0.000 OA
ATOM     22  H   UNL     1       8.230  13.746  25.558  0.00  0.00    +0.000 HD
ENDBRANCH  12  21
TORSDOF 3
ENDMDL
MODEL 7
REMARK VINA RESULT:      -6.5      2.723      5.677
REMARK  Name = 
REMARK  5 active torsions:
REMARK  status: ('A' for Active; 'I' for Inactive)
REMARK    1  A    between atoms: C_1  and  C_2
REMARK    2  A    between atoms: C_2  and  C_3
REMARK    3  A    between atoms: C_5  and  O_6
REMARK    4  A    between atoms: C_13  and  C_14
REMARK    5  A    between atoms: C_15  and  O_16
REMARK                            x       y       z     vdW  Elec       q    Type
REMARK                         _______ _______ _______ _____ _____    ______ ____
ROOT
ATOM      1  C   UNL     1       2.795   4.797  20.098  0.00  0.00    +0.000 A 
ATOM      2  C   UNL     1       3.529   3.746  19.486  0.00  0.00    +0.000 A 
ATOM      3  C   UNL     1       4.155   3.916  18.267  0.00  0.00    +0.000 A 
ATOM      4  C   UNL     1       4.074   5.129  17.625  0.00  0.00    +0.000 A 
ATOM      5  C   UNL     1       3.335   6.182  18.197  0.00  0.00    +0.000 A 
ATOM      6  C   UNL     1       3.353   7.452  17.434  0.00  0.00    +0.000 A 
ATOM      7  O   UNL     1       3.933   7.562  16.358  0.00  0.00    +0.000 OA
ATOM      8  O   UNL     1       2.714   8.527  18.010  0.00  0.00    +0.000 OA
ATOM      9  C   UNL     1       1.945   8.449  19.191  0.00  0.00    +0.000 A 
ATOM     10  C   UNL     1       1.270   9.642  19.552  0.00  0.00    +0.000 A 
ATOM     11  C   UNL     1       1.390  10.895  18.732  0.00  0.00    +0.000 C 
ATOM     12  C   UNL     1       0.470   9.609  20.690  0.00  0.00    +0.000 A 
ATOM     13  C   UNL     1       0.326   8.433  21.406  0.00  0.00    +0.000 A 
ATOM     14  C   UNL     1       0.999   7.272  21.004  0.00  0.00    +0.000 A 
ATOM     15  C   UNL     1       1.864   7.237  19.903  0.00  0.00    +0.000 A 
ATOM     16  C   UNL     1       2.645   6.053  19.433  0.00  0.00    +0.000 A 
ENDROOT
BRANCH   1  18
ATOM     17  C   UNL     1       1.798   2.968  21.538  0.00  0.00    +0.000 C 
ATOM     18  C   UNL     1       2.254   4.422  21.466  0.00  0.00    +0.000 C 
ENDBRANCH   1  18
BRANCH   3  19
ATOM     19  O   UNL     1       4.873   2.919  17.683  0.00  0.00    +0.000 OA
ATOM     20  H   UNL     1       5.488   3.303  17.036  0.00  0.00    +0.000 HD
ENDBRANCH   3  19
BRANCH  12  21
ATOM     21  O   UNL     1      -0.224  10.683  21.162  0.00  0.00    +0.000 OA
ATOM     22  H   UNL     1      -1.034  10.383  21.604  0.00  0.00    +0.000 HD
ENDBRANCH  12  21
TORSDOF 3
ENDMDL
MODEL 8
REMARK VINA RESULT:      -6.4      2.785      5.387
REMARK  Name = 
REMARK  5 active torsions:
REMARK  status: ('A' for Active; 'I' for Inactive)
REMARK    1  A    between atoms: C_1  and  C_2
REMARK    2  A    between atoms: C_2  and  C_3
REMARK    3  A    between atoms: C_5  and  O_6
REMARK    4  A    between atoms: C_13  and  C_14
REMARK    5  A    between atoms: C_15  and  O_16
REMARK                            x       y       z     vdW  Elec       q    Type
REMARK                         _______ _______ _______ _____ _____    ______ ____
ROOT
ATOM      1  C   UNL     1       4.219   5.782  17.579  0.00  0.00    +0.000 A 
ATOM      2  C   UNL     1       4.858   4.518  17.691  0.00  0.00    +0.000 A 
ATOM      3  C   UNL     1       4.611   3.674  18.756  0.00  0.00    +0.000 A 
ATOM      4  C   UNL     1       3.724   4.058  19.735  0.00  0.00    +0.000 A 
ATOM      5  C   UNL     1       3.093   5.314  19.661  0.00  0.00    +0.000 A 
ATOM      6  C   UNL     1       2.129   5.599  20.751  0.00  0.00    +0.000 A 
ATOM      7  O   UNL     1       1.932   4.815  21.673  0.00  0.00    +0.000 OA
ATOM      8  O   UNL     1       1.429   6.781  20.661  0.00  0.00    +0.000 OA
ATOM      9  C   UNL     1       1.674   7.773  19.687  0.00  0.00    +0.000 A 
ATOM     10  C   UNL     1       0.928   8.968  19.840  0.00  0.00    +0.000 A 
ATOM     11  C   UNL     1      -0.062   9.142  20.957  0.00  0.00    +0.000 C 
ATOM     12  C   UNL     1       1.157   9.991  18.926  0.00  0.00    +0.000 A 
ATOM     13  C   UNL     1       2.110   9.838  17.934  0.00  0.00    +0.000 A 
ATOM     14  C   UNL     1       2.838   8.646  17.829  0.00  0.00    +0.000 A 
ATOM     15  C   UNL     1       2.628   7.550  18.675  0.00  0.00    +0.000 A 
ATOM     16  C   UNL     1       3.334   6.235  18.605  0.00  0.00    +0.000 A 
ENDROOT
BRANCH   1  18
ATOM     17  C   UNL     1       5.445   5.675  15.366  0.00  0.00    +0.000 C 
ATOM     18  C   UNL     1       4.574   6.512  16.297  0.00  0.00    +0.000 C 
ENDBRANCH   1  18
BRANCH   3  19
ATOM     19  O   UNL     1       5.207   2.456  18.861  0.00  0.00    +0.000 OA
ATOM     20  H   UNL     1       5.366   2.257  19.798  0.00  0.00    +0.000 HD
ENDBRANCH   3  19
BRANCH  12  21
ATOM     21  O   UNL     1       0.502  11.188  18.944  0.00  0.00    +0.000 OA
ATOM     22  H   UNL     1       0.038  11.296  19.789  0.00  0.00    +0.000 HD
ENDBRANCH  12  21
TORSDOF 3
ENDMDL
MODEL 9
REMARK VINA RESULT:      -6.4      3.818      7.444
REMARK  Name = 
REMARK  5 active torsions:
REMARK  status: ('A' for Active; 'I' for Inactive)
REMARK    1  A    between atoms: C_1  and  C_2
REMARK    2  A    between atoms: C_2  and  C_3
REMARK    3  A    between atoms: C_5  and  O_6
REMARK    4  A    between atoms: C_13  and  C_14
REMARK    5  A    between atoms: C_15  and  O_16
REMARK                            x       y       z     vdW  Elec       q    Type
REMARK                         _______ _______ _______ _____ _____    ______ ____
ROOT
ATOM      1  C   UNL     1       2.203   6.549  19.866  0.00  0.00    +0.000 A 
ATOM      2  C   UNL     1       2.987   5.923  18.860  0.00  0.00    +0.000 A 
ATOM      3  C   UNL     1       3.417   6.613  17.744  0.00  0.00    +0.000 A 
ATOM      4  C   UNL     1       3.086   7.939  17.596  0.00  0.00    +0.000 A 
ATOM      5  C   UNL     1       2.292   8.580  18.566  0.00  0.00    +0.000 A 
ATOM      6  C   UNL     1       2.035  10.018  18.320  0.00  0.00    +0.000 A 
ATOM      7  O   UNL     1       2.446  10.596  17.318  0.00  0.00    +0.000 OA
ATOM      8  O   UNL     1       1.337  10.697  19.294  0.00  0.00    +0.000 OA
ATOM      9  C   UNL     1       0.749  10.079  20.419  0.00  0.00    +0.000 A 
ATOM     10  C   UNL     1      -0.029  10.934  21.239  0.00  0.00    +0.000 A 
ATOM     11  C   UNL     1      -0.192  12.394  20.927  0.00  0.00    +0.000 C 
ATOM     12  C   UNL     1      -0.659  10.367  22.344  0.00  0.00    +0.000 A 
ATOM     13  C   UNL     1      -0.544   9.010  22.590  0.00  0.00    +0.000 A 
ATOM     14  C   UNL     1       0.222   8.199  21.744  0.00  0.00    +0.000 A 
ATOM     15  C   UNL     1       0.930   8.701  20.644  0.00  0.00    +0.000 A 
ATOM     16  C   UNL     1       1.796   7.910  19.718  0.00  0.00    +0.000 A 
ENDROOT
BRANCH   1  18
ATOM     17  C   UNL     1       1.259   4.321  20.609  0.00  0.00    +0.000 C 
ATOM     18  C   UNL     1       1.906   5.633  21.039  0.00  0.00    +0.000 C 
ENDBRANCH   1  18
BRANCH   3  19
ATOM     19  O   UNL     1       4.181   6.023  16.785  0.00  0.00    +0.000 OA
ATOM     20  H   UNL     1       4.343   6.659  16.069  0.00  0.00    +0.000 HD
ENDBRANCH   3  19
BRANCH  12  21
ATOM     21  O   UNL     1      -1.425  11.071  23.226  0.00  0.00    +0.000 OA
ATOM     22  H   UNL     1      -2.218  10.560  23.452  0.00  0.00    +0.000 HD
ENDBRANCH  12  21
TORSDOF 3
ENDMDL
