MODEL 1
REMARK VINA RESULT:      -7.6      0.000      0.000
REMARK  Name = 
REMARK  4 active torsions:
REMARK  status: ('A' for Active; 'I' for Inactive)
REMARK    1  A    between atoms: C_1  and  C_2
REMARK    2  A    between atoms: C_2  and  C_3
REMARK    3  A    between atoms: C_3  and  O_5
REMARK    4  A    between atoms: O_5  and  C_6
REMARK                            x       y       z     vdW  Elec       q    Type
REMARK                         _______ _______ _______ _____ _____    ______ ____
ROOT
ATOM      1  C   UNL     1       5.937   4.472  15.873  0.00  0.00    +0.000 C 
ATOM      2  C   UNL     1       7.058   4.624  16.906  0.00  0.00    +0.000 C 
ATOM      3  S   UNL     1       6.563   5.755  18.222  0.00  0.00    +0.000 S 
ATOM      4  C   UNL     1       5.020   5.094  18.628  0.00  0.00    +0.000 A 
ATOM      5  N   UNL     1       4.420   5.278  19.777  0.00  0.00    +0.000 NA
ATOM      6  C   UNL     1       3.212   4.643  19.654  0.00  0.00    +0.000 A 
ATOM      7  C   UNL     1       2.172   4.528  20.586  0.00  0.00    +0.000 A 
ATOM      8  C   UNL     1       1.004   3.852  20.215  0.00  0.00    +0.000 A 
ATOM      9  C   UNL     1       0.881   3.292  18.942  0.00  0.00    +0.000 A 
ATOM     10  C   UNL     1       1.917   3.375  18.003  0.00  0.00    +0.000 A 
ATOM     11  C   UNL     1       3.073   4.065  18.393  0.00  0.00    +0.000 A 
ATOM     12  N   UNL     1       4.266   4.350  17.762  0.00  0.00    +0.000 N 
ATOM     13  C   UNL     1       4.645   3.875  16.449  0.00  0.00    +0.000 C 
ENDROOT
BRANCH   1  14
ATOM     14  O   UNL     1       6.387   3.746  14.693  0.00  0.00    +0.000 OA
BRANCH  14  15
ATOM     15  C   UNL     1       6.985   4.457  13.700  0.00  0.00    +0.000 C 
ATOM     16  O   UNL     1       7.649   5.469  13.877  0.00  0.00    +0.000 OA
BRANCH  15  18
ATOM     17  C   UNL     1       5.294   3.322  12.273  0.00  0.00    +0.000 C 
ATOM     18  C   UNL     1       6.728   3.822  12.360  0.00  0.00    +0.000 C 
ENDBRANCH  15  18
ENDBRANCH  14  15
ENDBRANCH   1  14
TORSDOF 3
ENDMDL
MODEL 2
REMARK VINA RESULT:      -7.5      2.741      4.108
REMARK  Name = 
REMARK  4 active torsions:
REMARK  status: ('A' for Active; 'I' for Inactive)
REMARK    1  A    between atoms: C_1  and  C_2
REMARK    2  A    between atoms: C_2  and  C_3
REMARK    3  A    between atoms: C_3  and  O_5
REMARK    4  A    between atoms: O_5  and  C_6
REMARK                            x       y       z     vdW  Elec       q    Type
REMARK                         _______ _______ _______ _____ _____    ______ ____
ROOT
ATOM      1  C   UNL     1       6.125   6.265  17.104  0.00  0.00    +0.000 C 
ATOM      2  C   UNL     1       5.854   5.674  15.718  0.00  0.00    +0.000 C 
ATOM      3  S   UNL     1       5.379   3.937  15.846  0.00  0.00    +0.000 S 
ATOM      4  C   UNL     1       4.152   4.046  17.057  0.00  0.00    +0.000 A 
ATOM      5  N   UNL     1       3.209   3.154  17.231  0.00  0.00    +0.000 NA
ATOM      6  C   UNL     1       2.502   3.592  18.320  0.00  0.00    +0.000 A 
ATOM      7  C   UNL     1       1.387   3.014  18.943  0.00  0.00    +0.000 A 
ATOM      8  C   UNL     1       0.853   3.633  20.078  0.00  0.00    +0.000 A 
ATOM      9  C   UNL     1       1.412   4.812  20.576  0.00  0.00    +0.000 A 
ATOM     10  C   UNL     1       2.511   5.418  19.955  0.00  0.00    +0.000 A 
ATOM     11  C   UNL     1       3.037   4.775  18.826  0.00  0.00    +0.000 A 
ATOM     12  N   UNL     1       4.085   5.059  17.975  0.00  0.00    +0.000 N 
ATOM     13  C   UNL     1       4.901   6.252  18.030  0.00  0.00    +0.000 C 
ENDROOT
BRANCH   1  14
ATOM     14  O   UNL     1       6.722   7.591  17.017  0.00  0.00    +0.000 OA
BRANCH  14  15
ATOM     15  C   UNL     1       7.750   7.881  17.858  0.00  0.00    +0.000 C 
ATOM     16  O   UNL     1       8.286   7.071  18.601  0.00  0.00    +0.000 OA
BRANCH  15  18
ATOM     17  C   UNL     1       9.000   9.747  18.925  0.00  0.00    +0.000 C 
ATOM     18  C   UNL     1       8.144   9.329  17.740  0.00  0.00    +0.000 C 
ENDBRANCH  15  18
ENDBRANCH  14  15
ENDBRANCH   1  14
TORSDOF 3
ENDMDL
MODEL 3
REMARK VINA RESULT:      -7.4      1.403      1.460
REMARK  Name = 
REMARK  4 active torsions:
REMARK  status: ('A' for Active; 'I' for Inactive)
REMARK    1  A    between atoms: C_1  and  C_2
REMARK    2  A    between atoms: C_2  and  C_3
REMARK    3  A    between atoms: C_3  and  O_5
REMARK    4  A    between atoms: O_5  and  C_6
REMARK                            x       y       z     vdW  Elec       q    Type
REMARK                         _______ _______ _______ _____ _____    ______ ____
ROOT
ATOM      1  C   UNL     1       5.472   4.974  16.270  0.00  0.00    +0.000 C 
ATOM      2  C   UNL     1       5.741   6.368  16.844  0.00  0.00    +0.000 C 
ATOM      3  S   UNL     1       4.194   7.177  17.306  0.00  0.00    +0.000 S 
ATOM      4  C   UNL     1       3.461   5.921  18.239  0.00  0.00    +0.000 A 
ATOM      5  N   UNL     1       2.528   6.121  19.135  0.00  0.00    +0.000 NA
ATOM      6  C   UNL     1       2.191   4.870  19.582  0.00  0.00    +0.000 A 
ATOM      7  C   UNL     1       1.241   4.499  20.545  0.00  0.00    +0.000 A 
ATOM      8  C   UNL     1       1.047   3.139  20.811  0.00  0.00    +0.000 A 
ATOM      9  C   UNL     1       1.793   2.168  20.140  0.00  0.00    +0.000 A 
ATOM     10  C   UNL     1       2.763   2.519  19.192  0.00  0.00    +0.000 A 
ATOM     11  C   UNL     1       2.934   3.886  18.933  0.00  0.00    +0.000 A 
ATOM     12  N   UNL     1       3.764   4.595  18.091  0.00  0.00    +0.000 N 
ATOM     13  C   UNL     1       4.801   4.016  17.265  0.00  0.00    +0.000 C 
ENDROOT
BRANCH   1  14
ATOM     14  O   UNL     1       6.673   4.392  15.687  0.00  0.00    +0.000 OA
BRANCH  14  15
ATOM     15  C   UNL     1       6.935   4.653  14.378  0.00  0.00    +0.000 C 
ATOM     16  O   UNL     1       7.801   5.423  13.987  0.00  0.00    +0.000 OA
BRANCH  15  18
ATOM     17  C   UNL     1       6.697   3.588  12.144  0.00  0.00    +0.000 C 
ATOM     18  C   UNL     1       6.025   3.857  13.482  0.00  0.00    +0.000 C 
ENDBRANCH  15  18
ENDBRANCH  14  15
ENDBRANCH   1  14
TORSDOF 3
ENDMDL
MODEL 4
REMARK VINA RESULT:      -7.3      2.521      6.397
REMARK  Name = 
REMARK  4 active torsions:
REMARK  status: ('A' for Active; 'I' for Inactive)
REMARK    1  A    between atoms: C_1  and  C_2
REMARK    2  A    between atoms: C_2  and  C_3
REMARK    3  A    between atoms: C_3  and  O_5
REMARK    4  A    between atoms: O_5  and  C_6
REMARK                            x       y       z     vdW  Elec       q    Type
REMARK                         _______ _______ _______ _____ _____    ______ ____
ROOT
ATOM      1  C   UNL     1       4.353   4.185  18.060  0.00  0.00    +0.000 C 
ATOM      2  C   UNL     1       4.900   5.538  18.524  0.00  0.00    +0.000 C 
ATOM      3  S   UNL     1       6.646   5.702  18.096  0.00  0.00    +0.000 S 
ATOM      4  C   UNL     1       6.595   5.251  16.429  0.00  0.00    +0.000 A 
ATOM      5  N   UNL     1       7.505   5.586  15.549  0.00  0.00    +0.000 NA
ATOM      6  C   UNL     1       7.115   4.977  14.385  0.00  0.00    +0.000 A 
ATOM      7  C   UNL     1       7.728   4.999  13.125  0.00  0.00    +0.000 A 
ATOM      8  C   UNL     1       7.155   4.260  12.084  0.00  0.00    +0.000 A 
ATOM      9  C   UNL     1       5.987   3.524  12.291  0.00  0.00    +0.000 A 
ATOM     10  C   UNL     1       5.346   3.508  13.536  0.00  0.00    +0.000 A 
ATOM     11  C   UNL     1       5.943   4.245  14.568  0.00  0.00    +0.000 A 
ATOM     12  N   UNL     1       5.616   4.462  15.890  0.00  0.00    +0.000 N 
ATOM     13  C   UNL     1       4.414   3.984  16.539  0.00  0.00    +0.000 C 
ENDROOT
BRANCH   1  14
ATOM     14  O   UNL     1       3.018   3.935  18.584  0.00  0.00    +0.000 OA
BRANCH  14  15
ATOM     15  C   UNL     1       2.812   2.784  19.278  0.00  0.00    +0.000 C 
ATOM     16  O   UNL     1       3.612   1.860  19.336  0.00  0.00    +0.000 OA
BRANCH  15  18
ATOM     17  C   UNL     1       1.657   2.718  21.479  0.00  0.00    +0.000 C 
ATOM     18  C   UNL     1       1.476   2.810  19.971  0.00  0.00    +0.000 C 
ENDBRANCH  15  18
ENDBRANCH  14  15
ENDBRANCH   1  14
TORSDOF 3
ENDMDL
MODEL 5
REMARK VINA RESULT:      -7.1      1.090      1.138
REMARK  Name = 
REMARK  4 active torsions:
REMARK  status: ('A' for Active; 'I' for Inactive)
REMARK    1  A    between atoms: C_1  and  C_2
REMARK    2  A    between atoms: C_2  and  C_3
REMARK    3  A    between atoms: C_3  and  O_5
REMARK    4  A    between atoms: O_5  and  C_6
REMARK                            x       y       z     vdW  Elec       q    Type
REMARK                         _______ _______ _______ _____ _____    ______ ____
ROOT
ATOM      1  C   UNL     1       5.779   5.650  16.217  0.00  0.00    +0.000 C 
ATOM      2  C   UNL     1       7.037   5.050  16.852  0.00  0.00    +0.000 C 
ATOM      3  S   UNL     1       6.909   5.059  18.653  0.00  0.00    +0.000 S 
ATOM      4  C   UNL     1       5.348   4.346  18.851  0.00  0.00    +0.000 A 
ATOM      5  N   UNL     1       4.943   3.754  19.946  0.00  0.00    +0.000 NA
ATOM      6  C   UNL     1       3.644   3.396  19.698  0.00  0.00    +0.000 A 
ATOM      7  C   UNL     1       2.732   2.734  20.532  0.00  0.00    +0.000 A 
ATOM      8  C   UNL     1       1.433   2.508  20.066  0.00  0.00    +0.000 A 
ATOM      9  C   UNL     1       1.053   2.923  18.788  0.00  0.00    +0.000 A 
ATOM     10  C   UNL     1       1.955   3.565  17.930  0.00  0.00    +0.000 A 
ATOM     11  C   UNL     1       3.248   3.791  18.421  0.00  0.00    +0.000 A 
ATOM     12  N   UNL     1       4.376   4.378  17.888  0.00  0.00    +0.000 N 
ATOM     13  C   UNL     1       4.497   4.867  16.532  0.00  0.00    +0.000 C 
ENDROOT
BRANCH   1  14
ATOM     14  O   UNL     1       5.946   5.860  14.786  0.00  0.00    +0.000 OA
BRANCH  14  15
ATOM     15  C   UNL     1       6.845   5.078  14.130  0.00  0.00    +0.000 C 
ATOM     16  O   UNL     1       8.005   5.397  13.906  0.00  0.00    +0.000 OA
BRANCH  15  18
ATOM     17  C   UNL     1       6.402   3.525  12.239  0.00  0.00    +0.000 C 
ATOM     18  C   UNL     1       6.222   3.768  13.730  0.00  0.00    +0.000 C 
ENDBRANCH  15  18
ENDBRANCH  14  15
ENDBRANCH   1  14
TORSDOF 3
ENDMDL
MODEL 6
REMARK VINA RESULT:      -7.0      2.448      6.285
REMARK  Name = 
REMARK  4 active torsions:
REMARK  status: ('A' for Active; 'I' for Inactive)
REMARK    1  A    between atoms: C_1  and  C_2
REMARK    2  A    between atoms: C_2  and  C_3
REMARK    3  A    between atoms: C_3  and  O_5
REMARK    4  A    between atoms: O_5  and  C_6
REMARK                            x       y       z     vdW  Elec       q    Type
REMARK                         _______ _______ _______ _____ _____    ______ ____
ROOT
ATOM      1  C   UNL     1       4.539   3.877  18.133  0.00  0.00    +0.000 C 
ATOM      2  C   UNL     1       5.034   5.231  18.650  0.00  0.00    +0.000 C 
ATOM      3  S   UNL     1       6.759   5.499  18.189  0.00  0.00    +0.000 S 
ATOM      4  C   UNL     1       6.685   5.126  16.503  0.00  0.00    +0.000 A 
ATOM      5  N   UNL     1       7.554   5.546  15.619  0.00  0.00    +0.000 NA
ATOM      6  C   UNL     1       7.162   4.975  14.437  0.00  0.00    +0.000 A 
ATOM      7  C   UNL     1       7.740   5.087  13.164  0.00  0.00    +0.000 A 
ATOM      8  C   UNL     1       7.175   4.373  12.102  0.00  0.00    +0.000 A 
ATOM      9  C   UNL     1       6.049   3.572  12.301  0.00  0.00    +0.000 A 
ATOM     10  C   UNL     1       5.442   3.466  13.559  0.00  0.00    +0.000 A 
ATOM     11  C   UNL     1       6.031   4.181  14.611  0.00  0.00    +0.000 A 
ATOM     12  N   UNL     1       5.730   4.318  15.950  0.00  0.00    +0.000 N 
ATOM     13  C   UNL     1       4.569   3.752  16.604  0.00  0.00    +0.000 C 
ENDROOT
BRANCH   1  14
ATOM     14  O   UNL     1       3.231   3.538  18.677  0.00  0.00    +0.000 OA
BRANCH  14  15
ATOM     15  C   UNL     1       2.295   4.523  18.738  0.00  0.00    +0.000 C 
ATOM     16  O   UNL     1       1.834   5.100  17.764  0.00  0.00    +0.000 OA
BRANCH  15  18
ATOM     17  C   UNL     1       1.211   3.575  20.765  0.00  0.00    +0.000 C 
ATOM     18  C   UNL     1       1.897   4.792  20.165  0.00  0.00    +0.000 C 
ENDBRANCH  15  18
ENDBRANCH  14  15
ENDBRANCH   1  14
TORSDOF 3
ENDMDL
MODEL 7
REMARK VINA RESULT:      -6.8      2.520      6.268
REMARK  Name = 
REMARK  4 active torsions:
REMARK  status: ('A' for Active; 'I' for Inactive)
REMARK    1  A    between atoms: C_1  and  C_2
REMARK    2  A    between atoms: C_2  and  C_3
REMARK    3  A    between atoms: C_3  and  O_5
REMARK    4  A    between atoms: O_5  and  C_6
REMARK                            x       y       z     vdW  Elec       q    Type
REMARK                         _______ _______ _______ _____ _____    ______ ____
ROOT
ATOM      1  C   UNL     1       4.203   4.551  17.947  0.00  0.00    +0.000 C 
ATOM      2  C   UNL     1       4.842   5.879  18.365  0.00  0.00    +0.000 C 
ATOM      3  S   UNL     1       6.604   5.890  17.978  0.00  0.00    +0.000 S 
ATOM      4  C   UNL     1       6.558   5.367  16.332  0.00  0.00    +0.000 A 
ATOM      5  N   UNL     1       7.511   5.591  15.462  0.00  0.00    +0.000 NA
ATOM      6  C   UNL     1       7.102   4.960  14.317  0.00  0.00    +0.000 A 
ATOM      7  C   UNL     1       7.744   4.877  13.073  0.00  0.00    +0.000 A 
ATOM      8  C   UNL     1       7.141   4.137  12.051  0.00  0.00    +0.000 A 
ATOM      9  C   UNL     1       5.915   3.503  12.259  0.00  0.00    +0.000 A 
ATOM     10  C   UNL     1       5.245   3.593  13.486  0.00  0.00    +0.000 A 
ATOM     11  C   UNL     1       5.873   4.329  14.500  0.00  0.00    +0.000 A 
ATOM     12  N   UNL     1       5.533   4.632  15.802  0.00  0.00    +0.000 N 
ATOM     13  C   UNL     1       4.284   4.276  16.439  0.00  0.00    +0.000 C 
ENDROOT
BRANCH   1  14
ATOM     14  O   UNL     1       2.840   4.429  18.446  0.00  0.00    +0.000 OA
BRANCH  14  15
ATOM     15  C   UNL     1       2.666   3.951  19.707  0.00  0.00    +0.000 C 
ATOM     16  O   UNL     1       2.823   4.612  20.724  0.00  0.00    +0.000 OA
BRANCH  15  18
ATOM     17  C   UNL     1       1.065   2.317  18.732  0.00  0.00    +0.000 C 
ATOM     18  C   UNL     1       2.241   2.507  19.677  0.00  0.00    +0.000 C 
ENDBRANCH  15  18
ENDBRANCH  14  15
ENDBRANCH   1  14
TORSDOF 3
ENDMDL
MODEL 8
REMARK VINA RESULT:      -6.8      2.581      6.029
REMARK  Name = 
REMARK  4 active torsions:
REMARK  status: ('A' for Active; 'I' for Inactive)
REMARK    1  A    between atoms: C_1  and  C_2
REMARK    2  A    between atoms: C_2  and  C_3
REMARK    3  A    between atoms: C_3  and  O_5
REMARK    4  A    between atoms: O_5  and  C_6
REMARK                            x       y       z     vdW  Elec       q    Type
REMARK                         _______ _______ _______ _____ _____    ______ ____
ROOT
ATOM      1  C   UNL     1       4.497   4.625  18.021  0.00  0.00    +0.000 C 
ATOM      2  C   UNL     1       5.153   5.966  18.365  0.00  0.00    +0.000 C 
ATOM      3  S   UNL     1       6.885   5.978  17.857  0.00  0.00    +0.000 S 
ATOM      4  C   UNL     1       6.730   5.419  16.230  0.00  0.00    +0.000 A 
ATOM      5  N   UNL     1       7.619   5.629  15.292  0.00  0.00    +0.000 NA
ATOM      6  C   UNL     1       7.137   4.970  14.192  0.00  0.00    +0.000 A 
ATOM      7  C   UNL     1       7.693   4.863  12.909  0.00  0.00    +0.000 A 
ATOM      8  C   UNL     1       7.026   4.097  11.947  0.00  0.00    +0.000 A 
ATOM      9  C   UNL     1       5.822   3.460  12.253  0.00  0.00    +0.000 A 
ATOM     10  C   UNL     1       5.238   3.573  13.521  0.00  0.00    +0.000 A 
ATOM     11  C   UNL     1       5.928   4.336  14.473  0.00  0.00    +0.000 A 
ATOM     12  N   UNL     1       5.676   4.666  15.789  0.00  0.00    +0.000 N 
ATOM     13  C   UNL     1       4.476   4.317  16.518  0.00  0.00    +0.000 C 
ENDROOT
BRANCH   1  14
ATOM     14  O   UNL     1       3.173   4.506  18.615  0.00  0.00    +0.000 OA
BRANCH  14  15
ATOM     15  C   UNL     1       2.387   3.472  18.213  0.00  0.00    +0.000 C 
ATOM     16  O   UNL     1       1.633   3.512  17.250  0.00  0.00    +0.000 OA
BRANCH  15  18
ATOM     17  C   UNL     1       3.576   1.305  18.483  0.00  0.00    +0.000 C 
ATOM     18  C   UNL     1       2.581   2.275  19.103  0.00  0.00    +0.000 C 
ENDBRANCH  15  18
ENDBRANCH  14  15
ENDBRANCH   1  14
TORSDOF 3
ENDMDL
MODEL 9
REMARK VINA RESULT:      -6.6      1.187      1.392
REMARK  Name = 
REMARK  4 active torsions:
REMARK  status: ('A' for Active; 'I' for Inactive)
REMARK    1  A    between atoms: C_1  and  C_2
REMARK    2  A    between atoms: C_2  and  C_3
REMARK    3  A    between atoms: C_3  and  O_5
REMARK    4  A    between atoms: O_5  and  C_6
REMARK                            x       y       z     vdW  Elec       q    Type
REMARK                         _______ _______ _______ _____ _____    ______ ____
ROOT
ATOM      1  C   UNL     1       5.364   4.532  15.760  0.00  0.00    +0.000 C 
ATOM      2  C   UNL     1       6.214   5.571  16.499  0.00  0.00    +0.000 C 
ATOM      3  S   UNL     1       5.164   6.805  17.296  0.00  0.00    +0.000 S 
ATOM      4  C   UNL     1       4.051   5.771  18.119  0.00  0.00    +0.000 A 
ATOM      5  N   UNL     1       3.343   6.133  19.159  0.00  0.00    +0.000 NA
ATOM      6  C   UNL     1       2.559   5.048  19.451  0.00  0.00    +0.000 A 
ATOM      7  C   UNL     1       1.609   4.889  20.469  0.00  0.00    +0.000 A 
ATOM      8  C   UNL     1       0.899   3.686  20.547  0.00  0.00    +0.000 A 
ATOM      9  C   UNL     1       1.139   2.657  19.635  0.00  0.00    +0.000 A 
ATOM     10  C   UNL     1       2.100   2.786  18.624  0.00  0.00    +0.000 A 
ATOM     11  C   UNL     1       2.792   4.003  18.558  0.00  0.00    +0.000 A 
ATOM     12  N   UNL     1       3.779   4.489  17.726  0.00  0.00    +0.000 N 
ATOM     13  C   UNL     1       4.432   3.732  16.681  0.00  0.00    +0.000 C 
ENDROOT
BRANCH   1  14
ATOM     14  O   UNL     1       6.182   3.660  14.929  0.00  0.00    +0.000 OA
BRANCH  14  15
ATOM     15  C   UNL     1       6.249   3.930  13.598  0.00  0.00    +0.000 C 
ATOM     16  O   UNL     1       5.463   3.500  12.766  0.00  0.00    +0.000 OA
BRANCH  15  18
ATOM     17  C   UNL     1       7.544   5.049  11.794  0.00  0.00    +0.000 C 
ATOM     18  C   UNL     1       7.411   4.837  13.295  0.00  0.00    +0.000 C 
ENDBRANCH  15  18
ENDBRANCH  14  15
ENDBRANCH   1  14
TORSDOF 3
ENDMDL
