MODEL 1
REMARK VINA RESULT:      -7.9      0.000      0.000
REMARK  Name = 
REMARK  4 active torsions:
REMARK  status: ('A' for Active; 'I' for Inactive)
REMARK    1  A    between atoms: C_1  and  O_2
REMARK    2  A    between atoms: O_2  and  C_3
REMARK    3  A    between atoms: C_6  and  C_7
REMARK    4  A    between atoms: C_9  and  N_10
REMARK                            x       y       z     vdW  Elec       q    Type
REMARK                         _______ _______ _______ _____ _____    ______ ____
ROOT
ATOM      1  C   UNL     1       0.819   9.270  18.508  0.00  0.00    +0.000 A 
ATOM      2  C   UNL     1       1.738   9.024  17.450  0.00  0.00    +0.000 A 
ATOM      3  C   UNL     1       2.756   8.307  18.025  0.00  0.00    +0.000 A 
ATOM      4  O   UNL     1       2.456   8.106  19.340  0.00  0.00    +0.000 OA
ATOM      5  N   UNL     1       1.244   8.698  19.643  0.00  0.00    +0.000 NA
ENDROOT
BRANCH   3   6
ATOM      6  N   UNL     1       3.888   7.762  17.522  0.00  0.00    +0.000 N 
ATOM      7  C   UNL     1       4.047   6.362  17.432  0.00  0.00    +0.000 A 
ATOM      8  C   UNL     1       4.857   5.838  16.453  0.00  0.00    +0.000 A 
ATOM      9  C   UNL     1       4.903   4.468  16.390  0.00  0.00    +0.000 A 
ATOM     10  N   UNL     1       4.233   3.659  17.231  0.00  0.00    +0.000 NA
ATOM     11  C   UNL     1       3.480   4.243  18.175  0.00  0.00    +0.000 A 
ATOM     12  N   UNL     1       2.766   3.467  19.068  0.00  0.00    +0.000 N 
ATOM     13  C   UNL     1       2.359   2.128  18.659  0.00  0.00    +0.000 C 
ATOM     14  C   UNL     1       0.859   2.094  18.949  0.00  0.00    +0.000 C 
ATOM     15  C   UNL     1       0.709   3.037  20.131  0.00  0.00    +0.000 C 
ATOM     16  C   UNL     1       1.700   4.148  19.803  0.00  0.00    +0.000 C 
ATOM     17  N   UNL     1       3.397   5.574  18.299  0.00  0.00    +0.000 NA
ATOM     18  H   UNL     1       4.775   8.205  17.733  0.00  0.00    +0.000 HD
ENDBRANCH   3   6
BRANCH   1  22
ATOM     19  C   UNL     1      -2.854  11.459  18.366  0.00  0.00    +0.000 A 
ATOM     20  C   UNL     1      -2.574  10.486  17.404  0.00  0.00    +0.000 A 
ATOM     21  C   UNL     1      -1.379   9.761  17.452  0.00  0.00    +0.000 A 
ATOM     22  C   UNL     1      -0.434  10.021  18.452  0.00  0.00    +0.000 A 
ATOM     23  C   UNL     1      -0.711  11.014  19.404  0.00  0.00    +0.000 A 
ATOM     24  C   UNL     1      -1.912  11.729  19.358  0.00  0.00    +0.000 A 
BRANCH  19  26
ATOM     25  C   UNL     1      -4.945  11.512  17.279  0.00  0.00    +0.000 C 
ATOM     26  O   UNL     1      -4.049  12.102  18.217  0.00  0.00    +0.000 OA
ENDBRANCH  19  26
ENDBRANCH   1  22
TORSDOF 3
ENDMDL
MODEL 2
REMARK VINA RESULT:      -7.8      3.331      8.644
REMARK  Name = 
REMARK  4 active torsions:
REMARK  status: ('A' for Active; 'I' for Inactive)
REMARK    1  A    between atoms: C_1  and  O_2
REMARK    2  A    between atoms: O_2  and  C_3
REMARK    3  A    between atoms: C_6  and  C_7
REMARK    4  A    between atoms: C_9  and  N_10
REMARK                            x       y       z     vdW  Elec       q    Type
REMARK                         _______ _______ _______ _____ _____    ______ ____
ROOT
ATOM      1  C   UNL     1       2.831   6.913  18.619  0.00  0.00    +0.000 A 
ATOM      2  C   UNL     1       2.596   6.669  20.000  0.00  0.00    +0.000 A 
ATOM      3  C   UNL     1       1.839   7.732  20.424  0.00  0.00    +0.000 A 
ATOM      4  O   UNL     1       1.605   8.549  19.358  0.00  0.00    +0.000 OA
ATOM      5  N   UNL     1       2.215   8.038  18.228  0.00  0.00    +0.000 NA
ENDROOT
BRANCH   3   6
ATOM      6  N   UNL     1       1.284   8.039  21.619  0.00  0.00    +0.000 N 
ATOM      7  C   UNL     1       0.653   9.285  21.832  0.00  0.00    +0.000 A 
ATOM      8  C   UNL     1      -0.360   9.376  22.756  0.00  0.00    +0.000 A 
ATOM      9  C   UNL     1      -0.967  10.603  22.853  0.00  0.00    +0.000 A 
ATOM     10  N   UNL     1      -0.604  11.676  22.126  0.00  0.00    +0.000 NA
ATOM     11  C   UNL     1       0.408  11.515  21.260  0.00  0.00    +0.000 A 
ATOM     12  N   UNL     1       0.828  12.578  20.483  0.00  0.00    +0.000 N 
ATOM     13  C   UNL     1      -0.129  13.631  20.165  0.00  0.00    +0.000 C 
ATOM     14  C   UNL     1      -0.042  13.761  18.645  0.00  0.00    +0.000 C 
ATOM     15  C   UNL     1       1.397  13.377  18.342  0.00  0.00    +0.000 C 
ATOM     16  C   UNL     1       1.656  12.241  19.325  0.00  0.00    +0.000 C 
ATOM     17  N   UNL     1       1.051  10.349  21.122  0.00  0.00    +0.000 NA
ATOM     18  H   UNL     1       1.751   7.731  22.464  0.00  0.00    +0.000 HD
ENDBRANCH   3   6
BRANCH   1  22
ATOM     19  C   UNL     1       5.127   4.538  15.901  0.00  0.00    +0.000 A 
ATOM     20  C   UNL     1       5.259   5.928  15.909  0.00  0.00    +0.000 A 
ATOM     21  C   UNL     1       4.518   6.708  16.802  0.00  0.00    +0.000 A 
ATOM     22  C   UNL     1       3.612   6.105  17.684  0.00  0.00    +0.000 A 
ATOM     23  C   UNL     1       3.468   4.709  17.658  0.00  0.00    +0.000 A 
ATOM     24  C   UNL     1       4.220   3.933  16.770  0.00  0.00    +0.000 A 
BRANCH  19  26
ATOM     25  C   UNL     1       6.834   4.697  14.283  0.00  0.00    +0.000 C 
ATOM     26  O   UNL     1       5.900   3.882  14.986  0.00  0.00    +0.000 OA
ENDBRANCH  19  26
ENDBRANCH   1  22
TORSDOF 3
ENDMDL
MODEL 3
REMARK VINA RESULT:      -7.7      2.312      2.732
REMARK  Name = 
REMARK  4 active torsions:
REMARK  status: ('A' for Active; 'I' for Inactive)
REMARK    1  A    between atoms: C_1  and  O_2
REMARK    2  A    between atoms: O_2  and  C_3
REMARK    3  A    between atoms: C_6  and  C_7
REMARK    4  A    between atoms: C_9  and  N_10
REMARK                            x       y       z     vdW  Elec       q    Type
REMARK                         _______ _______ _______ _____ _____    ______ ____
ROOT
ATOM      1  C   UNL     1       1.472   9.098  19.143  0.00  0.00    +0.000 A 
ATOM      2  C   UNL     1       2.580   8.206  19.156  0.00  0.00    +0.000 A 
ATOM      3  C   UNL     1       2.958   8.090  17.842  0.00  0.00    +0.000 A 
ATOM      4  O   UNL     1       2.149   8.888  17.087  0.00  0.00    +0.000 OA
ATOM      5  N   UNL     1       1.226   9.524  17.896  0.00  0.00    +0.000 NA
ENDROOT
BRANCH   3   6
ATOM      6  N   UNL     1       3.961   7.414  17.236  0.00  0.00    +0.000 N 
ATOM      7  C   UNL     1       4.118   6.022  17.418  0.00  0.00    +0.000 A 
ATOM      8  C   UNL     1       4.703   5.275  16.423  0.00  0.00    +0.000 A 
ATOM      9  C   UNL     1       4.755   3.923  16.649  0.00  0.00    +0.000 A 
ATOM     10  N   UNL     1       4.297   3.334  17.769  0.00  0.00    +0.000 NA
ATOM     11  C   UNL     1       3.759   4.131  18.705  0.00  0.00    +0.000 A 
ATOM     12  N   UNL     1       3.269   3.587  19.877  0.00  0.00    +0.000 N 
ATOM     13  C   UNL     1       2.803   2.206  19.865  0.00  0.00    +0.000 C 
ATOM     14  C   UNL     1       1.404   2.283  20.473  0.00  0.00    +0.000 C 
ATOM     15  C   UNL     1       1.501   3.461  21.427  0.00  0.00    +0.000 C 
ATOM     16  C   UNL     1       2.379   4.444  20.661  0.00  0.00    +0.000 C 
ATOM     17  N   UNL     1       3.685   5.459  18.554  0.00  0.00    +0.000 NA
ATOM     18  H   UNL     1       4.865   7.862  17.149  0.00  0.00    +0.000 HD
ENDBRANCH   3   6
BRANCH   1  22
ATOM     19  C   UNL     1      -0.901  10.387  22.459  0.00  0.00    +0.000 A 
ATOM     20  C   UNL     1      -0.898  11.116  21.268  0.00  0.00    +0.000 A 
ATOM     21  C   UNL     1      -0.132  10.693  20.177  0.00  0.00    +0.000 A 
ATOM     22  C   UNL     1       0.666   9.545  20.276  0.00  0.00    +0.000 A 
ATOM     23  C   UNL     1       0.675   8.829  21.483  0.00  0.00    +0.000 A 
ATOM     24  C   UNL     1      -0.102   9.250  22.566  0.00  0.00    +0.000 A 
BRANCH  19  26
ATOM     25  C   UNL     1      -2.374  12.102  23.130  0.00  0.00    +0.000 C 
ATOM     26  O   UNL     1      -1.687  10.897  23.454  0.00  0.00    +0.000 OA
ENDBRANCH  19  26
ENDBRANCH   1  22
TORSDOF 3
ENDMDL
MODEL 4
REMARK VINA RESULT:      -7.7      0.583      1.180
REMARK  Name = 
REMARK  4 active torsions:
REMARK  status: ('A' for Active; 'I' for Inactive)
REMARK    1  A    between atoms: C_1  and  O_2
REMARK    2  A    between atoms: O_2  and  C_3
REMARK    3  A    between atoms: C_6  and  C_7
REMARK    4  A    between atoms: C_9  and  N_10
REMARK                            x       y       z     vdW  Elec       q    Type
REMARK                         _______ _______ _______ _____ _____    ______ ____
ROOT
ATOM      1  C   UNL     1       0.796   9.363  18.683  0.00  0.00    +0.000 A 
ATOM      2  C   UNL     1       1.702   9.186  17.600  0.00  0.00    +0.000 A 
ATOM      3  C   UNL     1       2.723   8.427  18.111  0.00  0.00    +0.000 A 
ATOM      4  O   UNL     1       2.437   8.136  19.413  0.00  0.00    +0.000 OA
ATOM      5  N   UNL     1       1.232   8.712  19.770  0.00  0.00    +0.000 NA
ENDROOT
BRANCH   3   6
ATOM      6  N   UNL     1       3.846   7.913  17.558  0.00  0.00    +0.000 N 
ATOM      7  C   UNL     1       4.018   6.519  17.417  0.00  0.00    +0.000 A 
ATOM      8  C   UNL     1       4.806   6.038  16.398  0.00  0.00    +0.000 A 
ATOM      9  C   UNL     1       4.865   4.672  16.288  0.00  0.00    +0.000 A 
ATOM     10  N   UNL     1       4.229   3.826  17.120  0.00  0.00    +0.000 NA
ATOM     11  C   UNL     1       3.497   4.370  18.104  0.00  0.00    +0.000 A 
ATOM     12  N   UNL     1       2.819   3.556  18.991  0.00  0.00    +0.000 N 
ATOM     13  C   UNL     1       2.415   2.226  18.549  0.00  0.00    +0.000 C 
ATOM     14  C   UNL     1       0.925   2.164  18.881  0.00  0.00    +0.000 C 
ATOM     15  C   UNL     1       0.799   3.065  20.097  0.00  0.00    +0.000 C 
ATOM     16  C   UNL     1       1.767   4.198  19.779  0.00  0.00    +0.000 C 
ATOM     17  N   UNL     1       3.403   5.694  18.275  0.00  0.00    +0.000 NA
ATOM     18  H   UNL     1       4.733   8.360  17.758  0.00  0.00    +0.000 HD
ENDBRANCH   3   6
BRANCH   1  22
ATOM     19  C   UNL     1      -2.853  11.595  18.699  0.00  0.00    +0.000 A 
ATOM     20  C   UNL     1      -1.945  11.718  19.753  0.00  0.00    +0.000 A 
ATOM     21  C   UNL     1      -0.746  10.999  19.747  0.00  0.00    +0.000 A 
ATOM     22  C   UNL     1      -0.452  10.122  18.695  0.00  0.00    +0.000 A 
ATOM     23  C   UNL     1      -1.378   9.985  17.649  0.00  0.00    +0.000 A 
ATOM     24  C   UNL     1      -2.570  10.716  17.654  0.00  0.00    +0.000 A 
BRANCH  19  26
ATOM     25  C   UNL     1      -4.298  12.781  20.135  0.00  0.00    +0.000 C 
ATOM     26  O   UNL     1      -3.988  12.345  18.814  0.00  0.00    +0.000 OA
ENDBRANCH  19  26
ENDBRANCH   1  22
TORSDOF 3
ENDMDL
MODEL 5
REMARK VINA RESULT:      -7.7      3.338      8.616
REMARK  Name = 
REMARK  4 active torsions:
REMARK  status: ('A' for Active; 'I' for Inactive)
REMARK    1  A    between atoms: C_1  and  O_2
REMARK    2  A    between atoms: O_2  and  C_3
REMARK    3  A    between atoms: C_6  and  C_7
REMARK    4  A    between atoms: C_9  and  N_10
REMARK                            x       y       z     vdW  Elec       q    Type
REMARK                         _______ _______ _______ _____ _____    ______ ____
ROOT
ATOM      1  C   UNL     1       2.863   6.888  18.619  0.00  0.00    +0.000 A 
ATOM      2  C   UNL     1       2.655   6.675  20.010  0.00  0.00    +0.000 A 
ATOM      3  C   UNL     1       1.837   7.701  20.409  0.00  0.00    +0.000 A 
ATOM      4  O   UNL     1       1.543   8.467  19.320  0.00  0.00    +0.000 OA
ATOM      5  N   UNL     1       2.174   7.959  18.200  0.00  0.00    +0.000 NA
ENDROOT
BRANCH   3   6
ATOM      6  N   UNL     1       1.274   8.011  21.599  0.00  0.00    +0.000 N 
ATOM      7  C   UNL     1       0.651   9.261  21.809  0.00  0.00    +0.000 A 
ATOM      8  C   UNL     1      -0.369   9.359  22.724  0.00  0.00    +0.000 A 
ATOM      9  C   UNL     1      -0.968  10.590  22.817  0.00  0.00    +0.000 A 
ATOM     10  N   UNL     1      -0.590  11.661  22.094  0.00  0.00    +0.000 NA
ATOM     11  C   UNL     1       0.428  11.494  21.237  0.00  0.00    +0.000 A 
ATOM     12  N   UNL     1       0.862  12.554  20.464  0.00  0.00    +0.000 N 
ATOM     13  C   UNL     1      -0.085  13.614  20.139  0.00  0.00    +0.000 C 
ATOM     14  C   UNL     1       0.016  13.745  18.620  0.00  0.00    +0.000 C 
ATOM     15  C   UNL     1       1.454  13.351  18.329  0.00  0.00    +0.000 C 
ATOM     16  C   UNL     1       1.697  12.212  19.313  0.00  0.00    +0.000 C 
ATOM     17  N   UNL     1       1.063  10.323  21.102  0.00  0.00    +0.000 NA
ATOM     18  H   UNL     1       1.732   7.699  22.448  0.00  0.00    +0.000 HD
ENDBRANCH   3   6
BRANCH   1  22
ATOM     19  C   UNL     1       5.257   4.593  15.918  0.00  0.00    +0.000 A 
ATOM     20  C   UNL     1       4.338   3.961  16.758  0.00  0.00    +0.000 A 
ATOM     21  C   UNL     1       3.546   4.708  17.636  0.00  0.00    +0.000 A 
ATOM     22  C   UNL     1       3.684   6.100  17.703  0.00  0.00    +0.000 A 
ATOM     23  C   UNL     1       4.624   6.728  16.871  0.00  0.00    +0.000 A 
ATOM     24  C   UNL     1       5.405   5.978  15.987  0.00  0.00    +0.000 A 
BRANCH  19  26
ATOM     25  C   UNL     1       5.809   3.987  13.708  0.00  0.00    +0.000 C 
ATOM     26  O   UNL     1       5.974   3.762  15.105  0.00  0.00    +0.000 OA
ENDBRANCH  19  26
ENDBRANCH   1  22
TORSDOF 3
ENDMDL
MODEL 6
REMARK VINA RESULT:      -7.5      4.131      9.192
REMARK  Name = 
REMARK  4 active torsions:
REMARK  status: ('A' for Active; 'I' for Inactive)
REMARK    1  A    between atoms: C_1  and  O_2
REMARK    2  A    between atoms: O_2  and  C_3
REMARK    3  A    between atoms: C_6  and  C_7
REMARK    4  A    between atoms: C_9  and  N_10
REMARK                            x       y       z     vdW  Elec       q    Type
REMARK                         _______ _______ _______ _____ _____    ______ ____
ROOT
ATOM      1  C   UNL     1       1.139   8.429  21.446  0.00  0.00    +0.000 A 
ATOM      2  C   UNL     1      -0.216   8.818  21.636  0.00  0.00    +0.000 A 
ATOM      3  C   UNL     1      -0.201   9.634  22.738  0.00  0.00    +0.000 A 
ATOM      4  O   UNL     1       1.088   9.756  23.168  0.00  0.00    +0.000 OA
ATOM      5  N   UNL     1       1.927   9.012  22.360  0.00  0.00    +0.000 NA
ENDROOT
BRANCH   3   6
ATOM      6  N   UNL     1      -1.172  10.328  23.375  0.00  0.00    +0.000 N 
ATOM      7  C   UNL     1      -1.491  11.652  23.000  0.00  0.00    +0.000 A 
ATOM      8  C   UNL     1      -2.766  12.120  23.206  0.00  0.00    +0.000 A 
ATOM      9  C   UNL     1      -3.012  13.391  22.750  0.00  0.00    +0.000 A 
ATOM     10  N   UNL     1      -2.084  14.166  22.160  0.00  0.00    +0.000 NA
ATOM     11  C   UNL     1      -0.855  13.648  22.014  0.00  0.00    +0.000 A 
ATOM     12  N   UNL     1       0.143  14.393  21.414  0.00  0.00    +0.000 N 
ATOM     13  C   UNL     1      -0.237  15.426  20.458  0.00  0.00    +0.000 C 
ATOM     14  C   UNL     1       0.612  15.117  19.225  0.00  0.00    +0.000 C 
ATOM     15  C   UNL     1       1.866  14.489  19.812  0.00  0.00    +0.000 C 
ATOM     16  C   UNL     1       1.316  13.648  20.958  0.00  0.00    +0.000 C 
ATOM     17  N   UNL     1      -0.543  12.419  22.443  0.00  0.00    +0.000 NA
ATOM     18  H   UNL     1      -1.273  10.211  24.377  0.00  0.00    +0.000 HD
ENDBRANCH   3   6
BRANCH   1  22
ATOM     19  C   UNL     1       2.747   5.805  18.476  0.00  0.00    +0.000 A 
ATOM     20  C   UNL     1       2.603   7.168  18.210  0.00  0.00    +0.000 A 
ATOM     21  C   UNL     1       2.087   8.031  19.182  0.00  0.00    +0.000 A 
ATOM     22  C   UNL     1       1.682   7.534  20.427  0.00  0.00    +0.000 A 
ATOM     23  C   UNL     1       1.810   6.160  20.681  0.00  0.00    +0.000 A 
ATOM     24  C   UNL     1       2.337   5.303  19.710  0.00  0.00    +0.000 A 
BRANCH  19  26
ATOM     25  C   UNL     1       2.841   3.699  17.420  0.00  0.00    +0.000 C 
ATOM     26  O   UNL     1       3.261   5.060  17.453  0.00  0.00    +0.000 OA
ENDBRANCH  19  26
ENDBRANCH   1  22
TORSDOF 3
ENDMDL
MODEL 7
REMARK VINA RESULT:      -7.5      2.671      8.445
REMARK  Name = 
REMARK  4 active torsions:
REMARK  status: ('A' for Active; 'I' for Inactive)
REMARK    1  A    between atoms: C_1  and  O_2
REMARK    2  A    between atoms: O_2  and  C_3
REMARK    3  A    between atoms: C_6  and  C_7
REMARK    4  A    between atoms: C_9  and  N_10
REMARK                            x       y       z     vdW  Elec       q    Type
REMARK                         _______ _______ _______ _____ _____    ______ ____
ROOT
ATOM      1  C   UNL     1       1.806   7.569  20.008  0.00  0.00    +0.000 A 
ATOM      2  C   UNL     1       1.310   8.256  21.151  0.00  0.00    +0.000 A 
ATOM      3  C   UNL     1       1.128   9.550  20.736  0.00  0.00    +0.000 A 
ATOM      4  O   UNL     1       1.463   9.633  19.416  0.00  0.00    +0.000 OA
ATOM      5  N   UNL     1       1.879   8.397  18.957  0.00  0.00    +0.000 NA
ENDROOT
BRANCH   3   6
ATOM      6  N   UNL     1       0.650  10.652  21.360  0.00  0.00    +0.000 N 
ATOM      7  C   UNL     1      -0.540  11.278  20.929  0.00  0.00    +0.000 A 
ATOM      8  C   UNL     1      -1.303  11.971  21.838  0.00  0.00    +0.000 A 
ATOM      9  C   UNL     1      -2.477  12.489  21.354  0.00  0.00    +0.000 A 
ATOM     10  N   UNL     1      -2.876  12.370  20.074  0.00  0.00    +0.000 NA
ATOM     11  C   UNL     1      -2.068  11.699  19.240  0.00  0.00    +0.000 A 
ATOM     12  N   UNL     1      -2.421  11.539  17.914  0.00  0.00    +0.000 N 
ATOM     13  C   UNL     1      -3.836  11.557  17.561  0.00  0.00    +0.000 C 
ATOM     14  C   UNL     1      -4.029  10.281  16.744  0.00  0.00    +0.000 C 
ATOM     15  C   UNL     1      -2.675  10.081  16.082  0.00  0.00    +0.000 C 
ATOM     16  C   UNL     1      -1.701  10.502  17.176  0.00  0.00    +0.000 C 
ATOM     17  N   UNL     1      -0.903  11.175  19.643  0.00  0.00    +0.000 NA
ATOM     18  H   UNL     1       1.311  11.344  21.695  0.00  0.00    +0.000 HD
ENDBRANCH   3   6
BRANCH   1  22
ATOM     19  C   UNL     1       2.965   3.461  19.724  0.00  0.00    +0.000 A 
ATOM     20  C   UNL     1       3.447   4.396  18.805  0.00  0.00    +0.000 A 
ATOM     21  C   UNL     1       3.079   5.742  18.900  0.00  0.00    +0.000 A 
ATOM     22  C   UNL     1       2.199   6.165  19.904  0.00  0.00    +0.000 A 
ATOM     23  C   UNL     1       1.701   5.218  20.812  0.00  0.00    +0.000 A 
ATOM     24  C   UNL     1       2.081   3.876  20.720  0.00  0.00    +0.000 A 
BRANCH  19  26
ATOM     25  C   UNL     1       3.451   1.754  18.173  0.00  0.00    +0.000 C 
ATOM     26  O   UNL     1       3.392   2.179  19.532  0.00  0.00    +0.000 OA
ENDBRANCH  19  26
ENDBRANCH   1  22
TORSDOF 3
ENDMDL
MODEL 8
REMARK VINA RESULT:      -7.4      4.129      9.426
REMARK  Name = 
REMARK  4 active torsions:
REMARK  status: ('A' for Active; 'I' for Inactive)
REMARK    1  A    between atoms: C_1  and  O_2
REMARK    2  A    between atoms: O_2  and  C_3
REMARK    3  A    between atoms: C_6  and  C_7
REMARK    4  A    between atoms: C_9  and  N_10
REMARK                            x       y       z     vdW  Elec       q    Type
REMARK                         _______ _______ _______ _____ _____    ______ ____
ROOT
ATOM      1  C   UNL     1       0.303  10.725  20.779  0.00  0.00    +0.000 A 
ATOM      2  C   UNL     1      -0.479  10.681  21.966  0.00  0.00    +0.000 A 
ATOM      3  C   UNL     1      -0.857  11.980  22.192  0.00  0.00    +0.000 A 
ATOM      4  O   UNL     1      -0.361  12.756  21.186  0.00  0.00    +0.000 OA
ATOM      5  N   UNL     1       0.357  11.976  20.299  0.00  0.00    +0.000 NA
ENDROOT
BRANCH   3   6
ATOM      6  N   UNL     1      -1.630  12.555  23.142  0.00  0.00    +0.000 N 
ATOM      7  C   UNL     1      -3.035  12.609  23.007  0.00  0.00    +0.000 A 
ATOM      8  C   UNL     1      -3.818  12.638  24.136  0.00  0.00    +0.000 A 
ATOM      9  C   UNL     1      -5.173  12.620  23.919  0.00  0.00    +0.000 A 
ATOM     10  N   UNL     1      -5.733  12.601  22.695  0.00  0.00    +0.000 NA
ATOM     11  C   UNL     1      -4.904  12.596  21.641  0.00  0.00    +0.000 A 
ATOM     12  N   UNL     1      -5.417  12.574  20.358  0.00  0.00    +0.000 N 
ATOM     13  C   UNL     1      -6.734  11.987  20.142  0.00  0.00    +0.000 C 
ATOM     14  C   UNL     1      -6.509  10.983  19.012  0.00  0.00    +0.000 C 
ATOM     15  C   UNL     1      -5.376  11.604  18.213  0.00  0.00    +0.000 C 
ATOM     16  C   UNL     1      -4.483  12.195  19.298  0.00  0.00    +0.000 C 
ATOM     17  N   UNL     1      -3.573  12.622  21.780  0.00  0.00    +0.000 NA
ATOM     18  H   UNL     1      -1.288  13.389  23.606  0.00  0.00    +0.000 HD
ENDBRANCH   3   6
BRANCH   1  22
ATOM     19  C   UNL     1       2.266   7.482  18.799  0.00  0.00    +0.000 A 
ATOM     20  C   UNL     1       1.989   7.410  20.166  0.00  0.00    +0.000 A 
ATOM     21  C   UNL     1       1.338   8.464  20.816  0.00  0.00    +0.000 A 
ATOM     22  C   UNL     1       0.980   9.619  20.107  0.00  0.00    +0.000 A 
ATOM     23  C   UNL     1       1.281   9.694  18.739  0.00  0.00    +0.000 A 
ATOM     24  C   UNL     1       1.922   8.632  18.092  0.00  0.00    +0.000 A 
BRANCH  19  26
ATOM     25  C   UNL     1       3.634   5.606  19.212  0.00  0.00    +0.000 C 
ATOM     26  O   UNL     1       2.905   6.395  18.275  0.00  0.00    +0.000 OA
ENDBRANCH  19  26
ENDBRANCH   1  22
TORSDOF 3
ENDMDL
MODEL 9
REMARK VINA RESULT:      -7.3      3.506      8.392
REMARK  Name = 
REMARK  4 active torsions:
REMARK  status: ('A' for Active; 'I' for Inactive)
REMARK    1  A    between atoms: C_1  and  O_2
REMARK    2  A    between atoms: O_2  and  C_3
REMARK    3  A    between atoms: C_6  and  C_7
REMARK    4  A    between atoms: C_9  and  N_10
REMARK                            x       y       z     vdW  Elec       q    Type
REMARK                         _______ _______ _______ _____ _____    ______ ____
ROOT
ATOM      1  C   UNL     1       1.092   8.810  21.224  0.00  0.00    +0.000 A 
ATOM      2  C   UNL     1       0.167   9.844  20.908  0.00  0.00    +0.000 A 
ATOM      3  C   UNL     1      -0.042  10.508  22.090  0.00  0.00    +0.000 A 
ATOM      4  O   UNL     1       0.733   9.931  23.053  0.00  0.00    +0.000 OA
ATOM      5  N   UNL     1       1.448   8.877  22.515  0.00  0.00    +0.000 NA
ENDROOT
BRANCH   3   6
ATOM      6  N   UNL     1      -0.786  11.591  22.410  0.00  0.00    +0.000 N 
ATOM      7  C   UNL     1      -1.844  12.022  21.580  0.00  0.00    +0.000 A 
ATOM      8  C   UNL     1      -2.907  12.690  22.138  0.00  0.00    +0.000 A 
ATOM      9  C   UNL     1      -3.925  13.013  21.275  0.00  0.00    +0.000 A 
ATOM     10  N   UNL     1      -3.905  12.733  19.959  0.00  0.00    +0.000 NA
ATOM     11  C   UNL     1      -2.823  12.099  19.483  0.00  0.00    +0.000 A 
ATOM     12  N   UNL     1      -2.743  11.781  18.141  0.00  0.00    +0.000 N 
ATOM     13  C   UNL     1      -3.980  11.590  17.393  0.00  0.00    +0.000 C 
ATOM     14  C   UNL     1      -3.796  10.233  16.715  0.00  0.00    +0.000 C 
ATOM     15  C   UNL     1      -2.293  10.148  16.504  0.00  0.00    +0.000 C 
ATOM     16  C   UNL     1      -1.739  10.782  17.774  0.00  0.00    +0.000 C 
ATOM     17  N   UNL     1      -1.791  11.762  20.266  0.00  0.00    +0.000 NA
ATOM     18  H   UNL     1      -0.326  12.387  22.837  0.00  0.00    +0.000 HD
ENDBRANCH   3   6
BRANCH   1  22
ATOM     19  C   UNL     1       2.697   5.810  18.632  0.00  0.00    +0.000 A 
ATOM     20  C   UNL     1       2.591   7.133  18.200  0.00  0.00    +0.000 A 
ATOM     21  C   UNL     1       2.077   8.120  19.047  0.00  0.00    +0.000 A 
ATOM     22  C   UNL     1       1.634   7.786  20.334  0.00  0.00    +0.000 A 
ATOM     23  C   UNL     1       1.723   6.451  20.756  0.00  0.00    +0.000 A 
ATOM     24  C   UNL     1       2.249   5.471  19.908  0.00  0.00    +0.000 A 
BRANCH  19  26
ATOM     25  C   UNL     1       2.453   3.747  17.517  0.00  0.00    +0.000 C 
ATOM     26  O   UNL     1       3.213   4.936  17.719  0.00  0.00    +0.000 OA
ENDBRANCH  19  26
ENDBRANCH   1  22
TORSDOF 3
ENDMDL
