MODEL 1
REMARK VINA RESULT:      -8.1      0.000      0.000
REMARK  Name = 
REMARK  7 active torsions:
REMARK  status: ('A' for Active; 'I' for Inactive)
REMARK    1  A    between atoms: C_1  and  N_2
REMARK    2  A    between atoms: N_2  and  C_3
REMARK    3  A    between atoms: N_2  and  C_4
REMARK    4  A    between atoms: C_4  and  C_5
REMARK    5  A    between atoms: C_5  and  N_6
REMARK    6  A    between atoms: N_6  and  C_7
REMARK    7  A    between atoms: C_11  and  O_12
REMARK                            x       y       z     vdW  Elec       q    Type
REMARK                         _______ _______ _______ _____ _____    ______ ____
ROOT
ATOM      1  C   UNL     1       3.613   6.374  17.922  0.00  0.00    +0.000 A 
ATOM      2  N   UNL     1       4.030   5.220  18.454  0.00  0.00    +0.000 NA
ATOM      3  C   UNL     1       3.316   4.677  19.439  0.00  0.00    +0.000 A 
ATOM      4  C   UNL     1       3.692   3.402  19.739  0.00  0.00    +0.000 A 
ATOM      5  C   UNL     1       2.625   2.545  19.795  0.00  0.00    +0.000 A 
ATOM      6  C   UNL     1       1.457   2.951  20.422  0.00  0.00    +0.000 A 
ATOM      7  C   UNL     1       1.280   4.323  20.674  0.00  0.00    +0.000 A 
ATOM      8  C   UNL     1       2.164   5.231  20.033  0.00  0.00    +0.000 A 
ATOM      9  C   UNL     1       1.987   6.593  19.742  0.00  0.00    +0.000 A 
ATOM     10  C   UNL     1       2.674   7.096  18.620  0.00  0.00    +0.000 A 
ATOM     11  C   UNL     1       2.285   8.502  18.416  0.00  0.00    +0.000 C 
ATOM     12  O   UNL     1       2.580   9.240  17.519  0.00  0.00    +0.000 OA
ATOM     13  C   UNL     1       1.454   8.858  19.568  0.00  0.00    +0.000 A 
ATOM     14  C   UNL     1       1.073  10.139  19.914  0.00  0.00    +0.000 A 
ATOM     15  C   UNL     1       0.407  10.286  21.121  0.00  0.00    +0.000 A 
ATOM     16  C   UNL     1       0.135   9.153  21.916  0.00  0.00    +0.000 A 
ATOM     17  C   UNL     1       0.547   7.855  21.533  0.00  0.00    +0.000 A 
ATOM     18  C   UNL     1       1.233   7.704  20.336  0.00  0.00    +0.000 A 
ENDROOT
BRANCH   1  19
ATOM     19  N   UNL     1       4.149   6.789  16.711  0.00  0.00    +0.000 N 
ATOM     20  H   UNL     1       3.469   6.661  15.965  0.00  0.00    +0.000 HD
BRANCH  19  21
ATOM     21  C   UNL     1       5.458   6.232  16.358  0.00  0.00    +0.000 C 
BRANCH  21  22
ATOM     22  C   UNL     1       6.658   6.840  17.125  0.00  0.00    +0.000 C 
BRANCH  22  24
ATOM     23  C   UNL     1       7.597   5.828  19.136  0.00  0.00    +0.000 C 
ATOM     24  N   UNL     1       7.654   5.886  17.673  0.00  0.00    +0.000 NA
ATOM     25  C   UNL     1       7.392   4.547  17.127  0.00  0.00    +0.000 C 
ENDBRANCH  22  24
ENDBRANCH  21  22
ENDBRANCH  19  21
ENDBRANCH   1  19
BRANCH   5  26
ATOM     26  O   UNL     1       2.571   1.544  18.859  0.00  0.00    +0.000 OA
ATOM     27  H   UNL     1       1.685   1.132  18.968  0.00  0.00    +0.000 HD
ENDBRANCH   5  26
TORSDOF 5
ENDMDL
MODEL 2
REMARK VINA RESULT:      -7.7      1.022      1.320
REMARK  Name = 
REMARK  7 active torsions:
REMARK  status: ('A' for Active; 'I' for Inactive)
REMARK    1  A    between atoms: C_1  and  N_2
REMARK    2  A    between atoms: N_2  and  C_3
REMARK    3  A    between atoms: N_2  and  C_4
REMARK    4  A    between atoms: C_4  and  C_5
REMARK    5  A    between atoms: C_5  and  N_6
REMARK    6  A    between atoms: N_6  and  C_7
REMARK    7  A    between atoms: C_11  and  O_12
REMARK                            x       y       z     vdW  Elec       q    Type
REMARK                         _______ _______ _______ _____ _____    ______ ____
ROOT
ATOM      1  C   UNL     1       3.687   6.268  18.029  0.00  0.00    +0.000 A 
ATOM      2  N   UNL     1       4.048   5.110  18.592  0.00  0.00    +0.000 NA
ATOM      3  C   UNL     1       3.266   4.589  19.537  0.00  0.00    +0.000 A 
ATOM      4  C   UNL     1       3.597   3.310  19.868  0.00  0.00    +0.000 A 
ATOM      5  C   UNL     1       2.511   2.475  19.867  0.00  0.00    +0.000 A 
ATOM      6  C   UNL     1       1.316   2.910  20.421  0.00  0.00    +0.000 A 
ATOM      7  C   UNL     1       1.153   4.287  20.652  0.00  0.00    +0.000 A 
ATOM      8  C   UNL     1       2.092   5.172  20.058  0.00  0.00    +0.000 A 
ATOM      9  C   UNL     1       1.961   6.535  19.747  0.00  0.00    +0.000 A 
ATOM     10  C   UNL     1       2.723   7.014  18.665  0.00  0.00    +0.000 A 
ATOM     11  C   UNL     1       2.376   8.426  18.427  0.00  0.00    +0.000 C 
ATOM     12  O   UNL     1       2.738   9.151  17.544  0.00  0.00    +0.000 OA
ATOM     13  C   UNL     1       1.486   8.809  19.526  0.00  0.00    +0.000 A 
ATOM     14  C   UNL     1       1.113  10.100  19.840  0.00  0.00    +0.000 A 
ATOM     15  C   UNL     1       0.380  10.270  21.005  0.00  0.00    +0.000 A 
ATOM     16  C   UNL     1       0.038   9.150  21.789  0.00  0.00    +0.000 A 
ATOM     17  C   UNL     1       0.444   7.840  21.441  0.00  0.00    +0.000 A 
ATOM     18  C   UNL     1       1.196   7.665  20.288  0.00  0.00    +0.000 A 
ENDROOT
BRANCH   1  19
ATOM     19  N   UNL     1       4.301   6.662  16.848  0.00  0.00    +0.000 N 
ATOM     20  H   UNL     1       4.080   6.007  16.102  0.00  0.00    +0.000 HD
BRANCH  19  21
ATOM     21  C   UNL     1       5.740   6.932  16.927  0.00  0.00    +0.000 C 
BRANCH  21  22
ATOM     22  C   UNL     1       6.650   5.824  16.342  0.00  0.00    +0.000 C 
BRANCH  22  24
ATOM     23  C   UNL     1       6.964   4.859  14.124  0.00  0.00    +0.000 C 
ATOM     24  N   UNL     1       6.066   4.973  15.276  0.00  0.00    +0.000 NA
ATOM     25  C   UNL     1       5.803   3.632  15.817  0.00  0.00    +0.000 C 
ENDBRANCH  22  24
ENDBRANCH  21  22
ENDBRANCH  19  21
ENDBRANCH   1  19
BRANCH   5  26
ATOM     26  O   UNL     1       2.491   1.467  18.937  0.00  0.00    +0.000 OA
ATOM     27  H   UNL     1       3.283   1.615  18.374  0.00  0.00    +0.000 HD
ENDBRANCH   5  26
TORSDOF 5
ENDMDL
MODEL 3
REMARK VINA RESULT:      -7.6      1.582      1.995
REMARK  Name = 
REMARK  7 active torsions:
REMARK  status: ('A' for Active; 'I' for Inactive)
REMARK    1  A    between atoms: C_1  and  N_2
REMARK    2  A    between atoms: N_2  and  C_3
REMARK    3  A    between atoms: N_2  and  C_4
REMARK    4  A    between atoms: C_4  and  C_5
REMARK    5  A    between atoms: C_5  and  N_6
REMARK    6  A    between atoms: N_6  and  C_7
REMARK    7  A    between atoms: C_11  and  O_12
REMARK                            x       y       z     vdW  Elec       q    Type
REMARK                         _______ _______ _______ _____ _____    ______ ____
ROOT
ATOM      1  C   UNL     1       4.126   6.366  17.624  0.00  0.00    +0.000 A 
ATOM      2  N   UNL     1       4.776   5.358  18.215  0.00  0.00    +0.000 NA
ATOM      3  C   UNL     1       4.234   4.796  19.295  0.00  0.00    +0.000 A 
ATOM      4  C   UNL     1       4.852   3.641  19.670  0.00  0.00    +0.000 A 
ATOM      5  C   UNL     1       3.963   2.621  19.880  0.00  0.00    +0.000 A 
ATOM      6  C   UNL     1       2.782   2.876  20.561  0.00  0.00    +0.000 A 
ATOM      7  C   UNL     1       2.376   4.214  20.711  0.00  0.00    +0.000 A 
ATOM      8  C   UNL     1       3.041   5.196  19.929  0.00  0.00    +0.000 A 
ATOM      9  C   UNL     1       2.603   6.472  19.541  0.00  0.00    +0.000 A 
ATOM     10  C   UNL     1       3.117   6.977  18.331  0.00  0.00    +0.000 A 
ATOM     11  C   UNL     1       2.469   8.268  18.040  0.00  0.00    +0.000 C 
ATOM     12  O   UNL     1       2.569   8.957  17.065  0.00  0.00    +0.000 OA
ATOM     13  C   UNL     1       1.661   8.583  19.221  0.00  0.00    +0.000 A 
ATOM     14  C   UNL     1       1.078   9.806  19.488  0.00  0.00    +0.000 A 
ATOM     15  C   UNL     1       0.473   9.950  20.727  0.00  0.00    +0.000 A 
ATOM     16  C   UNL     1       0.460   8.868  21.632  0.00  0.00    +0.000 A 
ATOM     17  C   UNL     1       1.074   7.630  21.327  0.00  0.00    +0.000 A 
ATOM     18  C   UNL     1       1.700   7.487  20.098  0.00  0.00    +0.000 A 
ENDROOT
BRANCH   1  19
ATOM     19  N   UNL     1       4.501   6.750  16.344  0.00  0.00    +0.000 N 
ATOM     20  H   UNL     1       3.690   6.761  15.729  0.00  0.00    +0.000 HD
BRANCH  19  21
ATOM     21  C   UNL     1       5.624   6.015  15.752  0.00  0.00    +0.000 C 
BRANCH  21  22
ATOM     22  C   UNL     1       5.239   4.703  15.025  0.00  0.00    +0.000 C 
BRANCH  22  24
ATOM     23  C   UNL     1       5.797   3.562  12.943  0.00  0.00    +0.000 C 
ATOM     24  N   UNL     1       6.304   4.042  14.231  0.00  0.00    +0.000 NA
ATOM     25  C   UNL     1       7.395   4.998  13.994  0.00  0.00    +0.000 C 
ENDBRANCH  22  24
ENDBRANCH  21  22
ENDBRANCH  19  21
ENDBRANCH   1  19
BRANCH   5  26
ATOM     26  O   UNL     1       4.031   1.540  19.039  0.00  0.00    +0.000 OA
ATOM     27  H   UNL     1       4.618   1.819  18.302  0.00  0.00    +0.000 HD
ENDBRANCH   5  26
TORSDOF 5
ENDMDL
MODEL 4
REMARK VINA RESULT:      -7.5      1.889      5.070
REMARK  Name = 
REMARK  7 active torsions:
REMARK  status: ('A' for Active; 'I' for Inactive)
REMARK    1  A    between atoms: C_1  and  N_2
REMARK    2  A    between atoms: N_2  and  C_3
REMARK    3  A    between atoms: N_2  and  C_4
REMARK    4  A    between atoms: C_4  and  C_5
REMARK    5  A    between atoms: C_5  and  N_6
REMARK    6  A    between atoms: N_6  and  C_7
REMARK    7  A    between atoms: C_11  and  O_12
REMARK                            x       y       z     vdW  Elec       q    Type
REMARK                         _______ _______ _______ _____ _____    ______ ____
ROOT
ATOM      1  C   UNL     1       4.324   6.648  17.559  0.00  0.00    +0.000 A 
ATOM      2  N   UNL     1       3.413   7.557  17.197  0.00  0.00    +0.000 NA
ATOM      3  C   UNL     1       2.411   7.824  18.033  0.00  0.00    +0.000 A 
ATOM      4  C   UNL     1       1.685   8.920  17.674  0.00  0.00    +0.000 A 
ATOM      5  C   UNL     1       1.508   9.790  18.717  0.00  0.00    +0.000 A 
ATOM      6  C   UNL     1       1.195   9.293  19.974  0.00  0.00    +0.000 A 
ATOM      7  C   UNL     1       1.404   7.924  20.218  0.00  0.00    +0.000 A 
ATOM      8  C   UNL     1       2.172   7.195  19.272  0.00  0.00    +0.000 A 
ATOM      9  C   UNL     1       2.890   6.000  19.438  0.00  0.00    +0.000 A 
ATOM     10  C   UNL     1       4.012   5.814  18.607  0.00  0.00    +0.000 A 
ATOM     11  C   UNL     1       4.689   4.565  18.996  0.00  0.00    +0.000 C 
ATOM     12  O   UNL     1       5.723   4.114  18.592  0.00  0.00    +0.000 OA
ATOM     13  C   UNL     1       3.822   3.934  19.993  0.00  0.00    +0.000 A 
ATOM     14  C   UNL     1       3.941   2.637  20.450  0.00  0.00    +0.000 A 
ATOM     15  C   UNL     1       2.936   2.177  21.288  0.00  0.00    +0.000 A 
ATOM     16  C   UNL     1       1.874   3.033  21.645  0.00  0.00    +0.000 A 
ATOM     17  C   UNL     1       1.780   4.356  21.152  0.00  0.00    +0.000 A 
ATOM     18  C   UNL     1       2.771   4.815  20.296  0.00  0.00    +0.000 A 
ENDROOT
BRANCH   1  19
ATOM     19  N   UNL     1       5.523   6.583  16.864  0.00  0.00    +0.000 N 
ATOM     20  H   UNL     1       6.045   7.449  16.982  0.00  0.00    +0.000 HD
BRANCH  19  21
ATOM     21  C   UNL     1       5.433   6.188  15.455  0.00  0.00    +0.000 C 
BRANCH  21  22
ATOM     22  C   UNL     1       5.322   4.664  15.206  0.00  0.00    +0.000 C 
BRANCH  22  24
ATOM     23  C   UNL     1       5.787   3.579  13.071  0.00  0.00    +0.000 C 
ATOM     24  N   UNL     1       6.356   4.051  14.336  0.00  0.00    +0.000 NA
ATOM     25  C   UNL     1       7.400   5.046  14.052  0.00  0.00    +0.000 C 
ENDBRANCH  22  24
ENDBRANCH  21  22
ENDBRANCH  19  21
ENDBRANCH   1  19
BRANCH   5  26
ATOM     26  O   UNL     1       2.088  11.028  18.612  0.00  0.00    +0.000 OA
ATOM     27  H   UNL     1       2.993  10.866  18.265  0.00  0.00    +0.000 HD
ENDBRANCH   5  26
TORSDOF 5
ENDMDL
MODEL 5
REMARK VINA RESULT:      -7.4      2.232      5.920
REMARK  Name = 
REMARK  7 active torsions:
REMARK  status: ('A' for Active; 'I' for Inactive)
REMARK    1  A    between atoms: C_1  and  N_2
REMARK    2  A    between atoms: N_2  and  C_3
REMARK    3  A    between atoms: N_2  and  C_4
REMARK    4  A    between atoms: C_4  and  C_5
REMARK    5  A    between atoms: C_5  and  N_6
REMARK    6  A    between atoms: N_6  and  C_7
REMARK    7  A    between atoms: C_11  and  O_12
REMARK                            x       y       z     vdW  Elec       q    Type
REMARK                         _______ _______ _______ _____ _____    ______ ____
ROOT
ATOM      1  C   UNL     1       2.320   6.489  19.154  0.00  0.00    +0.000 A 
ATOM      2  N   UNL     1       1.483   5.566  19.639  0.00  0.00    +0.000 NA
ATOM      3  C   UNL     1       1.832   4.283  19.557  0.00  0.00    +0.000 A 
ATOM      4  C   UNL     1       1.028   3.457  20.284  0.00  0.00    +0.000 A 
ATOM      5  C   UNL     1       1.746   2.602  21.078  0.00  0.00    +0.000 A 
ATOM      6  C   UNL     1       2.875   1.981  20.565  0.00  0.00    +0.000 A 
ATOM      7  C   UNL     1       3.440   2.499  19.386  0.00  0.00    +0.000 A 
ATOM      8  C   UNL     1       2.998   3.775  18.948  0.00  0.00    +0.000 A 
ATOM      9  C   UNL     1       3.641   4.705  18.115  0.00  0.00    +0.000 A 
ATOM     10  C   UNL     1       3.325   6.062  18.318  0.00  0.00    +0.000 A 
ATOM     11  C   UNL     1       4.168   6.884  17.432  0.00  0.00    +0.000 C 
ATOM     12  O   UNL     1       4.261   8.077  17.377  0.00  0.00    +0.000 OA
ATOM     13  C   UNL     1       4.887   5.938  16.575  0.00  0.00    +0.000 A 
ATOM     14  C   UNL     1       5.600   6.269  15.440  0.00  0.00    +0.000 A 
ATOM     15  C   UNL     1       6.090   5.216  14.683  0.00  0.00    +0.000 A 
ATOM     16  C   UNL     1       5.865   3.888  15.099  0.00  0.00    +0.000 A 
ATOM     17  C   UNL     1       5.123   3.584  16.266  0.00  0.00    +0.000 A 
ATOM     18  C   UNL     1       4.612   4.633  17.016  0.00  0.00    +0.000 A 
ENDROOT
BRANCH   1  19
ATOM     19  N   UNL     1       2.133   7.819  19.504  0.00  0.00    +0.000 N 
ATOM     20  H   UNL     1       3.014   8.324  19.447  0.00  0.00    +0.000 HD
BRANCH  19  21
ATOM     21  C   UNL     1       1.446   8.061  20.777  0.00  0.00    +0.000 C 
BRANCH  21  22
ATOM     22  C   UNL     1       0.502   9.288  20.791  0.00  0.00    +0.000 C 
BRANCH  22  24
ATOM     23  C   UNL     1      -0.133  11.442  21.744  0.00  0.00    +0.000 C 
ATOM     24  N   UNL     1       0.593  10.188  21.967  0.00  0.00    +0.000 NA
ATOM     25  C   UNL     1       0.029   9.508  23.141  0.00  0.00    +0.000 C 
ENDBRANCH  22  24
ENDBRANCH  21  22
ENDBRANCH  19  21
ENDBRANCH   1  19
BRANCH   5  26
ATOM     26  O   UNL     1       1.618   2.743  22.436  0.00  0.00    +0.000 OA
ATOM     27  H   UNL     1       0.656   2.660  22.619  0.00  0.00    +0.000 HD
ENDBRANCH   5  26
TORSDOF 5
ENDMDL
MODEL 6
REMARK VINA RESULT:      -7.0      1.153      1.599
REMARK  Name = 
REMARK  7 active torsions:
REMARK  status: ('A' for Active; 'I' for Inactive)
REMARK    1  A    between atoms: C_1  and  N_2
REMARK    2  A    between atoms: N_2  and  C_3
REMARK    3  A    between atoms: N_2  and  C_4
REMARK    4  A    between atoms: C_4  and  C_5
REMARK    5  A    between atoms: C_5  and  N_6
REMARK    6  A    between atoms: N_6  and  C_7
REMARK    7  A    between atoms: C_11  and  O_12
REMARK                            x       y       z     vdW  Elec       q    Type
REMARK                         _______ _______ _______ _____ _____    ______ ____
ROOT
ATOM      1  C   UNL     1       4.111   5.102  17.635  0.00  0.00    +0.000 A 
ATOM      2  N   UNL     1       4.198   4.123  18.541  0.00  0.00    +0.000 NA
ATOM      3  C   UNL     1       3.292   4.075  19.517  0.00  0.00    +0.000 A 
ATOM      4  C   UNL     1       3.332   2.918  20.235  0.00  0.00    +0.000 A 
ATOM      5  C   UNL     1       2.094   2.348  20.371  0.00  0.00    +0.000 A 
ATOM      6  C   UNL     1       1.001   3.152  20.659  0.00  0.00    +0.000 A 
ATOM      7  C   UNL     1       1.127   4.540  20.464  0.00  0.00    +0.000 A 
ATOM      8  C   UNL     1       2.252   5.003  19.732  0.00  0.00    +0.000 A 
ATOM      9  C   UNL     1       2.425   6.206  19.029  0.00  0.00    +0.000 A 
ATOM     10  C   UNL     1       3.307   6.178  17.932  0.00  0.00    +0.000 A 
ATOM     11  C   UNL     1       3.277   7.490  17.263  0.00  0.00    +0.000 C 
ATOM     12  O   UNL     1       3.814   7.828  16.247  0.00  0.00    +0.000 OA
ATOM     13  C   UNL     1       2.453   8.353  18.114  0.00  0.00    +0.000 A 
ATOM     14  C   UNL     1       2.353   9.725  18.003  0.00  0.00    +0.000 A 
ATOM     15  C   UNL     1       1.634  10.379  18.992  0.00  0.00    +0.000 A 
ATOM     16  C   UNL     1       1.036   9.637  20.032  0.00  0.00    +0.000 A 
ATOM     17  C   UNL     1       1.165   8.230  20.118  0.00  0.00    +0.000 A 
ATOM     18  C   UNL     1       1.901   7.572  19.143  0.00  0.00    +0.000 A 
ENDROOT
BRANCH   1  19
ATOM     19  N   UNL     1       4.834   4.993  16.455  0.00  0.00    +0.000 N 
ATOM     20  H   UNL     1       4.405   4.303  15.843  0.00  0.00    +0.000 HD
BRANCH  19  21
ATOM     21  C   UNL     1       6.276   4.773  16.599  0.00  0.00    +0.000 C 
BRANCH  21  22
ATOM     22  C   UNL     1       7.136   6.060  16.639  0.00  0.00    +0.000 C 
BRANCH  22  24
ATOM     23  C   UNL     1       7.817   6.059  18.982  0.00  0.00    +0.000 C 
ATOM     24  N   UNL     1       7.151   6.814  17.917  0.00  0.00    +0.000 NA
ATOM     25  C   UNL     1       7.855   8.089  17.717  0.00  0.00    +0.000 C 
ENDBRANCH  22  24
ENDBRANCH  21  22
ENDBRANCH  19  21
ENDBRANCH   1  19
BRANCH   5  26
ATOM     26  O   UNL     1       1.890   1.129  19.776  0.00  0.00    +0.000 OA
ATOM     27  H   UNL     1       2.023   1.282  18.814  0.00  0.00    +0.000 HD
ENDBRANCH   5  26
TORSDOF 5
ENDMDL
MODEL 7
REMARK VINA RESULT:      -7.0      2.197      4.558
REMARK  Name = 
REMARK  7 active torsions:
REMARK  status: ('A' for Active; 'I' for Inactive)
REMARK    1  A    between atoms: C_1  and  N_2
REMARK    2  A    between atoms: N_2  and  C_3
REMARK    3  A    between atoms: N_2  and  C_4
REMARK    4  A    between atoms: C_4  and  C_5
REMARK    5  A    between atoms: C_5  and  N_6
REMARK    6  A    between atoms: N_6  and  C_7
REMARK    7  A    between atoms: C_11  and  O_12
REMARK                            x       y       z     vdW  Elec       q    Type
REMARK                         _______ _______ _______ _____ _____    ______ ____
ROOT
ATOM      1  C   UNL     1       2.609   5.508  19.936  0.00  0.00    +0.000 A 
ATOM      2  N   UNL     1       3.110   4.835  18.896  0.00  0.00    +0.000 NA
ATOM      3  C   UNL     1       3.590   5.524  17.861  0.00  0.00    +0.000 A 
ATOM      4  C   UNL     1       4.282   4.755  16.974  0.00  0.00    +0.000 A 
ATOM      5  C   UNL     1       5.501   5.295  16.660  0.00  0.00    +0.000 A 
ATOM      6  C   UNL     1       5.602   6.658  16.424  0.00  0.00    +0.000 A 
ATOM      7  C   UNL     1       4.545   7.486  16.844  0.00  0.00    +0.000 A 
ATOM      8  C   UNL     1       3.578   6.926  17.720  0.00  0.00    +0.000 A 
ATOM      9  C   UNL     1       2.707   7.570  18.615  0.00  0.00    +0.000 A 
ATOM     10  C   UNL     1       2.319   6.840  19.755  0.00  0.00    +0.000 A 
ATOM     11  C   UNL     1       1.499   7.708  20.618  0.00  0.00    +0.000 C 
ATOM     12  O   UNL     1       1.062   7.484  21.711  0.00  0.00    +0.000 OA
ATOM     13  C   UNL     1       1.285   8.941  19.857  0.00  0.00    +0.000 A 
ATOM     14  C   UNL     1       0.377   9.931  20.175  0.00  0.00    +0.000 A 
ATOM     15  C   UNL     1       0.221  10.953  19.252  0.00  0.00    +0.000 A 
ATOM     16  C   UNL     1       0.986  10.953  18.068  0.00  0.00    +0.000 A 
ATOM     17  C   UNL     1       1.904   9.917  17.770  0.00  0.00    +0.000 A 
ATOM     18  C   UNL     1       2.049   8.880  18.680  0.00  0.00    +0.000 A 
ENDROOT
BRANCH   1  19
ATOM     19  N   UNL     1       2.399   4.838  21.133  0.00  0.00    +0.000 N 
ATOM     20  H   UNL     1       3.289   4.564  21.543  0.00  0.00    +0.000 HD
BRANCH  19  21
ATOM     21  C   UNL     1       1.450   3.721  21.091  0.00  0.00    +0.000 C 
BRANCH  21  22
ATOM     22  C   UNL     1       2.083   2.332  20.831  0.00  0.00    +0.000 C 
BRANCH  22  24
ATOM     23  C   UNL     1       0.745   2.424  18.794  0.00  0.00    +0.000 C 
ATOM     24  N   UNL     1       1.785   1.694  19.525  0.00  0.00    +0.000 NA
ATOM     25  C   UNL     1       3.010   1.657  18.713  0.00  0.00    +0.000 C 
ENDBRANCH  22  24
ENDBRANCH  21  22
ENDBRANCH  19  21
ENDBRANCH   1  19
BRANCH   5  26
ATOM     26  O   UNL     1       6.618   4.596  17.040  0.00  0.00    +0.000 OA
ATOM     27  H   UNL     1       6.981   4.212  16.211  0.00  0.00    +0.000 HD
ENDBRANCH   5  26
TORSDOF 5
ENDMDL
MODEL 8
REMARK VINA RESULT:      -6.9      2.234      4.776
REMARK  Name = 
REMARK  7 active torsions:
REMARK  status: ('A' for Active; 'I' for Inactive)
REMARK    1  A    between atoms: C_1  and  N_2
REMARK    2  A    between atoms: N_2  and  C_3
REMARK    3  A    between atoms: N_2  and  C_4
REMARK    4  A    between atoms: C_4  and  C_5
REMARK    5  A    between atoms: C_5  and  N_6
REMARK    6  A    between atoms: N_6  and  C_7
REMARK    7  A    between atoms: C_11  and  O_12
REMARK                            x       y       z     vdW  Elec       q    Type
REMARK                         _______ _______ _______ _____ _____    ______ ____
ROOT
ATOM      1  C   UNL     1       3.697   4.395  19.565  0.00  0.00    +0.000 A 
ATOM      2  N   UNL     1       4.419   3.861  18.575  0.00  0.00    +0.000 NA
ATOM      3  C   UNL     1       4.965   4.676  17.673  0.00  0.00    +0.000 A 
ATOM      4  C   UNL     1       5.862   4.055  16.857  0.00  0.00    +0.000 A 
ATOM      5  C   UNL     1       7.046   4.740  16.771  0.00  0.00    +0.000 A 
ATOM      6  C   UNL     1       7.025   6.121  16.639  0.00  0.00    +0.000 A 
ATOM      7  C   UNL     1       5.831   6.800  16.941  0.00  0.00    +0.000 A 
ATOM      8  C   UNL     1       4.815   6.076  17.620  0.00  0.00    +0.000 A 
ATOM      9  C   UNL     1       3.755   6.554  18.407  0.00  0.00    +0.000 A 
ATOM     10  C   UNL     1       3.288   5.700  19.425  0.00  0.00    +0.000 A 
ATOM     11  C   UNL     1       2.257   6.409  20.204  0.00  0.00    +0.000 C 
ATOM     12  O   UNL     1       1.692   6.055  21.199  0.00  0.00    +0.000 OA
ATOM     13  C   UNL     1       2.020   7.670  19.497  0.00  0.00    +0.000 A 
ATOM     14  C   UNL     1       0.968   8.533  19.733  0.00  0.00    +0.000 A 
ATOM     15  C   UNL     1       0.835   9.604  18.862  0.00  0.00    +0.000 A 
ATOM     16  C   UNL     1       1.762   9.776  17.813  0.00  0.00    +0.000 A 
ATOM     17  C   UNL     1       2.825   8.867  17.597  0.00  0.00    +0.000 A 
ATOM     18  C   UNL     1       2.951   7.781  18.452  0.00  0.00    +0.000 A 
ENDROOT
BRANCH   1  19
ATOM     19  N   UNL     1       3.390   3.614  20.671  0.00  0.00    +0.000 N 
ATOM     20  H   UNL     1       4.244   3.301  21.127  0.00  0.00    +0.000 HD
BRANCH  19  21
ATOM     21  C   UNL     1       2.456   2.507  20.441  0.00  0.00    +0.000 C 
BRANCH  21  22
ATOM     22  C   UNL     1       1.109   2.909  19.791  0.00  0.00    +0.000 C 
BRANCH  22  24
ATOM     23  C   UNL     1       1.027   3.922  17.573  0.00  0.00    +0.000 C 
ATOM     24  N   UNL     1       0.974   2.670  18.333  0.00  0.00    +0.000 NA
ATOM     25  C   UNL     1       2.060   1.787  17.884  0.00  0.00    +0.000 C 
ENDBRANCH  22  24
ENDBRANCH  21  22
ENDBRANCH  19  21
ENDBRANCH   1  19
BRANCH   5  26
ATOM     26  O   UNL     1       8.166   4.131  17.274  0.00  0.00    +0.000 OA
ATOM     27  H   UNL     1       7.899   3.772  18.149  0.00  0.00    +0.000 HD
ENDBRANCH   5  26
TORSDOF 5
ENDMDL
MODEL 9
REMARK VINA RESULT:      -6.9      2.276      5.799
REMARK  Name = 
REMARK  7 active torsions:
REMARK  status: ('A' for Active; 'I' for Inactive)
REMARK    1  A    between atoms: C_1  and  N_2
REMARK    2  A    between atoms: N_2  and  C_3
REMARK    3  A    between atoms: N_2  and  C_4
REMARK    4  A    between atoms: C_4  and  C_5
REMARK    5  A    between atoms: C_5  and  N_6
REMARK    6  A    between atoms: N_6  and  C_7
REMARK    7  A    between atoms: C_11  and  O_12
REMARK                            x       y       z     vdW  Elec       q    Type
REMARK                         _______ _______ _______ _____ _____    ______ ____
ROOT
ATOM      1  C   UNL     1       2.551   6.519  18.900  0.00  0.00    +0.000 A 
ATOM      2  N   UNL     1       1.714   5.632  19.447  0.00  0.00    +0.000 NA
ATOM      3  C   UNL     1       2.059   4.345  19.447  0.00  0.00    +0.000 A 
ATOM      4  C   UNL     1       1.256   3.570  20.229  0.00  0.00    +0.000 A 
ATOM      5  C   UNL     1       1.974   2.766  21.075  0.00  0.00    +0.000 A 
ATOM      6  C   UNL     1       3.100   2.111  20.599  0.00  0.00    +0.000 A 
ATOM      7  C   UNL     1       3.663   2.550  19.387  0.00  0.00    +0.000 A 
ATOM      8  C   UNL     1       3.222   3.796  18.869  0.00  0.00    +0.000 A 
ATOM      9  C   UNL     1       3.864   4.668  17.975  0.00  0.00    +0.000 A 
ATOM     10  C   UNL     1       3.552   6.036  18.091  0.00  0.00    +0.000 A 
ATOM     11  C   UNL     1       4.394   6.797  17.150  0.00  0.00    +0.000 C 
ATOM     12  O   UNL     1       4.490   7.984  17.019  0.00  0.00    +0.000 OA
ATOM     13  C   UNL     1       5.108   5.796  16.354  0.00  0.00    +0.000 A 
ATOM     14  C   UNL     1       5.818   6.051  15.198  0.00  0.00    +0.000 A 
ATOM     15  C   UNL     1       6.303   4.949  14.509  0.00  0.00    +0.000 A 
ATOM     16  C   UNL     1       6.076   3.651  15.012  0.00  0.00    +0.000 A 
ATOM     17  C   UNL     1       5.338   3.426  16.198  0.00  0.00    +0.000 A 
ATOM     18  C   UNL     1       4.831   4.523  16.880  0.00  0.00    +0.000 A 
ENDROOT
BRANCH   1  19
ATOM     19  N   UNL     1       2.368   7.869  19.164  0.00  0.00    +0.000 N 
ATOM     20  H   UNL     1       2.144   8.007  20.147  0.00  0.00    +0.000 HD
BRANCH  19  21
ATOM     21  C   UNL     1       1.431   8.578  18.287  0.00  0.00    +0.000 C 
BRANCH  21  22
ATOM     22  C   UNL     1       1.603  10.116  18.249  0.00  0.00    +0.000 C 
BRANCH  22  24
ATOM     23  C   UNL     1      -0.813  10.437  18.359  0.00  0.00    +0.000 C 
ATOM     24  N   UNL     1       0.493  10.927  18.808  0.00  0.00    +0.000 NA
ATOM     25  C   UNL     1       0.548  10.875  20.276  0.00  0.00    +0.000 C 
ENDBRANCH  22  24
ENDBRANCH  21  22
ENDBRANCH  19  21
ENDBRANCH   1  19
BRANCH   5  26
ATOM     26  O   UNL     1       1.851   2.996  22.421  0.00  0.00    +0.000 OA
ATOM     27  H   UNL     1       2.309   3.850  22.584  0.00  0.00    +0.000 HD
ENDBRANCH   5  26
TORSDOF 5
ENDMDL
