MODEL 1
REMARK VINA RESULT:      -7.9      0.000      0.000
REMARK  Name = 
REMARK  9 active torsions:
REMARK  status: ('A' for Active; 'I' for Inactive)
REMARK    1  A    between atoms: C_1  and  C_2
REMARK    2  A    between atoms: C_4  and  C_5
REMARK    3  A    between atoms: C_5  and  C_6
REMARK    4  A    between atoms: C_6  and  O_7
REMARK    5  A    between atoms: O_7  and  C_8
REMARK    6  A    between atoms: C_9  and  C_10
REMARK    7  A    between atoms: C_12  and  C_13
REMARK    8  A    between atoms: N_16  and  C_17
REMARK    9  A    between atoms: C_20  and  C_21
REMARK                            x       y       z     vdW  Elec       q    Type
REMARK                         _______ _______ _______ _____ _____    ______ ____
ROOT
ATOM      1  C   UNL     1       2.782   5.580  19.167  0.00  0.00    +0.000 A 
ATOM      2  C   UNL     1       2.838   6.883  18.634  0.00  0.00    +0.000 A 
ATOM      3  C   UNL     1       3.493   7.299  17.346  0.00  0.00    +0.000 C 
ATOM      4  C   UNL     1       2.239   7.936  19.356  0.00  0.00    +0.000 A 
ATOM      5  C   UNL     1       1.530   7.727  20.541  0.00  0.00    +0.000 A 
ATOM      6  C   UNL     1       1.409   6.424  21.017  0.00  0.00    +0.000 A 
ATOM      7  C   UNL     1       2.016   5.348  20.341  0.00  0.00    +0.000 A 
ATOM      8  C   UNL     1       1.833   3.959  20.895  0.00  0.00    +0.000 C 
ENDROOT
BRANCH   5   9
ATOM      9  C   UNL     1       0.935   8.863  21.231  0.00  0.00    +0.000 A 
ATOM     10  N   UNL     1       1.295   9.217  22.515  0.00  0.00    +0.000 NA
ATOM     11  N   UNL     1       0.564  10.269  22.844  0.00  0.00    +0.000 NA
ATOM     12  N   UNL     1      -0.191  10.505  21.764  0.00  0.00    +0.000 N 
ATOM     13  C   UNL     1      -1.162  11.564  21.734  0.00  0.00    +0.000 C 
ATOM     14  N   UNL     1      -0.018   9.666  20.726  0.00  0.00    +0.000 NA
ENDBRANCH   5   9
BRANCH   1  15
ATOM     15  O   UNL     1       3.379   4.448  18.666  0.00  0.00    +0.000 OA
BRANCH  15  16
ATOM     16  C   UNL     1       4.604   4.004  19.249  0.00  0.00    +0.000 C 
BRANCH  16  17
ATOM     17  C   UNL     1       5.767   4.911  18.858  0.00  0.00    +0.000 C 
BRANCH  17  21
ATOM     18  C   UNL     1       6.345   3.976  13.887  0.00  0.00    +0.000 C 
ATOM     19  C   UNL     1       6.505   4.314  15.318  0.00  0.00    +0.000 A 
ATOM     20  C   UNL     1       5.512   4.311  16.321  0.00  0.00    +0.000 A 
ATOM     21  C   UNL     1       6.181   4.696  17.454  0.00  0.00    +0.000 A 
ATOM     22  O   UNL     1       7.488   4.919  17.154  0.00  0.00    +0.000 OA
ATOM     23  N   UNL     1       7.695   4.675  15.805  0.00  0.00    +0.000 NA
ENDBRANCH  17  21
ENDBRANCH  16  17
ENDBRANCH  15  16
ENDBRANCH   1  15
TORSDOF 5
ENDMDL
MODEL 2
REMARK VINA RESULT:      -7.7      1.216      1.715
REMARK  Name = 
REMARK  9 active torsions:
REMARK  status: ('A' for Active; 'I' for Inactive)
REMARK    1  A    between atoms: C_1  and  C_2
REMARK    2  A    between atoms: C_4  and  C_5
REMARK    3  A    between atoms: C_5  and  C_6
REMARK    4  A    between atoms: C_6  and  O_7
REMARK    5  A    between atoms: O_7  and  C_8
REMARK    6  A    between atoms: C_9  and  C_10
REMARK    7  A    between atoms: C_12  and  C_13
REMARK    8  A    between atoms: N_16  and  C_17
REMARK    9  A    between atoms: C_20  and  C_21
REMARK                            x       y       z     vdW  Elec       q    Type
REMARK                         _______ _______ _______ _____ _____    ______ ____
ROOT
ATOM      1  C   UNL     1       2.697   5.648  19.214  0.00  0.00    +0.000 A 
ATOM      2  C   UNL     1       2.760   6.942  18.661  0.00  0.00    +0.000 A 
ATOM      3  C   UNL     1       3.426   7.336  17.372  0.00  0.00    +0.000 C 
ATOM      4  C   UNL     1       2.159   8.008  19.362  0.00  0.00    +0.000 A 
ATOM      5  C   UNL     1       1.441   7.819  20.544  0.00  0.00    +0.000 A 
ATOM      6  C   UNL     1       1.313   6.525  21.040  0.00  0.00    +0.000 A 
ATOM      7  C   UNL     1       1.923   5.437  20.386  0.00  0.00    +0.000 A 
ATOM      8  C   UNL     1       1.732   4.057  20.961  0.00  0.00    +0.000 C 
ENDROOT
BRANCH   5   9
ATOM      9  C   UNL     1       0.843   8.967  21.213  0.00  0.00    +0.000 A 
ATOM     10  N   UNL     1       1.133   9.292  22.521  0.00  0.00    +0.000 NA
ATOM     11  N   UNL     1       0.419  10.366  22.819  0.00  0.00    +0.000 NA
ATOM     12  N   UNL     1      -0.256  10.643  21.697  0.00  0.00    +0.000 N 
ATOM     13  C   UNL     1      -1.185  11.737  21.621  0.00  0.00    +0.000 C 
ATOM     14  N   UNL     1      -0.046   9.811  20.659  0.00  0.00    +0.000 NA
ENDBRANCH   5   9
BRANCH   1  15
ATOM     15  O   UNL     1       3.296   4.507  18.736  0.00  0.00    +0.000 OA
BRANCH  15  16
ATOM     16  C   UNL     1       4.594   4.159  19.218  0.00  0.00    +0.000 C 
BRANCH  16  17
ATOM     17  C   UNL     1       5.569   3.929  18.068  0.00  0.00    +0.000 C 
BRANCH  17  21
ATOM     18  C   UNL     1       8.106   8.333  17.784  0.00  0.00    +0.000 C 
ATOM     19  C   UNL     1       7.431   7.040  17.537  0.00  0.00    +0.000 A 
ATOM     20  C   UNL     1       6.766   6.222  18.475  0.00  0.00    +0.000 A 
ATOM     21  C   UNL     1       6.325   5.157  17.735  0.00  0.00    +0.000 A 
ATOM     22  O   UNL     1       6.700   5.320  16.439  0.00  0.00    +0.000 OA
ATOM     23  N   UNL     1       7.397   6.511  16.311  0.00  0.00    +0.000 NA
ENDBRANCH  17  21
ENDBRANCH  16  17
ENDBRANCH  15  16
ENDBRANCH   1  15
TORSDOF 5
ENDMDL
MODEL 3
REMARK VINA RESULT:      -7.7      0.912      2.071
REMARK  Name = 
REMARK  9 active torsions:
REMARK  status: ('A' for Active; 'I' for Inactive)
REMARK    1  A    between atoms: C_1  and  C_2
REMARK    2  A    between atoms: C_4  and  C_5
REMARK    3  A    between atoms: C_5  and  C_6
REMARK    4  A    between atoms: C_6  and  O_7
REMARK    5  A    between atoms: O_7  and  C_8
REMARK    6  A    between atoms: C_9  and  C_10
REMARK    7  A    between atoms: C_12  and  C_13
REMARK    8  A    between atoms: N_16  and  C_17
REMARK    9  A    between atoms: C_20  and  C_21
REMARK                            x       y       z     vdW  Elec       q    Type
REMARK                         _______ _______ _______ _____ _____    ______ ____
ROOT
ATOM      1  C   UNL     1       3.293   5.512  18.589  0.00  0.00    +0.000 A 
ATOM      2  C   UNL     1       2.657   5.282  19.825  0.00  0.00    +0.000 A 
ATOM      3  C   UNL     1       2.637   3.993  20.598  0.00  0.00    +0.000 C 
ATOM      4  C   UNL     1       1.947   6.341  20.429  0.00  0.00    +0.000 A 
ATOM      5  C   UNL     1       1.911   7.627  19.886  0.00  0.00    +0.000 A 
ATOM      6  C   UNL     1       2.612   7.866  18.707  0.00  0.00    +0.000 A 
ATOM      7  C   UNL     1       3.309   6.830  18.057  0.00  0.00    +0.000 A 
ATOM      8  C   UNL     1       4.064   7.155  16.794  0.00  0.00    +0.000 C 
ENDROOT
BRANCH   5   9
ATOM      9  C   UNL     1       1.159   8.672  20.566  0.00  0.00    +0.000 A 
ATOM     10  N   UNL     1       1.025   8.710  21.938  0.00  0.00    +0.000 NA
ATOM     11  N   UNL     1       0.279   9.766  22.223  0.00  0.00    +0.000 NA
ATOM     12  N   UNL     1       0.002  10.313  21.033  0.00  0.00    +0.000 N 
ATOM     13  C   UNL     1      -0.830  11.478  20.910  0.00  0.00    +0.000 C 
ATOM     14  N   UNL     1       0.511   9.683  19.959  0.00  0.00    +0.000 NA
ENDBRANCH   5   9
BRANCH   1  15
ATOM     15  O   UNL     1       3.948   4.593  17.805  0.00  0.00    +0.000 OA
BRANCH  15  16
ATOM     16  C   UNL     1       5.133   3.978  18.312  0.00  0.00    +0.000 C 
BRANCH  16  17
ATOM     17  C   UNL     1       6.384   4.715  17.843  0.00  0.00    +0.000 C 
BRANCH  17  21
ATOM     18  C   UNL     1       6.386   3.759  12.843  0.00  0.00    +0.000 C 
ATOM     19  C   UNL     1       6.601   4.279  14.211  0.00  0.00    +0.000 A 
ATOM     20  C   UNL     1       6.026   3.811  15.411  0.00  0.00    +0.000 A 
ATOM     21  C   UNL     1       6.553   4.630  16.376  0.00  0.00    +0.000 A 
ATOM     22  O   UNL     1       7.387   5.533  15.796  0.00  0.00    +0.000 OA
ATOM     23  N   UNL     1       7.421   5.311  14.428  0.00  0.00    +0.000 NA
ENDBRANCH  17  21
ENDBRANCH  16  17
ENDBRANCH  15  16
ENDBRANCH   1  15
TORSDOF 5
ENDMDL
MODEL 4
REMARK VINA RESULT:      -7.7      1.147      1.496
REMARK  Name = 
REMARK  9 active torsions:
REMARK  status: ('A' for Active; 'I' for Inactive)
REMARK    1  A    between atoms: C_1  and  C_2
REMARK    2  A    between atoms: C_4  and  C_5
REMARK    3  A    between atoms: C_5  and  C_6
REMARK    4  A    between atoms: C_6  and  O_7
REMARK    5  A    between atoms: O_7  and  C_8
REMARK    6  A    between atoms: C_9  and  C_10
REMARK    7  A    between atoms: C_12  and  C_13
REMARK    8  A    between atoms: N_16  and  C_17
REMARK    9  A    between atoms: C_20  and  C_21
REMARK                            x       y       z     vdW  Elec       q    Type
REMARK                         _______ _______ _______ _____ _____    ______ ____
ROOT
ATOM      1  C   UNL     1       3.745   5.414  18.406  0.00  0.00    +0.000 A 
ATOM      2  C   UNL     1       3.623   6.709  17.866  0.00  0.00    +0.000 A 
ATOM      3  C   UNL     1       4.260   7.220  16.603  0.00  0.00    +0.000 C 
ATOM      4  C   UNL     1       2.841   7.659  18.555  0.00  0.00    +0.000 A 
ATOM      5  C   UNL     1       2.124   7.345  19.712  0.00  0.00    +0.000 A 
ATOM      6  C   UNL     1       2.184   6.039  20.192  0.00  0.00    +0.000 A 
ATOM      7  C   UNL     1       2.976   5.069  19.550  0.00  0.00    +0.000 A 
ATOM      8  C   UNL     1       2.986   3.668  20.106  0.00  0.00    +0.000 C 
ENDROOT
BRANCH   5   9
ATOM      9  C   UNL     1       1.335   8.377  20.370  0.00  0.00    +0.000 A 
ATOM     10  N   UNL     1       0.919   9.517  19.715  0.00  0.00    +0.000 NA
ATOM     11  N   UNL     1       0.246  10.243  20.593  0.00  0.00    +0.000 NA
ATOM     12  N   UNL     1       0.279   9.521  21.720  0.00  0.00    +0.000 N 
ATOM     13  C   UNL     1      -0.322   9.991  22.939  0.00  0.00    +0.000 C 
ATOM     14  N   UNL     1       0.944   8.353  21.656  0.00  0.00    +0.000 NA
ENDBRANCH   5   9
BRANCH   1  15
ATOM     15  O   UNL     1       4.529   4.386  17.938  0.00  0.00    +0.000 OA
BRANCH  15  16
ATOM     16  C   UNL     1       5.793   4.149  18.560  0.00  0.00    +0.000 C 
BRANCH  16  17
ATOM     17  C   UNL     1       6.906   4.932  17.870  0.00  0.00    +0.000 C 
BRANCH  17  21
ATOM     18  C   UNL     1       6.226   3.680  12.983  0.00  0.00    +0.000 C 
ATOM     19  C   UNL     1       6.612   4.288  14.274  0.00  0.00    +0.000 A 
ATOM     20  C   UNL     1       6.241   3.870  15.570  0.00  0.00    +0.000 A 
ATOM     21  C   UNL     1       6.863   4.766  16.401  0.00  0.00    +0.000 A 
ATOM     22  O   UNL     1       7.560   5.665  15.656  0.00  0.00    +0.000 OA
ATOM     23  N   UNL     1       7.405   5.363  14.312  0.00  0.00    +0.000 NA
ENDBRANCH  17  21
ENDBRANCH  16  17
ENDBRANCH  15  16
ENDBRANCH   1  15
TORSDOF 5
ENDMDL
MODEL 5
REMARK VINA RESULT:      -7.6      0.736      2.029
REMARK  Name = 
REMARK  9 active torsions:
REMARK  status: ('A' for Active; 'I' for Inactive)
REMARK    1  A    between atoms: C_1  and  C_2
REMARK    2  A    between atoms: C_4  and  C_5
REMARK    3  A    between atoms: C_5  and  C_6
REMARK    4  A    between atoms: C_6  and  O_7
REMARK    5  A    between atoms: O_7  and  C_8
REMARK    6  A    between atoms: C_9  and  C_10
REMARK    7  A    between atoms: C_12  and  C_13
REMARK    8  A    between atoms: N_16  and  C_17
REMARK    9  A    between atoms: C_20  and  C_21
REMARK                            x       y       z     vdW  Elec       q    Type
REMARK                         _______ _______ _______ _____ _____    ______ ____
ROOT
ATOM      1  C   UNL     1       2.728   5.863  18.995  0.00  0.00    +0.000 A 
ATOM      2  C   UNL     1       2.104   5.723  20.251  0.00  0.00    +0.000 A 
ATOM      3  C   UNL     1       2.036   4.475  21.085  0.00  0.00    +0.000 C 
ATOM      4  C   UNL     1       1.457   6.843  20.813  0.00  0.00    +0.000 A 
ATOM      5  C   UNL     1       1.474   8.102  20.209  0.00  0.00    +0.000 A 
ATOM      6  C   UNL     1       2.163   8.250  19.009  0.00  0.00    +0.000 A 
ATOM      7  C   UNL     1       2.798   7.151  18.400  0.00  0.00    +0.000 A 
ATOM      8  C   UNL     1       3.545   7.378  17.111  0.00  0.00    +0.000 C 
ENDROOT
BRANCH   5   9
ATOM      9  C   UNL     1       0.785   9.214  20.850  0.00  0.00    +0.000 A 
ATOM     10  N   UNL     1       0.936  10.518  20.426  0.00  0.00    +0.000 NA
ATOM     11  N   UNL     1       0.194  11.270  21.223  0.00  0.00    +0.000 NA
ATOM     12  N   UNL     1      -0.366  10.405  22.077  0.00  0.00    +0.000 N 
ATOM     13  C   UNL     1      -1.229  10.841  23.140  0.00  0.00    +0.000 C 
ATOM     14  N   UNL     1      -0.039   9.111  21.908  0.00  0.00    +0.000 NA
ENDBRANCH   5   9
BRANCH   1  15
ATOM     15  O   UNL     1       3.324   4.876  18.246  0.00  0.00    +0.000 OA
BRANCH  15  16
ATOM     16  C   UNL     1       4.488   4.231  18.762  0.00  0.00    +0.000 C 
BRANCH  16  17
ATOM     17  C   UNL     1       5.754   5.008  18.413  0.00  0.00    +0.000 C 
BRANCH  17  21
ATOM     18  C   UNL     1       6.302   3.953  13.463  0.00  0.00    +0.000 C 
ATOM     19  C   UNL     1       6.441   4.406  14.864  0.00  0.00    +0.000 A 
ATOM     20  C   UNL     1       5.535   4.212  15.928  0.00  0.00    +0.000 A 
ATOM     21  C   UNL     1       6.139   4.821  16.997  0.00  0.00    +0.000 A 
ATOM     22  O   UNL     1       7.328   5.350  16.604  0.00  0.00    +0.000 OA
ATOM     23  N   UNL     1       7.522   5.086  15.257  0.00  0.00    +0.000 NA
ENDBRANCH  17  21
ENDBRANCH  16  17
ENDBRANCH  15  16
ENDBRANCH   1  15
TORSDOF 5
ENDMDL
MODEL 6
REMARK VINA RESULT:      -7.5      0.775      2.069
REMARK  Name = 
REMARK  9 active torsions:
REMARK  status: ('A' for Active; 'I' for Inactive)
REMARK    1  A    between atoms: C_1  and  C_2
REMARK    2  A    between atoms: C_4  and  C_5
REMARK    3  A    between atoms: C_5  and  C_6
REMARK    4  A    between atoms: C_6  and  O_7
REMARK    5  A    between atoms: O_7  and  C_8
REMARK    6  A    between atoms: C_9  and  C_10
REMARK    7  A    between atoms: C_12  and  C_13
REMARK    8  A    between atoms: N_16  and  C_17
REMARK    9  A    between atoms: C_20  and  C_21
REMARK                            x       y       z     vdW  Elec       q    Type
REMARK                         _______ _______ _______ _____ _____    ______ ____
ROOT
ATOM      1  C   UNL     1       2.436   5.775  18.978  0.00  0.00    +0.000 A 
ATOM      2  C   UNL     1       1.848   5.444  20.214  0.00  0.00    +0.000 A 
ATOM      3  C   UNL     1       1.712   4.068  20.804  0.00  0.00    +0.000 C 
ATOM      4  C   UNL     1       1.310   6.479  21.007  0.00  0.00    +0.000 A 
ATOM      5  C   UNL     1       1.403   7.826  20.648  0.00  0.00    +0.000 A 
ATOM      6  C   UNL     1       2.059   8.150  19.464  0.00  0.00    +0.000 A 
ATOM      7  C   UNL     1       2.584   7.145  18.630  0.00  0.00    +0.000 A 
ATOM      8  C   UNL     1       3.301   7.560  17.371  0.00  0.00    +0.000 C 
ENDROOT
BRANCH   5   9
ATOM      9  C   UNL     1       0.826   8.841  21.518  0.00  0.00    +0.000 A 
ATOM     10  N   UNL     1       1.329   9.109  22.774  0.00  0.00    +0.000 NA
ATOM     11  N   UNL     1       0.574  10.063  23.296  0.00  0.00    +0.000 NA
ATOM     12  N   UNL     1      -0.334  10.329  22.350  0.00  0.00    +0.000 N 
ATOM     13  C   UNL     1      -1.374  11.300  22.549  0.00  0.00    +0.000 C 
ATOM     14  N   UNL     1      -0.242   9.603  21.220  0.00  0.00    +0.000 NA
ENDBRANCH   5   9
BRANCH   1  15
ATOM     15  O   UNL     1       2.926   4.910  18.029  0.00  0.00    +0.000 OA
BRANCH  15  16
ATOM     16  C   UNL     1       4.225   4.349  18.218  0.00  0.00    +0.000 C 
BRANCH  16  17
ATOM     17  C   UNL     1       4.610   3.437  17.057  0.00  0.00    +0.000 C 
BRANCH  17  21
ATOM     18  C   UNL     1       7.554   5.281  13.335  0.00  0.00    +0.000 C 
ATOM     19  C   UNL     1       6.915   4.906  14.616  0.00  0.00    +0.000 A 
ATOM     20  C   UNL     1       5.765   4.111  14.805  0.00  0.00    +0.000 A 
ATOM     21  C   UNL     1       5.605   4.074  16.166  0.00  0.00    +0.000 A 
ATOM     22  O   UNL     1       6.590   4.801  16.757  0.00  0.00    +0.000 OA
ATOM     23  N   UNL     1       7.421   5.325  15.779  0.00  0.00    +0.000 NA
ENDBRANCH  17  21
ENDBRANCH  16  17
ENDBRANCH  15  16
ENDBRANCH   1  15
TORSDOF 5
ENDMDL
MODEL 7
REMARK VINA RESULT:      -7.5      2.574      8.501
REMARK  Name = 
REMARK  9 active torsions:
REMARK  status: ('A' for Active; 'I' for Inactive)
REMARK    1  A    between atoms: C_1  and  C_2
REMARK    2  A    between atoms: C_4  and  C_5
REMARK    3  A    between atoms: C_5  and  C_6
REMARK    4  A    between atoms: C_6  and  O_7
REMARK    5  A    between atoms: O_7  and  C_8
REMARK    6  A    between atoms: C_9  and  C_10
REMARK    7  A    between atoms: C_12  and  C_13
REMARK    8  A    between atoms: N_16  and  C_17
REMARK    9  A    between atoms: C_20  and  C_21
REMARK                            x       y       z     vdW  Elec       q    Type
REMARK                         _______ _______ _______ _____ _____    ______ ____
ROOT
ATOM      1  C   UNL     1       2.002   7.365  19.495  0.00  0.00    +0.000 A 
ATOM      2  C   UNL     1       2.639   6.120  19.659  0.00  0.00    +0.000 A 
ATOM      3  C   UNL     1       2.321   5.078  20.695  0.00  0.00    +0.000 C 
ATOM      4  C   UNL     1       3.696   5.780  18.789  0.00  0.00    +0.000 A 
ATOM      5  C   UNL     1       4.086   6.598  17.727  0.00  0.00    +0.000 A 
ATOM      6  C   UNL     1       3.395   7.790  17.521  0.00  0.00    +0.000 A 
ATOM      7  C   UNL     1       2.354   8.179  18.384  0.00  0.00    +0.000 A 
ATOM      8  C   UNL     1       1.631   9.470  18.100  0.00  0.00    +0.000 C 
ENDROOT
BRANCH   5   9
ATOM      9  C   UNL     1       5.185   6.182  16.867  0.00  0.00    +0.000 A 
ATOM     10  N   UNL     1       6.417   6.800  16.893  0.00  0.00    +0.000 NA
ATOM     11  N   UNL     1       7.172   6.195  15.989  0.00  0.00    +0.000 NA
ATOM     12  N   UNL     1       6.379   5.251  15.468  0.00  0.00    +0.000 N 
ATOM     13  C   UNL     1       6.825   4.386  14.410  0.00  0.00    +0.000 C 
ATOM     14  N   UNL     1       5.129   5.189  15.961  0.00  0.00    +0.000 NA
ENDBRANCH   5   9
BRANCH   1  15
ATOM     15  O   UNL     1       1.024   7.913  20.292  0.00  0.00    +0.000 OA
BRANCH  15  16
ATOM     16  C   UNL     1       1.408   8.539  21.516  0.00  0.00    +0.000 C 
BRANCH  16  17
ATOM     17  C   UNL     1       0.188   8.971  22.324  0.00  0.00    +0.000 C 
BRANCH  17  21
ATOM     18  C   UNL     1      -0.515  13.836  20.999  0.00  0.00    +0.000 C 
ATOM     19  C   UNL     1      -0.403  12.531  21.687  0.00  0.00    +0.000 A 
ATOM     20  C   UNL     1      -0.012  11.295  21.132  0.00  0.00    +0.000 A 
ATOM     21  C   UNL     1      -0.076  10.420  22.186  0.00  0.00    +0.000 A 
ATOM     22  O   UNL     1      -0.480  11.085  23.301  0.00  0.00    +0.000 OA
ATOM     23  N   UNL     1      -0.684  12.420  22.988  0.00  0.00    +0.000 NA
ENDBRANCH  17  21
ENDBRANCH  16  17
ENDBRANCH  15  16
ENDBRANCH   1  15
TORSDOF 5
ENDMDL
MODEL 8
REMARK VINA RESULT:      -7.5      1.304      1.669
REMARK  Name = 
REMARK  9 active torsions:
REMARK  status: ('A' for Active; 'I' for Inactive)
REMARK    1  A    between atoms: C_1  and  C_2
REMARK    2  A    between atoms: C_4  and  C_5
REMARK    3  A    between atoms: C_5  and  C_6
REMARK    4  A    between atoms: C_6  and  O_7
REMARK    5  A    between atoms: O_7  and  C_8
REMARK    6  A    between atoms: C_9  and  C_10
REMARK    7  A    between atoms: C_12  and  C_13
REMARK    8  A    between atoms: N_16  and  C_17
REMARK    9  A    between atoms: C_20  and  C_21
REMARK                            x       y       z     vdW  Elec       q    Type
REMARK                         _______ _______ _______ _____ _____    ______ ____
ROOT
ATOM      1  C   UNL     1       4.038   5.377  18.148  0.00  0.00    +0.000 A 
ATOM      2  C   UNL     1       3.841   6.665  17.612  0.00  0.00    +0.000 A 
ATOM      3  C   UNL     1       4.430   7.209  16.341  0.00  0.00    +0.000 C 
ATOM      4  C   UNL     1       3.022   7.573  18.316  0.00  0.00    +0.000 A 
ATOM      5  C   UNL     1       2.341   7.221  19.483  0.00  0.00    +0.000 A 
ATOM      6  C   UNL     1       2.475   5.920  19.959  0.00  0.00    +0.000 A 
ATOM      7  C   UNL     1       3.306   4.992  19.303  0.00  0.00    +0.000 A 
ATOM      8  C   UNL     1       3.396   3.593  19.856  0.00  0.00    +0.000 C 
ENDROOT
BRANCH   5   9
ATOM      9  C   UNL     1       1.510   8.210  20.155  0.00  0.00    +0.000 A 
ATOM     10  N   UNL     1       1.146   8.091  21.480  0.00  0.00    +0.000 NA
ATOM     11  N   UNL     1       0.388   9.137  21.767  0.00  0.00    +0.000 NA
ATOM     12  N   UNL     1       0.330   9.833  20.626  0.00  0.00    +0.000 N 
ATOM     13  C   UNL     1      -0.441  11.042  20.513  0.00  0.00    +0.000 C 
ATOM     14  N   UNL     1       0.998   9.314  19.580  0.00  0.00    +0.000 NA
ENDBRANCH   5   9
BRANCH   1  15
ATOM     15  O   UNL     1       4.866   4.392  17.666  0.00  0.00    +0.000 OA
BRANCH  15  16
ATOM     16  C   UNL     1       6.199   4.308  18.170  0.00  0.00    +0.000 C 
BRANCH  16  17
ATOM     17  C   UNL     1       7.174   5.084  17.290  0.00  0.00    +0.000 C 
BRANCH  17  21
ATOM     18  C   UNL     1       5.898   3.465  12.635  0.00  0.00    +0.000 C 
ATOM     19  C   UNL     1       6.468   4.145  13.818  0.00  0.00    +0.000 A 
ATOM     20  C   UNL     1       6.186   3.892  15.177  0.00  0.00    +0.000 A 
ATOM     21  C   UNL     1       6.972   4.788  15.854  0.00  0.00    +0.000 A 
ATOM     22  O   UNL     1       7.678   5.533  14.963  0.00  0.00    +0.000 OA
ATOM     23  N   UNL     1       7.363   5.126  13.676  0.00  0.00    +0.000 NA
ENDBRANCH  17  21
ENDBRANCH  16  17
ENDBRANCH  15  16
ENDBRANCH   1  15
TORSDOF 5
ENDMDL
MODEL 9
REMARK VINA RESULT:      -7.4      0.757      1.024
REMARK  Name = 
REMARK  9 active torsions:
REMARK  status: ('A' for Active; 'I' for Inactive)
REMARK    1  A    between atoms: C_1  and  C_2
REMARK    2  A    between atoms: C_4  and  C_5
REMARK    3  A    between atoms: C_5  and  C_6
REMARK    4  A    between atoms: C_6  and  O_7
REMARK    5  A    between atoms: O_7  and  C_8
REMARK    6  A    between atoms: C_9  and  C_10
REMARK    7  A    between atoms: C_12  and  C_13
REMARK    8  A    between atoms: N_16  and  C_17
REMARK    9  A    between atoms: C_20  and  C_21
REMARK                            x       y       z     vdW  Elec       q    Type
REMARK                         _______ _______ _______ _____ _____    ______ ____
ROOT
ATOM      1  C   UNL     1       2.707   5.469  19.124  0.00  0.00    +0.000 A 
ATOM      2  C   UNL     1       2.840   6.754  18.562  0.00  0.00    +0.000 A 
ATOM      3  C   UNL     1       3.514   7.101  17.264  0.00  0.00    +0.000 C 
ATOM      4  C   UNL     1       2.310   7.857  19.263  0.00  0.00    +0.000 A 
ATOM      5  C   UNL     1       1.594   7.717  20.454  0.00  0.00    +0.000 A 
ATOM      6  C   UNL     1       1.396   6.434  20.959  0.00  0.00    +0.000 A 
ATOM      7  C   UNL     1       1.934   5.309  20.305  0.00  0.00    +0.000 A 
ATOM      8  C   UNL     1       1.669   3.946  20.890  0.00  0.00    +0.000 C 
ENDROOT
BRANCH   5   9
ATOM      9  C   UNL     1       1.073   8.901  21.122  0.00  0.00    +0.000 A 
ATOM     10  N   UNL     1       1.100   9.048  22.493  0.00  0.00    +0.000 NA
ATOM     11  N   UNL     1       0.541  10.216  22.767  0.00  0.00    +0.000 NA
ATOM     12  N   UNL     1       0.210  10.718  21.571  0.00  0.00    +0.000 N 
ATOM     13  C   UNL     1      -0.463  11.982  21.440  0.00  0.00    +0.000 C 
ATOM     14  N   UNL     1       0.505   9.953  20.505  0.00  0.00    +0.000 NA
ENDBRANCH   5   9
BRANCH   1  15
ATOM     15  O   UNL     1       3.232   4.292  18.646  0.00  0.00    +0.000 OA
BRANCH  15  16
ATOM     16  C   UNL     1       4.571   4.289  18.151  0.00  0.00    +0.000 C 
BRANCH  16  17
ATOM     17  C   UNL     1       4.669   3.547  16.821  0.00  0.00    +0.000 C 
BRANCH  17  21
ATOM     18  C   UNL     1       7.739   5.181  13.103  0.00  0.00    +0.000 C 
ATOM     19  C   UNL     1       7.032   4.910  14.374  0.00  0.00    +0.000 A 
ATOM     20  C   UNL     1       5.941   4.041  14.585  0.00  0.00    +0.000 A 
ATOM     21  C   UNL     1       5.675   4.159  15.925  0.00  0.00    +0.000 A 
ATOM     22  O   UNL     1       6.545   5.042  16.483  0.00  0.00    +0.000 OA
ATOM     23  N   UNL     1       7.406   5.515  15.504  0.00  0.00    +0.000 NA
ENDBRANCH  17  21
ENDBRANCH  16  17
ENDBRANCH  15  16
ENDBRANCH   1  15
TORSDOF 5
ENDMDL
