MODEL 1
REMARK VINA RESULT:      -7.8      0.000      0.000
REMARK  Name = 
REMARK  6 active torsions:
REMARK  status: ('A' for Active; 'I' for Inactive)
REMARK    1  A    between atoms: C_1  and  C_2
REMARK    2  A    between atoms: C_2  and  C_4
REMARK    3  A    between atoms: C_5  and  O_6
REMARK    4  A    between atoms: N_9  and  C_10
REMARK    5  A    between atoms: C_13  and  C_14
REMARK    6  A    between atoms: C_18  and  C_19
REMARK                            x       y       z     vdW  Elec       q    Type
REMARK                         _______ _______ _______ _____ _____    ______ ____
ROOT
ATOM      1  C   UNL     1       3.706   5.807  18.292  0.00  0.00    +0.000 C 
ATOM      2  C   UNL     1       3.879   6.858  17.478  0.00  0.00    +0.000 C 
ATOM      3  C   UNL     1       2.928   7.909  17.891  0.00  0.00    +0.000 C 
ATOM      4  O   UNL     1       2.895   9.007  17.361  0.00  0.00    +0.000 OA
ATOM      5  N   UNL     1       2.224   7.417  18.997  0.00  0.00    +0.000 N 
ATOM      6  C   UNL     1       2.568   6.018  19.272  0.00  0.00    +0.000 C 
ENDROOT
BRANCH   5   7
ATOM      7  C   UNL     1       1.411   8.245  19.825  0.00  0.00    +0.000 A 
ATOM      8  C   UNL     1       1.388   8.060  21.218  0.00  0.00    +0.000 A 
ATOM      9  C   UNL     1       0.770   8.980  22.074  0.00  0.00    +0.000 A 
ATOM     10  C   UNL     1       0.148  10.114  21.557  0.00  0.00    +0.000 A 
ATOM     11  C   UNL     1      -0.414  11.167  22.460  0.00  0.00    +0.000 C 
ATOM     12  C   UNL     1       0.085  10.251  20.171  0.00  0.00    +0.000 A 
ATOM     13  F   UNL     1      -0.513  11.325  19.637  0.00  0.00    +0.000 F 
ATOM     14  C   UNL     1       0.680   9.321  19.312  0.00  0.00    +0.000 A 
ENDBRANCH   5   7
BRANCH   6  15
ATOM     15  C   UNL     1       1.421   4.947  19.088  0.00  0.00    +0.000 C 
ATOM     16  C   UNL     1       1.450   4.041  17.840  0.00  0.00    +0.000 C 
ATOM     17  C   UNL     1       2.227   2.734  17.986  0.00  0.00    +0.000 C 
ATOM     18  C   UNL     1       1.874   1.968  19.251  0.00  0.00    +0.000 C 
ATOM     19  C   UNL     1       1.930   2.854  20.487  0.00  0.00    +0.000 C 
ATOM     20  C   UNL     1       1.065   4.096  20.326  0.00  0.00    +0.000 C 
ENDBRANCH   6  15
BRANCH   1  22
ATOM     21  C   UNL     1       5.148   3.915  19.323  0.00  0.00    +0.000 C 
ATOM     22  C   UNL     1       4.587   4.627  18.126  0.00  0.00    +0.000 C 
ATOM     23  O   UNL     1       4.841   4.213  16.994  0.00  0.00    +0.000 OA
ENDBRANCH   1  22
BRANCH   2  24
ATOM     24  O   UNL     1       4.790   7.021  16.468  0.00  0.00    +0.000 OA
ATOM     25  H   UNL     1       5.229   6.154  16.322  0.00  0.00    +0.000 HD
ENDBRANCH   2  24
TORSDOF 4
ENDMDL
MODEL 2
REMARK VINA RESULT:      -7.6      2.237      3.969
REMARK  Name = 
REMARK  6 active torsions:
REMARK  status: ('A' for Active; 'I' for Inactive)
REMARK    1  A    between atoms: C_1  and  C_2
REMARK    2  A    between atoms: C_2  and  C_4
REMARK    3  A    between atoms: C_5  and  O_6
REMARK    4  A    between atoms: N_9  and  C_10
REMARK    5  A    between atoms: C_13  and  C_14
REMARK    6  A    between atoms: C_18  and  C_19
REMARK                            x       y       z     vdW  Elec       q    Type
REMARK                         _______ _______ _______ _____ _____    ______ ____
ROOT
ATOM      1  C   UNL     1       2.651   3.774  18.533  0.00  0.00    +0.000 C 
ATOM      2  C   UNL     1       2.053   3.743  19.732  0.00  0.00    +0.000 C 
ATOM      3  C   UNL     1       1.872   5.138  20.182  0.00  0.00    +0.000 C 
ATOM      4  O   UNL     1       1.301   5.422  21.221  0.00  0.00    +0.000 OA
ATOM      5  N   UNL     1       2.373   5.966  19.168  0.00  0.00    +0.000 N 
ATOM      6  C   UNL     1       3.007   5.184  18.103  0.00  0.00    +0.000 C 
ENDROOT
BRANCH   5   7
ATOM      7  C   UNL     1       2.133   7.371  19.131  0.00  0.00    +0.000 A 
ATOM      8  C   UNL     1       2.192   8.074  17.915  0.00  0.00    +0.000 A 
ATOM      9  C   UNL     1       1.761   9.402  17.810  0.00  0.00    +0.000 A 
ATOM     10  C   UNL     1       1.261  10.070  18.926  0.00  0.00    +0.000 A 
ATOM     11  C   UNL     1       0.686  11.447  18.808  0.00  0.00    +0.000 C 
ATOM     12  C   UNL     1       1.291   9.408  20.152  0.00  0.00    +0.000 A 
ATOM     13  F   UNL     1       0.826  10.023  21.249  0.00  0.00    +0.000 F 
ATOM     14  C   UNL     1       1.744   8.089  20.265  0.00  0.00    +0.000 A 
ENDBRANCH   5   7
BRANCH   6  15
ATOM     15  C   UNL     1       4.564   5.369  17.906  0.00  0.00    +0.000 C 
ATOM     16  C   UNL     1       5.387   4.179  17.369  0.00  0.00    +0.000 C 
ATOM     17  C   UNL     1       5.514   4.093  15.849  0.00  0.00    +0.000 C 
ATOM     18  C   UNL     1       5.916   5.412  15.209  0.00  0.00    +0.000 C 
ATOM     19  C   UNL     1       5.042   6.564  15.684  0.00  0.00    +0.000 C 
ATOM     20  C   UNL     1       5.024   6.663  17.202  0.00  0.00    +0.000 C 
ENDBRANCH   6  15
BRANCH   1  22
ATOM     21  C   UNL     1       3.707   1.406  18.473  0.00  0.00    +0.000 C 
ATOM     22  C   UNL     1       2.897   2.494  17.828  0.00  0.00    +0.000 C 
ATOM     23  O   UNL     1       2.409   2.313  16.711  0.00  0.00    +0.000 OA
ENDBRANCH   1  22
BRANCH   2  24
ATOM     24  O   UNL     1       1.606   2.660  20.441  0.00  0.00    +0.000 OA
ATOM     25  H   UNL     1       1.836   2.809  21.385  0.00  0.00    +0.000 HD
ENDBRANCH   2  24
TORSDOF 4
ENDMDL
MODEL 3
REMARK VINA RESULT:      -7.6      4.315      7.265
REMARK  Name = 
REMARK  6 active torsions:
REMARK  status: ('A' for Active; 'I' for Inactive)
REMARK    1  A    between atoms: C_1  and  C_2
REMARK    2  A    between atoms: C_2  and  C_4
REMARK    3  A    between atoms: C_5  and  O_6
REMARK    4  A    between atoms: N_9  and  C_10
REMARK    5  A    between atoms: C_13  and  C_14
REMARK    6  A    between atoms: C_18  and  C_19
REMARK                            x       y       z     vdW  Elec       q    Type
REMARK                         _______ _______ _______ _____ _____    ______ ____
ROOT
ATOM      1  C   UNL     1       4.695   5.072  18.513  0.00  0.00    +0.000 C 
ATOM      2  C   UNL     1       5.976   4.984  18.898  0.00  0.00    +0.000 C 
ATOM      3  C   UNL     1       6.770   4.556  17.730  0.00  0.00    +0.000 C 
ATOM      4  O   UNL     1       7.984   4.444  17.769  0.00  0.00    +0.000 OA
ATOM      5  N   UNL     1       5.884   4.431  16.652  0.00  0.00    +0.000 N 
ATOM      6  C   UNL     1       4.494   4.631  17.075  0.00  0.00    +0.000 C 
ENDROOT
BRANCH   5   7
ATOM      7  C   UNL     1       6.324   4.291  15.303  0.00  0.00    +0.000 A 
ATOM      8  C   UNL     1       5.613   3.482  14.400  0.00  0.00    +0.000 A 
ATOM      9  C   UNL     1       5.893   3.487  13.028  0.00  0.00    +0.000 A 
ATOM     10  C   UNL     1       6.902   4.302  12.519  0.00  0.00    +0.000 A 
ATOM     11  C   UNL     1       7.137   4.410  11.044  0.00  0.00    +0.000 C 
ATOM     12  C   UNL     1       7.671   5.032  13.423  0.00  0.00    +0.000 A 
ATOM     13  F   UNL     1       8.656   5.820  12.969  0.00  0.00    +0.000 F 
ATOM     14  C   UNL     1       7.410   5.011  14.797  0.00  0.00    +0.000 A 
ENDBRANCH   5   7
BRANCH   6  15
ATOM     15  C   UNL     1       3.524   3.388  16.967  0.00  0.00    +0.000 C 
ATOM     16  C   UNL     1       3.800   2.157  17.855  0.00  0.00    +0.000 C 
ATOM     17  C   UNL     1       3.135   2.169  19.230  0.00  0.00    +0.000 C 
ATOM     18  C   UNL     1       1.658   2.526  19.175  0.00  0.00    +0.000 C 
ATOM     19  C   UNL     1       1.407   3.790  18.365  0.00  0.00    +0.000 C 
ATOM     20  C   UNL     1       2.010   3.689  16.971  0.00  0.00    +0.000 C 
ENDBRANCH   6  15
BRANCH   1  22
ATOM     21  C   UNL     1       2.794   6.707  19.174  0.00  0.00    +0.000 C 
ATOM     22  C   UNL     1       3.688   5.544  19.493  0.00  0.00    +0.000 C 
ATOM     23  O   UNL     1       3.569   4.958  20.570  0.00  0.00    +0.000 OA
ENDBRANCH   1  22
BRANCH   2  24
ATOM     24  O   UNL     1       6.528   5.279  20.116  0.00  0.00    +0.000 OA
ATOM     25  H   UNL     1       6.791   4.430  20.536  0.00  0.00    +0.000 HD
ENDBRANCH   2  24
TORSDOF 4
ENDMDL
MODEL 4
REMARK VINA RESULT:      -7.6      4.287      7.221
REMARK  Name = 
REMARK  6 active torsions:
REMARK  status: ('A' for Active; 'I' for Inactive)
REMARK    1  A    between atoms: C_1  and  C_2
REMARK    2  A    between atoms: C_2  and  C_4
REMARK    3  A    between atoms: C_5  and  O_6
REMARK    4  A    between atoms: N_9  and  C_10
REMARK    5  A    between atoms: C_13  and  C_14
REMARK    6  A    between atoms: C_18  and  C_19
REMARK                            x       y       z     vdW  Elec       q    Type
REMARK                         _______ _______ _______ _____ _____    ______ ____
ROOT
ATOM      1  C   UNL     1       4.617   5.062  18.542  0.00  0.00    +0.000 C 
ATOM      2  C   UNL     1       5.928   4.965  18.803  0.00  0.00    +0.000 C 
ATOM      3  C   UNL     1       6.616   4.627  17.541  0.00  0.00    +0.000 C 
ATOM      4  O   UNL     1       7.829   4.529  17.462  0.00  0.00    +0.000 OA
ATOM      5  N   UNL     1       5.635   4.563  16.542  0.00  0.00    +0.000 N 
ATOM      6  C   UNL     1       4.289   4.714  17.103  0.00  0.00    +0.000 C 
ENDROOT
BRANCH   5   7
ATOM      7  C   UNL     1       5.951   4.519  15.152  0.00  0.00    +0.000 A 
ATOM      8  C   UNL     1       7.129   5.115  14.669  0.00  0.00    +0.000 A 
ATOM      9  C   UNL     1       7.572   4.913  13.356  0.00  0.00    +0.000 A 
ATOM     10  C   UNL     1       6.842   4.109  12.484  0.00  0.00    +0.000 A 
ATOM     11  C   UNL     1       7.359   3.784  11.116  0.00  0.00    +0.000 C 
ATOM     12  C   UNL     1       5.625   3.595  12.930  0.00  0.00    +0.000 A 
ATOM     13  F   UNL     1       4.892   2.824  12.115  0.00  0.00    +0.000 F 
ATOM     14  C   UNL     1       5.168   3.815  14.233  0.00  0.00    +0.000 A 
ENDBRANCH   5   7
BRANCH   6  15
ATOM     15  C   UNL     1       3.322   3.469  16.999  0.00  0.00    +0.000 C 
ATOM     16  C   UNL     1       3.685   2.186  17.775  0.00  0.00    +0.000 C 
ATOM     17  C   UNL     1       3.145   2.100  19.202  0.00  0.00    +0.000 C 
ATOM     18  C   UNL     1       1.666   2.440  19.301  0.00  0.00    +0.000 C 
ATOM     19  C   UNL     1       1.335   3.751  18.601  0.00  0.00    +0.000 C 
ATOM     20  C   UNL     1       1.813   3.749  17.156  0.00  0.00    +0.000 C 
ENDBRANCH   6  15
BRANCH   1  22
ATOM     21  C   UNL     1       2.750   6.603  19.471  0.00  0.00    +0.000 C 
ATOM     22  C   UNL     1       3.701   5.453  19.639  0.00  0.00    +0.000 C 
ATOM     23  O   UNL     1       3.703   4.810  20.691  0.00  0.00    +0.000 OA
ENDBRANCH   1  22
BRANCH   2  24
ATOM     24  O   UNL     1       6.587   5.186  19.983  0.00  0.00    +0.000 OA
ATOM     25  H   UNL     1       5.957   5.623  20.598  0.00  0.00    +0.000 HD
ENDBRANCH   2  24
TORSDOF 4
ENDMDL
MODEL 5
REMARK VINA RESULT:      -7.6      0.851      1.053
REMARK  Name = 
REMARK  6 active torsions:
REMARK  status: ('A' for Active; 'I' for Inactive)
REMARK    1  A    between atoms: C_1  and  C_2
REMARK    2  A    between atoms: C_2  and  C_4
REMARK    3  A    between atoms: C_5  and  O_6
REMARK    4  A    between atoms: N_9  and  C_10
REMARK    5  A    between atoms: C_13  and  C_14
REMARK    6  A    between atoms: C_18  and  C_19
REMARK                            x       y       z     vdW  Elec       q    Type
REMARK                         _______ _______ _______ _____ _____    ______ ____
ROOT
ATOM      1  C   UNL     1       4.133   5.912  18.220  0.00  0.00    +0.000 C 
ATOM      2  C   UNL     1       4.085   6.898  17.313  0.00  0.00    +0.000 C 
ATOM      3  C   UNL     1       3.017   7.833  17.719  0.00  0.00    +0.000 C 
ATOM      4  O   UNL     1       2.780   8.862  17.108  0.00  0.00    +0.000 OA
ATOM      5  N   UNL     1       2.477   7.347  18.917  0.00  0.00    +0.000 N 
ATOM      6  C   UNL     1       3.049   6.045  19.273  0.00  0.00    +0.000 C 
ENDROOT
BRANCH   5   7
ATOM      7  C   UNL     1       1.608   8.121  19.742  0.00  0.00    +0.000 A 
ATOM      8  C   UNL     1       1.691   8.037  21.143  0.00  0.00    +0.000 A 
ATOM      9  C   UNL     1       1.005   8.928  21.976  0.00  0.00    +0.000 A 
ATOM     10  C   UNL     1       0.207   9.931  21.429  0.00  0.00    +0.000 A 
ATOM     11  C   UNL     1      -0.439  10.965  22.298  0.00  0.00    +0.000 C 
ATOM     12  C   UNL     1       0.046   9.956  20.045  0.00  0.00    +0.000 A 
ATOM     13  F   UNL     1      -0.721  10.901  19.483  0.00  0.00    +0.000 F 
ATOM     14  C   UNL     1       0.712   9.052  19.210  0.00  0.00    +0.000 A 
ENDBRANCH   5   7
BRANCH   6  15
ATOM     15  C   UNL     1       2.068   4.805  19.273  0.00  0.00    +0.000 C 
ATOM     16  C   UNL     1       2.574   3.463  18.704  0.00  0.00    +0.000 C 
ATOM     17  C   UNL     1       3.257   2.534  19.706  0.00  0.00    +0.000 C 
ATOM     18  C   UNL     1       2.465   2.358  20.992  0.00  0.00    +0.000 C 
ATOM     19  C   UNL     1       2.042   3.694  21.588  0.00  0.00    +0.000 C 
ATOM     20  C   UNL     1       1.285   4.543  20.577  0.00  0.00    +0.000 C 
ENDBRANCH   6  15
BRANCH   1  22
ATOM     21  C   UNL     1       5.330   4.117  16.782  0.00  0.00    +0.000 C 
ATOM     22  C   UNL     1       5.169   4.863  18.076  0.00  0.00    +0.000 C 
ATOM     23  O   UNL     1       5.922   4.618  19.020  0.00  0.00    +0.000 OA
ENDBRANCH   1  22
BRANCH   2  24
ATOM     24  O   UNL     1       4.886   7.099  16.220  0.00  0.00    +0.000 OA
ATOM     25  H   UNL     1       5.280   7.996  16.304  0.00  0.00    +0.000 HD
ENDBRANCH   2  24
TORSDOF 4
ENDMDL
MODEL 6
REMARK VINA RESULT:      -7.6      0.965      1.370
REMARK  Name = 
REMARK  6 active torsions:
REMARK  status: ('A' for Active; 'I' for Inactive)
REMARK    1  A    between atoms: C_1  and  C_2
REMARK    2  A    between atoms: C_2  and  C_4
REMARK    3  A    between atoms: C_5  and  O_6
REMARK    4  A    between atoms: N_9  and  C_10
REMARK    5  A    between atoms: C_13  and  C_14
REMARK    6  A    between atoms: C_18  and  C_19
REMARK                            x       y       z     vdW  Elec       q    Type
REMARK                         _______ _______ _______ _____ _____    ______ ____
ROOT
ATOM      1  C   UNL     1       3.743   5.662  18.254  0.00  0.00    +0.000 C 
ATOM      2  C   UNL     1       3.933   6.629  17.346  0.00  0.00    +0.000 C 
ATOM      3  C   UNL     1       3.086   7.777  17.726  0.00  0.00    +0.000 C 
ATOM      4  O   UNL     1       3.094   8.829  17.109  0.00  0.00    +0.000 OA
ATOM      5  N   UNL     1       2.423   7.427  18.909  0.00  0.00    +0.000 N 
ATOM      6  C   UNL     1       2.688   6.033  19.279  0.00  0.00    +0.000 C 
ENDROOT
BRANCH   5   7
ATOM      7  C   UNL     1       1.724   8.376  19.712  0.00  0.00    +0.000 A 
ATOM      8  C   UNL     1       1.096   9.486  19.121  0.00  0.00    +0.000 A 
ATOM      9  C   UNL     1       0.232  10.316  19.846  0.00  0.00    +0.000 A 
ATOM     10  C   UNL     1      -0.024  10.060  21.191  0.00  0.00    +0.000 A 
ATOM     11  C   UNL     1      -1.034  10.863  21.951  0.00  0.00    +0.000 C 
ATOM     12  C   UNL     1       0.671   9.019  21.804  0.00  0.00    +0.000 A 
ATOM     13  F   UNL     1       0.456   8.750  23.099  0.00  0.00    +0.000 F 
ATOM     14  C   UNL     1       1.553   8.203  21.088  0.00  0.00    +0.000 A 
ENDBRANCH   5   7
BRANCH   6  15
ATOM     15  C   UNL     1       1.461   5.037  19.253  0.00  0.00    +0.000 C 
ATOM     16  C   UNL     1       1.321   4.067  18.062  0.00  0.00    +0.000 C 
ATOM     17  C   UNL     1       2.020   2.718  18.220  0.00  0.00    +0.000 C 
ATOM     18  C   UNL     1       1.727   2.047  19.553  0.00  0.00    +0.000 C 
ATOM     19  C   UNL     1       1.948   2.991  20.727  0.00  0.00    +0.000 C 
ATOM     20  C   UNL     1       1.157   4.281  20.564  0.00  0.00    +0.000 C 
ENDBRANCH   6  15
BRANCH   1  22
ATOM     21  C   UNL     1       5.107   3.750  19.354  0.00  0.00    +0.000 C 
ATOM     22  C   UNL     1       4.528   4.411  18.136  0.00  0.00    +0.000 C 
ATOM     23  O   UNL     1       4.687   3.895  17.028  0.00  0.00    +0.000 OA
ENDBRANCH   1  22
BRANCH   2  24
ATOM     24  O   UNL     1       4.786   6.645  16.274  0.00  0.00    +0.000 OA
ATOM     25  H   UNL     1       4.581   7.448  15.745  0.00  0.00    +0.000 HD
ENDBRANCH   2  24
TORSDOF 4
ENDMDL
MODEL 7
REMARK VINA RESULT:      -7.3      1.624      2.384
REMARK  Name = 
REMARK  6 active torsions:
REMARK  status: ('A' for Active; 'I' for Inactive)
REMARK    1  A    between atoms: C_1  and  C_2
REMARK    2  A    between atoms: C_2  and  C_4
REMARK    3  A    between atoms: C_5  and  O_6
REMARK    4  A    between atoms: N_9  and  C_10
REMARK    5  A    between atoms: C_13  and  C_14
REMARK    6  A    between atoms: C_18  and  C_19
REMARK                            x       y       z     vdW  Elec       q    Type
REMARK                         _______ _______ _______ _____ _____    ______ ____
ROOT
ATOM      1  C   UNL     1       5.878   5.759  18.210  0.00  0.00    +0.000 C 
ATOM      2  C   UNL     1       5.724   6.386  17.035  0.00  0.00    +0.000 C 
ATOM      3  C   UNL     1       4.398   7.035  17.041  0.00  0.00    +0.000 C 
ATOM      4  O   UNL     1       4.003   7.728  16.119  0.00  0.00    +0.000 OA
ATOM      5  N   UNL     1       3.814   6.769  18.287  0.00  0.00    +0.000 N 
ATOM      6  C   UNL     1       4.640   5.853  19.080  0.00  0.00    +0.000 C 
ENDROOT
BRANCH   5   7
ATOM      7  C   UNL     1       2.651   7.447  18.755  0.00  0.00    +0.000 A 
ATOM      8  C   UNL     1       2.346   7.480  20.127  0.00  0.00    +0.000 A 
ATOM      9  C   UNL     1       1.337   8.305  20.638  0.00  0.00    +0.000 A 
ATOM     10  C   UNL     1       0.596   9.121  19.786  0.00  0.00    +0.000 A 
ATOM     11  C   UNL     1      -0.404  10.096  20.325  0.00  0.00    +0.000 C 
ATOM     12  C   UNL     1       0.830   9.019  18.415  0.00  0.00    +0.000 A 
ATOM     13  F   UNL     1       0.130   9.783  17.565  0.00  0.00    +0.000 F 
ATOM     14  C   UNL     1       1.821   8.178  17.899  0.00  0.00    +0.000 A 
ENDBRANCH   5   7
BRANCH   6  15
ATOM     15  C   UNL     1       4.031   4.430  19.400  0.00  0.00    +0.000 C 
ATOM     16  C   UNL     1       2.777   4.348  20.295  0.00  0.00    +0.000 C 
ATOM     17  C   UNL     1       1.436   4.420  19.565  0.00  0.00    +0.000 C 
ATOM     18  C   UNL     1       1.358   3.485  18.369  0.00  0.00    +0.000 C 
ATOM     19  C   UNL     1       2.562   3.635  17.449  0.00  0.00    +0.000 C 
ATOM     20  C   UNL     1       3.870   3.463  18.208  0.00  0.00    +0.000 C 
ENDBRANCH   6  15
BRANCH   1  22
ATOM     21  C   UNL     1       7.995   5.451  19.675  0.00  0.00    +0.000 C 
ATOM     22  C   UNL     1       7.162   5.071  18.485  0.00  0.00    +0.000 C 
ATOM     23  O   UNL     1       7.536   4.162  17.742  0.00  0.00    +0.000 OA
ENDBRANCH   1  22
BRANCH   2  24
ATOM     24  O   UNL     1       6.613   6.500  15.999  0.00  0.00    +0.000 OA
ATOM     25  H   UNL     1       6.135   6.910  15.244  0.00  0.00    +0.000 HD
ENDBRANCH   2  24
TORSDOF 4
ENDMDL
MODEL 8
REMARK VINA RESULT:      -7.1      2.153      3.985
REMARK  Name = 
REMARK  6 active torsions:
REMARK  status: ('A' for Active; 'I' for Inactive)
REMARK    1  A    between atoms: C_1  and  C_2
REMARK    2  A    between atoms: C_2  and  C_4
REMARK    3  A    between atoms: C_5  and  O_6
REMARK    4  A    between atoms: N_9  and  C_10
REMARK    5  A    between atoms: C_13  and  C_14
REMARK    6  A    between atoms: C_18  and  C_19
REMARK                            x       y       z     vdW  Elec       q    Type
REMARK                         _______ _______ _______ _____ _____    ______ ____
ROOT
ATOM      1  C   UNL     1       4.029   4.814  16.943  0.00  0.00    +0.000 C 
ATOM      2  C   UNL     1       3.016   4.120  17.481  0.00  0.00    +0.000 C 
ATOM      3  C   UNL     1       2.253   5.036  18.351  0.00  0.00    +0.000 C 
ATOM      4  O   UNL     1       1.238   4.693  18.933  0.00  0.00    +0.000 OA
ATOM      5  N   UNL     1       2.865   6.293  18.263  0.00  0.00    +0.000 N 
ATOM      6  C   UNL     1       4.095   6.236  17.467  0.00  0.00    +0.000 C 
ENDROOT
BRANCH   5   7
ATOM      7  C   UNL     1       2.257   7.484  18.758  0.00  0.00    +0.000 A 
ATOM      8  C   UNL     1       1.864   8.506  17.875  0.00  0.00    +0.000 A 
ATOM      9  C   UNL     1       1.082   9.587  18.299  0.00  0.00    +0.000 A 
ATOM     10  C   UNL     1       0.672   9.679  19.628  0.00  0.00    +0.000 A 
ATOM     11  C   UNL     1      -0.261  10.761  20.074  0.00  0.00    +0.000 C 
ATOM     12  C   UNL     1       1.139   8.720  20.525  0.00  0.00    +0.000 A 
ATOM     13  F   UNL     1       0.772   8.783  21.813  0.00  0.00    +0.000 F 
ATOM     14  C   UNL     1       1.941   7.653  20.109  0.00  0.00    +0.000 A 
ENDBRANCH   5   7
BRANCH   6  15
ATOM     15  C   UNL     1       5.453   6.528  18.220  0.00  0.00    +0.000 C 
ATOM     16  C   UNL     1       5.936   5.524  19.287  0.00  0.00    +0.000 C 
ATOM     17  C   UNL     1       6.818   4.386  18.777  0.00  0.00    +0.000 C 
ATOM     18  C   UNL     1       7.947   4.864  17.877  0.00  0.00    +0.000 C 
ATOM     19  C   UNL     1       7.445   5.789  16.776  0.00  0.00    +0.000 C 
ATOM     20  C   UNL     1       6.651   6.956  17.345  0.00  0.00    +0.000 C 
ENDBRANCH   6  15
BRANCH   1  22
ATOM     21  C   UNL     1       5.254   4.775  14.658  0.00  0.00    +0.000 C 
ATOM     22  C   UNL     1       4.921   4.134  15.975  0.00  0.00    +0.000 C 
ATOM     23  O   UNL     1       5.414   3.042  16.265  0.00  0.00    +0.000 OA
ENDBRANCH   1  22
BRANCH   2  24
ATOM     24  O   UNL     1       2.656   2.817  17.261  0.00  0.00    +0.000 OA
ATOM     25  H   UNL     1       3.361   2.402  16.717  0.00  0.00    +0.000 HD
ENDBRANCH   2  24
TORSDOF 4
ENDMDL
MODEL 9
REMARK VINA RESULT:      -7.0      4.048      7.003
REMARK  Name = 
REMARK  6 active torsions:
REMARK  status: ('A' for Active; 'I' for Inactive)
REMARK    1  A    between atoms: C_1  and  C_2
REMARK    2  A    between atoms: C_2  and  C_4
REMARK    3  A    between atoms: C_5  and  O_6
REMARK    4  A    between atoms: N_9  and  C_10
REMARK    5  A    between atoms: C_13  and  C_14
REMARK    6  A    between atoms: C_18  and  C_19
REMARK                            x       y       z     vdW  Elec       q    Type
REMARK                         _______ _______ _______ _____ _____    ______ ____
ROOT
ATOM      1  C   UNL     1       3.557   2.878  19.529  0.00  0.00    +0.000 C 
ATOM      2  C   UNL     1       2.699   2.320  18.664  0.00  0.00    +0.000 C 
ATOM      3  C   UNL     1       3.060   2.783  17.309  0.00  0.00    +0.000 C 
ATOM      4  O   UNL     1       2.483   2.393  16.308  0.00  0.00    +0.000 OA
ATOM      5  N   UNL     1       4.182   3.612  17.442  0.00  0.00    +0.000 N 
ATOM      6  C   UNL     1       4.519   3.835  18.851  0.00  0.00    +0.000 C 
ENDROOT
BRANCH   5   7
ATOM      7  C   UNL     1       4.968   4.031  16.328  0.00  0.00    +0.000 A 
ATOM      8  C   UNL     1       6.321   4.374  16.497  0.00  0.00    +0.000 A 
ATOM      9  C   UNL     1       7.170   4.586  15.404  0.00  0.00    +0.000 A 
ATOM     10  C   UNL     1       6.685   4.465  14.104  0.00  0.00    +0.000 A 
ATOM     11  C   UNL     1       7.602   4.571  12.925  0.00  0.00    +0.000 C 
ATOM     12  C   UNL     1       5.323   4.220  13.933  0.00  0.00    +0.000 A 
ATOM     13  F   UNL     1       4.820   4.107  12.696  0.00  0.00    +0.000 F 
ATOM     14  C   UNL     1       4.468   4.032  15.023  0.00  0.00    +0.000 A 
ENDBRANCH   5   7
BRANCH   6  15
ATOM     15  C   UNL     1       4.375   5.309  19.400  0.00  0.00    +0.000 C 
ATOM     16  C   UNL     1       5.170   6.436  18.709  0.00  0.00    +0.000 C 
ATOM     17  C   UNL     1       4.465   7.127  17.543  0.00  0.00    +0.000 C 
ATOM     18  C   UNL     1       3.039   7.540  17.870  0.00  0.00    +0.000 C 
ATOM     19  C   UNL     1       2.239   6.395  18.475  0.00  0.00    +0.000 C 
ATOM     20  C   UNL     1       2.941   5.803  19.689  0.00  0.00    +0.000 C 
ENDBRANCH   6  15
BRANCH   1  22
ATOM     21  C   UNL     1       2.247   2.939  21.767  0.00  0.00    +0.000 C 
ATOM     22  C   UNL     1       3.448   2.526  20.965  0.00  0.00    +0.000 C 
ATOM     23  O   UNL     1       4.342   1.867  21.498  0.00  0.00    +0.000 OA
ENDBRANCH   1  22
BRANCH   2  24
ATOM     24  O   UNL     1       1.689   1.428  18.910  0.00  0.00    +0.000 OA
ATOM     25  H   UNL     1       1.993   0.827  19.626  0.00  0.00    +0.000 HD
ENDBRANCH   2  24
TORSDOF 4
ENDMDL
