MODEL 1
REMARK VINA RESULT:      -8.0      0.000      0.000
REMARK  Name = 
REMARK  7 active torsions:
REMARK  status: ('A' for Active; 'I' for Inactive)
REMARK    1  A    between atoms: C_1  and  C_2
REMARK    2  A    between atoms: C_2  and  C_3
REMARK    3  A    between atoms: C_2  and  C_4
REMARK    4  A    between atoms: N_6  and  C_7
REMARK    5  A    between atoms: C_7  and  C_8
REMARK    6  A    between atoms: C_22  and  N_23
REMARK    7  A    between atoms: C_24  and  O_25
REMARK                            x       y       z     vdW  Elec       q    Type
REMARK                         _______ _______ _______ _____ _____    ______ ____
ROOT
ATOM      1  C   UNL     1       6.575   4.434  14.997  0.00  0.00    +0.000 C 
ATOM      2  O   UNL     1       7.774   4.718  15.047  0.00  0.00    +0.000 OA
ATOM      3  N   UNL     1       5.850   4.082  16.126  0.00  0.00    +0.000 N 
ATOM      4  C   UNL     1       6.446   4.271  17.444  0.00  0.00    +0.000 C 
ATOM      5  C   UNL     1       5.539   5.175  18.284  0.00  0.00    +0.000 C 
ATOM      6  C   UNL     1       4.102   4.604  18.403  0.00  0.00    +0.000 C 
ATOM      7  C   UNL     1       3.554   4.323  16.977  0.00  0.00    +0.000 C 
ATOM      8  C   UNL     1       4.519   3.475  16.142  0.00  0.00    +0.000 C 
ATOM      9  C   UNL     1       3.181   5.566  19.133  0.00  0.00    +0.000 A 
ATOM     10  C   UNL     1       2.891   6.886  18.795  0.00  0.00    +0.000 A 
ATOM     11  C   UNL     1       1.993   7.612  19.582  0.00  0.00    +0.000 A 
ATOM     12  C   UNL     1       1.399   7.026  20.705  0.00  0.00    +0.000 A 
ATOM     13  C   UNL     1       1.683   5.704  21.040  0.00  0.00    +0.000 A 
ATOM     14  C   UNL     1       2.561   4.979  20.239  0.00  0.00    +0.000 A 
ATOM     15  C   UNL     1       2.921   3.533  20.404  0.00  0.00    +0.000 C 
ATOM     16  C   UNL     1       4.022   3.318  19.313  0.00  0.00    +0.000 C 
ENDROOT
BRANCH  15  17
ATOM     17  N   UNL     1       1.756   2.669  20.226  0.00  0.00    +0.000 NA
ATOM     18  H   UNL     1       1.809   1.894  20.887  0.00  0.00    +0.000 HD
ATOM     19  H   UNL     1       1.802   2.244  19.300  0.00  0.00    +0.000 HD
ENDBRANCH  15  17
BRANCH  16  20
ATOM     20  O   UNL     1       5.273   3.023  19.955  0.00  0.00    +0.000 OA
ATOM     21  H   UNL     1       5.636   3.858  20.298  0.00  0.00    +0.000 HD
ENDBRANCH  16  20
BRANCH   1  22
ATOM     22  C   UNL     1       5.870   4.412  13.641  0.00  0.00    +0.000 C 
BRANCH  22  25
ATOM     23  C   UNL     1       5.620   2.770  11.830  0.00  0.00    +0.000 C 
ATOM     24  O   UNL     1       4.427   3.029  11.708  0.00  0.00    +0.000 OA
ATOM     25  N   UNL     1       6.407   3.372  12.786  0.00  0.00    +0.000 N 
ATOM     26  H   UNL     1       7.415   3.286  12.737  0.00  0.00    +0.000 HD
BRANCH  23  28
ATOM     27  C   UNL     1       7.866   1.972  11.014  0.00  0.00    +0.000 C 
ATOM     28  C   UNL     1       6.355   1.773  10.935  0.00  0.00    +0.000 C 
ATOM     29  C   UNL     1       5.999   0.338  11.325  0.00  0.00    +0.000 C 
ENDBRANCH  23  28
ENDBRANCH  22  25
ENDBRANCH   1  22
TORSDOF 5
ENDMDL
MODEL 2
REMARK VINA RESULT:      -7.7      0.894      1.007
REMARK  Name = 
REMARK  7 active torsions:
REMARK  status: ('A' for Active; 'I' for Inactive)
REMARK    1  A    between atoms: C_1  and  C_2
REMARK    2  A    between atoms: C_2  and  C_3
REMARK    3  A    between atoms: C_2  and  C_4
REMARK    4  A    between atoms: N_6  and  C_7
REMARK    5  A    between atoms: C_7  and  C_8
REMARK    6  A    between atoms: C_22  and  N_23
REMARK    7  A    between atoms: C_24  and  O_25
REMARK                            x       y       z     vdW  Elec       q    Type
REMARK                         _______ _______ _______ _____ _____    ______ ____
ROOT
ATOM      1  C   UNL     1       6.376   4.648  14.539  0.00  0.00    +0.000 C 
ATOM      2  O   UNL     1       7.534   5.038  14.371  0.00  0.00    +0.000 OA
ATOM      3  N   UNL     1       5.801   4.557  15.799  0.00  0.00    +0.000 N 
ATOM      4  C   UNL     1       6.487   5.151  16.941  0.00  0.00    +0.000 C 
ATOM      5  C   UNL     1       5.561   6.169  17.614  0.00  0.00    +0.000 C 
ATOM      6  C   UNL     1       4.216   5.530  18.047  0.00  0.00    +0.000 C 
ATOM      7  C   UNL     1       3.579   4.823  16.820  0.00  0.00    +0.000 C 
ATOM      8  C   UNL     1       4.556   3.866  16.130  0.00  0.00    +0.000 C 
ATOM      9  C   UNL     1       3.260   6.572  18.601  0.00  0.00    +0.000 A 
ATOM     10  C   UNL     1       2.790   7.718  17.963  0.00  0.00    +0.000 A 
ATOM     11  C   UNL     1       1.889   8.551  18.631  0.00  0.00    +0.000 A 
ATOM     12  C   UNL     1       1.470   8.246  19.931  0.00  0.00    +0.000 A 
ATOM     13  C   UNL     1       1.933   7.097  20.567  0.00  0.00    +0.000 A 
ATOM     14  C   UNL     1       2.814   6.259  19.888  0.00  0.00    +0.000 A 
ATOM     15  C   UNL     1       3.351   4.951  20.383  0.00  0.00    +0.000 C 
ATOM     16  C   UNL     1       4.367   4.542  19.266  0.00  0.00    +0.000 C 
ENDROOT
BRANCH  15  17
ATOM     17  N   UNL     1       2.282   3.973  20.578  0.00  0.00    +0.000 NA
ATOM     18  H   UNL     1       2.689   3.043  20.666  0.00  0.00    +0.000 HD
ATOM     19  H   UNL     1       1.708   3.944  19.736  0.00  0.00    +0.000 HD
ENDBRANCH  15  17
BRANCH  16  20
ATOM     20  O   UNL     1       5.696   4.543  19.812  0.00  0.00    +0.000 OA
ATOM     21  H   UNL     1       6.127   5.374  19.545  0.00  0.00    +0.000 HD
ENDBRANCH  16  20
BRANCH   1  22
ATOM     22  C   UNL     1       5.559   4.194  13.330  0.00  0.00    +0.000 C 
BRANCH  22  25
ATOM     23  C   UNL     1       5.586   2.441  11.608  0.00  0.00    +0.000 C 
ATOM     24  O   UNL     1       4.410   2.645  11.327  0.00  0.00    +0.000 OA
ATOM     25  N   UNL     1       6.230   3.128  12.612  0.00  0.00    +0.000 N 
ATOM     26  H   UNL     1       7.239   3.080  12.690  0.00  0.00    +0.000 HD
BRANCH  23  28
ATOM     27  C   UNL     1       7.940   1.746  11.039  0.00  0.00    +0.000 C 
ATOM     28  C   UNL     1       6.457   1.424  10.871  0.00  0.00    +0.000 C 
ATOM     29  C   UNL     1       6.172   0.009  11.376  0.00  0.00    +0.000 C 
ENDBRANCH  23  28
ENDBRANCH  22  25
ENDBRANCH   1  22
TORSDOF 5
ENDMDL
MODEL 3
REMARK VINA RESULT:      -7.7      1.098      1.331
REMARK  Name = 
REMARK  7 active torsions:
REMARK  status: ('A' for Active; 'I' for Inactive)
REMARK    1  A    between atoms: C_1  and  C_2
REMARK    2  A    between atoms: C_2  and  C_3
REMARK    3  A    between atoms: C_2  and  C_4
REMARK    4  A    between atoms: N_6  and  C_7
REMARK    5  A    between atoms: C_7  and  C_8
REMARK    6  A    between atoms: C_22  and  N_23
REMARK    7  A    between atoms: C_24  and  O_25
REMARK                            x       y       z     vdW  Elec       q    Type
REMARK                         _______ _______ _______ _____ _____    ______ ____
ROOT
ATOM      1  C   UNL     1       6.827   4.595  15.959  0.00  0.00    +0.000 C 
ATOM      2  O   UNL     1       8.008   4.554  16.315  0.00  0.00    +0.000 OA
ATOM      3  N   UNL     1       5.786   4.243  16.806  0.00  0.00    +0.000 N 
ATOM      4  C   UNL     1       6.059   4.038  18.225  0.00  0.00    +0.000 C 
ATOM      5  C   UNL     1       5.175   4.979  19.050  0.00  0.00    +0.000 C 
ATOM      6  C   UNL     1       3.669   4.778  18.741  0.00  0.00    +0.000 C 
ATOM      7  C   UNL     1       3.450   4.902  17.209  0.00  0.00    +0.000 C 
ATOM      8  C   UNL     1       4.399   4.000  16.413  0.00  0.00    +0.000 C 
ATOM      9  C   UNL     1       2.812   5.796  19.473  0.00  0.00    +0.000 A 
ATOM     10  C   UNL     1       2.892   7.185  19.397  0.00  0.00    +0.000 A 
ATOM     11  C   UNL     1       1.994   7.963  20.133  0.00  0.00    +0.000 A 
ATOM     12  C   UNL     1       1.030   7.356  20.947  0.00  0.00    +0.000 A 
ATOM     13  C   UNL     1       0.944   5.968  21.017  0.00  0.00    +0.000 A 
ATOM     14  C   UNL     1       1.828   5.198  20.265  0.00  0.00    +0.000 A 
ATOM     15  C   UNL     1       1.831   3.703  20.159  0.00  0.00    +0.000 C 
ATOM     16  C   UNL     1       3.102   3.414  19.294  0.00  0.00    +0.000 C 
ENDROOT
BRANCH  15  17
ATOM     17  N   UNL     1       0.596   3.207  19.556  0.00  0.00    +0.000 NA
ATOM     18  H   UNL     1       0.809   2.403  18.967  0.00  0.00    +0.000 HD
ATOM     19  H   UNL     1       0.231   3.920  18.925  0.00  0.00    +0.000 HD
ENDBRANCH  15  17
BRANCH  16  20
ATOM     20  O   UNL     1       4.064   2.703  20.090  0.00  0.00    +0.000 OA
ATOM     21  H   UNL     1       4.945   2.872  19.713  0.00  0.00    +0.000 HD
ENDBRANCH  16  20
BRANCH   1  22
ATOM     22  C   UNL     1       6.494   4.993  14.522  0.00  0.00    +0.000 C 
BRANCH  22  25
ATOM     23  C   UNL     1       6.347   3.569  12.525  0.00  0.00    +0.000 C 
ATOM     24  O   UNL     1       7.186   4.243  11.935  0.00  0.00    +0.000 OA
ATOM     25  N   UNL     1       5.911   3.885  13.791  0.00  0.00    +0.000 N 
ATOM     26  H   UNL     1       5.373   3.211  14.322  0.00  0.00    +0.000 HD
BRANCH  23  28
ATOM     27  C   UNL     1       4.438   2.647  11.163  0.00  0.00    +0.000 C 
ATOM     28  C   UNL     1       5.716   2.311  11.928  0.00  0.00    +0.000 C 
ATOM     29  C   UNL     1       6.705   1.602  11.002  0.00  0.00    +0.000 C 
ENDBRANCH  23  28
ENDBRANCH  22  25
ENDBRANCH   1  22
TORSDOF 5
ENDMDL
MODEL 4
REMARK VINA RESULT:      -6.9      2.776      8.448
REMARK  Name = 
REMARK  7 active torsions:
REMARK  status: ('A' for Active; 'I' for Inactive)
REMARK    1  A    between atoms: C_1  and  C_2
REMARK    2  A    between atoms: C_2  and  C_3
REMARK    3  A    between atoms: C_2  and  C_4
REMARK    4  A    between atoms: N_6  and  C_7
REMARK    5  A    between atoms: C_7  and  C_8
REMARK    6  A    between atoms: C_22  and  N_23
REMARK    7  A    between atoms: C_24  and  O_25
REMARK                            x       y       z     vdW  Elec       q    Type
REMARK                         _______ _______ _______ _____ _____    ______ ____
ROOT
ATOM      1  C   UNL     1       3.248   6.237  18.540  0.00  0.00    +0.000 C 
ATOM      2  O   UNL     1       2.975   5.508  19.496  0.00  0.00    +0.000 OA
ATOM      3  N   UNL     1       4.348   6.009  17.725  0.00  0.00    +0.000 N 
ATOM      4  C   UNL     1       5.078   4.751  17.847  0.00  0.00    +0.000 C 
ATOM      5  C   UNL     1       5.096   4.044  16.489  0.00  0.00    +0.000 C 
ATOM      6  C   UNL     1       5.712   4.936  15.380  0.00  0.00    +0.000 C 
ATOM      7  C   UNL     1       4.969   6.299  15.362  0.00  0.00    +0.000 C 
ATOM      8  C   UNL     1       4.908   6.945  16.750  0.00  0.00    +0.000 C 
ATOM      9  C   UNL     1       5.614   4.274  14.016  0.00  0.00    +0.000 A 
ATOM     10  C   UNL     1       4.462   3.836  13.365  0.00  0.00    +0.000 A 
ATOM     11  C   UNL     1       4.570   3.267  12.094  0.00  0.00    +0.000 A 
ATOM     12  C   UNL     1       5.821   3.126  11.483  0.00  0.00    +0.000 A 
ATOM     13  C   UNL     1       6.972   3.570  12.129  0.00  0.00    +0.000 A 
ATOM     14  C   UNL     1       6.856   4.156  13.387  0.00  0.00    +0.000 A 
ATOM     15  C   UNL     1       7.969   4.754  14.191  0.00  0.00    +0.000 C 
ATOM     16  C   UNL     1       7.269   5.132  15.538  0.00  0.00    +0.000 C 
ENDROOT
BRANCH  15  17
ATOM     17  N   UNL     1       8.565   5.902  13.509  0.00  0.00    +0.000 NA
ATOM     18  H   UNL     1       8.361   6.750  14.037  0.00  0.00    +0.000 HD
ATOM     19  H   UNL     1       8.103   6.022  12.608  0.00  0.00    +0.000 HD
ENDBRANCH  15  17
BRANCH  16  20
ATOM     20  O   UNL     1       7.817   4.331  16.598  0.00  0.00    +0.000 OA
ATOM     21  H   UNL     1       7.217   4.397  17.361  0.00  0.00    +0.000 HD
ENDBRANCH  16  20
BRANCH   1  22
ATOM     22  C   UNL     1       2.383   7.467  18.269  0.00  0.00    +0.000 C 
BRANCH  22  25
ATOM     23  C   UNL     1       1.199   9.240  19.491  0.00  0.00    +0.000 C 
ATOM     24  O   UNL     1       0.959   9.849  18.453  0.00  0.00    +0.000 OA
ATOM     25  N   UNL     1       1.931   8.075  19.506  0.00  0.00    +0.000 N 
ATOM     26  H   UNL     1       1.946   7.498  20.338  0.00  0.00    +0.000 HD
BRANCH  23  28
ATOM     27  C   UNL     1      -0.244  10.889  20.735  0.00  0.00    +0.000 C 
ATOM     28  C   UNL     1       0.701   9.697  20.862  0.00  0.00    +0.000 C 
ATOM     29  C   UNL     1      -0.004   8.549  21.587  0.00  0.00    +0.000 C 
ENDBRANCH  23  28
ENDBRANCH  22  25
ENDBRANCH   1  22
TORSDOF 5
ENDMDL
MODEL 5
REMARK VINA RESULT:      -6.9      4.993      8.180
REMARK  Name = 
REMARK  7 active torsions:
REMARK  status: ('A' for Active; 'I' for Inactive)
REMARK    1  A    between atoms: C_1  and  C_2
REMARK    2  A    between atoms: C_2  and  C_3
REMARK    3  A    between atoms: C_2  and  C_4
REMARK    4  A    between atoms: N_6  and  C_7
REMARK    5  A    between atoms: C_7  and  C_8
REMARK    6  A    between atoms: C_22  and  N_23
REMARK    7  A    between atoms: C_24  and  O_25
REMARK                            x       y       z     vdW  Elec       q    Type
REMARK                         _______ _______ _______ _____ _____    ______ ____
ROOT
ATOM      1  C   UNL     1       2.563   7.017  19.208  0.00  0.00    +0.000 C 
ATOM      2  O   UNL     1       3.352   6.781  18.290  0.00  0.00    +0.000 OA
ATOM      3  N   UNL     1       1.964   8.258  19.368  0.00  0.00    +0.000 N 
ATOM      4  C   UNL     1       2.078   9.248  18.303  0.00  0.00    +0.000 C 
ATOM      5  C   UNL     1       0.676   9.667  17.849  0.00  0.00    +0.000 C 
ATOM      6  C   UNL     1      -0.173  10.215  19.026  0.00  0.00    +0.000 C 
ATOM      7  C   UNL     1      -0.176   9.169  20.173  0.00  0.00    +0.000 C 
ATOM      8  C   UNL     1       1.239   8.720  20.552  0.00  0.00    +0.000 C 
ATOM      9  C   UNL     1      -1.597  10.513  18.591  0.00  0.00    +0.000 A 
ATOM     10  C   UNL     1      -2.513   9.631  18.020  0.00  0.00    +0.000 A 
ATOM     11  C   UNL     1      -3.796  10.087  17.706  0.00  0.00    +0.000 A 
ATOM     12  C   UNL     1      -4.157  11.417  17.950  0.00  0.00    +0.000 A 
ATOM     13  C   UNL     1      -3.245  12.298  18.527  0.00  0.00    +0.000 A 
ATOM     14  C   UNL     1      -1.975  11.832  18.858  0.00  0.00    +0.000 A 
ATOM     15  C   UNL     1      -0.898  12.612  19.550  0.00  0.00    +0.000 C 
ATOM     16  C   UNL     1       0.316  11.626  19.535  0.00  0.00    +0.000 C 
ENDROOT
BRANCH  15  17
ATOM     17  N   UNL     1      -1.306  13.006  20.897  0.00  0.00    +0.000 NA
ATOM     18  H   UNL     1      -0.663  12.599  21.576  0.00  0.00    +0.000 HD
ATOM     19  H   UNL     1      -2.215  12.591  21.098  0.00  0.00    +0.000 HD
ENDBRANCH  15  17
BRANCH  16  20
ATOM     20  O   UNL     1       1.361  12.173  18.714  0.00  0.00    +0.000 OA
ATOM     21  H   UNL     1       1.550  11.532  18.008  0.00  0.00    +0.000 HD
ENDBRANCH  16  20
BRANCH   1  22
ATOM     22  C   UNL     1       2.274   5.929  20.242  0.00  0.00    +0.000 C 
BRANCH  22  25
ATOM     23  C   UNL     1       2.154   3.479  20.381  0.00  0.00    +0.000 C 
ATOM     24  O   UNL     1       2.287   3.503  21.601  0.00  0.00    +0.000 OA
ATOM     25  N   UNL     1       2.176   4.624  19.618  0.00  0.00    +0.000 N 
ATOM     26  H   UNL     1       1.872   4.593  18.653  0.00  0.00    +0.000 HD
BRANCH  23  28
ATOM     27  C   UNL     1       0.694   2.289  18.707  0.00  0.00    +0.000 C 
ATOM     28  C   UNL     1       1.936   2.190  19.590  0.00  0.00    +0.000 C 
ATOM     29  C   UNL     1       3.161   1.875  18.730  0.00  0.00    +0.000 C 
ENDBRANCH  23  28
ENDBRANCH  22  25
ENDBRANCH   1  22
TORSDOF 5
ENDMDL
MODEL 6
REMARK VINA RESULT:      -6.8      5.086      7.577
REMARK  Name = 
REMARK  7 active torsions:
REMARK  status: ('A' for Active; 'I' for Inactive)
REMARK    1  A    between atoms: C_1  and  C_2
REMARK    2  A    between atoms: C_2  and  C_3
REMARK    3  A    between atoms: C_2  and  C_4
REMARK    4  A    between atoms: N_6  and  C_7
REMARK    5  A    between atoms: C_7  and  C_8
REMARK    6  A    between atoms: C_22  and  N_23
REMARK    7  A    between atoms: C_24  and  O_25
REMARK                            x       y       z     vdW  Elec       q    Type
REMARK                         _______ _______ _______ _____ _____    ______ ____
ROOT
ATOM      1  C   UNL     1       2.626   7.259  18.691  0.00  0.00    +0.000 C 
ATOM      2  O   UNL     1       3.441   7.265  17.764  0.00  0.00    +0.000 OA
ATOM      3  N   UNL     1       1.968   8.408  19.105  0.00  0.00    +0.000 N 
ATOM      4  C   UNL     1       2.056   9.614  18.289  0.00  0.00    +0.000 C 
ATOM      5  C   UNL     1       0.645  10.067  17.902  0.00  0.00    +0.000 C 
ATOM      6  C   UNL     1      -0.248  10.304  19.147  0.00  0.00    +0.000 C 
ATOM      7  C   UNL     1      -0.224   9.029  20.033  0.00  0.00    +0.000 C 
ATOM      8  C   UNL     1       1.203   8.565  20.342  0.00  0.00    +0.000 C 
ATOM      9  C   UNL     1      -1.677  10.633  18.750  0.00  0.00    +0.000 A 
ATOM     10  C   UNL     1      -2.542   9.864  17.973  0.00  0.00    +0.000 A 
ATOM     11  C   UNL     1      -3.839  10.326  17.733  0.00  0.00    +0.000 A 
ATOM     12  C   UNL     1      -4.264  11.553  18.255  0.00  0.00    +0.000 A 
ATOM     13  C   UNL     1      -3.403  12.319  19.038  0.00  0.00    +0.000 A 
ATOM     14  C   UNL     1      -2.119  11.843  19.292  0.00  0.00    +0.000 A 
ATOM     15  C   UNL     1      -1.092  12.492  20.169  0.00  0.00    +0.000 C 
ATOM     16  C   UNL     1       0.167  11.584  19.969  0.00  0.00    +0.000 C 
ENDROOT
BRANCH  15  17
ATOM     17  N   UNL     1      -1.540  12.560  21.558  0.00  0.00    +0.000 NA
ATOM     18  H   UNL     1      -2.541  12.754  21.580  0.00  0.00    +0.000 HD
ATOM     19  H   UNL     1      -1.095  13.360  22.007  0.00  0.00    +0.000 HD
ENDBRANCH  15  17
BRANCH  16  20
ATOM     20  O   UNL     1       1.199  12.343  19.319  0.00  0.00    +0.000 OA
ATOM     21  H   UNL     1       1.840  12.616  19.998  0.00  0.00    +0.000 HD
ENDBRANCH  16  20
BRANCH   1  22
ATOM     22  C   UNL     1       2.369   5.958  19.449  0.00  0.00    +0.000 C 
BRANCH  22  25
ATOM     23  C   UNL     1       2.389   4.097  17.844  0.00  0.00    +0.000 C 
ATOM     24  O   UNL     1       1.220   4.302  17.533  0.00  0.00    +0.000 OA
ATOM     25  N   UNL     1       3.031   4.837  18.811  0.00  0.00    +0.000 N 
ATOM     26  H   UNL     1       4.037   4.777  18.906  0.00  0.00    +0.000 HD
BRANCH  23  28
ATOM     27  C   UNL     1       4.613   3.579  16.782  0.00  0.00    +0.000 C 
ATOM     28  C   UNL     1       3.252   3.020  17.187  0.00  0.00    +0.000 C 
ATOM     29  C   UNL     1       3.437   1.832  18.131  0.00  0.00    +0.000 C 
ENDBRANCH  23  28
ENDBRANCH  22  25
ENDBRANCH   1  22
TORSDOF 5
ENDMDL
MODEL 7
REMARK VINA RESULT:      -6.8      4.406      6.539
REMARK  Name = 
REMARK  7 active torsions:
REMARK  status: ('A' for Active; 'I' for Inactive)
REMARK    1  A    between atoms: C_1  and  C_2
REMARK    2  A    between atoms: C_2  and  C_3
REMARK    3  A    between atoms: C_2  and  C_4
REMARK    4  A    between atoms: N_6  and  C_7
REMARK    5  A    between atoms: C_7  and  C_8
REMARK    6  A    between atoms: C_22  and  N_23
REMARK    7  A    between atoms: C_24  and  O_25
REMARK                            x       y       z     vdW  Elec       q    Type
REMARK                         _______ _______ _______ _____ _____    ______ ____
ROOT
ATOM      1  C   UNL     1       7.866   7.768  18.219  0.00  0.00    +0.000 C 
ATOM      2  O   UNL     1       8.905   7.521  18.837  0.00  0.00    +0.000 OA
ATOM      3  N   UNL     1       6.933   6.787  17.916  0.00  0.00    +0.000 N 
ATOM      4  C   UNL     1       7.055   5.471  18.535  0.00  0.00    +0.000 C 
ATOM      5  C   UNL     1       5.766   5.150  19.297  0.00  0.00    +0.000 C 
ATOM      6  C   UNL     1       4.519   5.216  18.379  0.00  0.00    +0.000 C 
ATOM      7  C   UNL     1       4.493   6.595  17.665  0.00  0.00    +0.000 C 
ATOM      8  C   UNL     1       5.822   6.915  16.974  0.00  0.00    +0.000 C 
ATOM      9  C   UNL     1       3.237   5.016  19.168  0.00  0.00    +0.000 A 
ATOM     10  C   UNL     1       2.781   5.764  20.252  0.00  0.00    +0.000 A 
ATOM     11  C   UNL     1       1.555   5.440  20.839  0.00  0.00    +0.000 A 
ATOM     12  C   UNL     1       0.796   4.369  20.353  0.00  0.00    +0.000 A 
ATOM     13  C   UNL     1       1.247   3.625  19.265  0.00  0.00    +0.000 A 
ATOM     14  C   UNL     1       2.459   3.967  18.671  0.00  0.00    +0.000 A 
ATOM     15  C   UNL     1       3.059   3.330  17.454  0.00  0.00    +0.000 C 
ATOM     16  C   UNL     1       4.453   4.030  17.341  0.00  0.00    +0.000 C 
ENDROOT
BRANCH  15  17
ATOM     17  N   UNL     1       2.216   3.528  16.277  0.00  0.00    +0.000 NA
ATOM     18  H   UNL     1       2.097   4.527  16.112  0.00  0.00    +0.000 HD
ATOM     19  H   UNL     1       1.283   3.170  16.479  0.00  0.00    +0.000 HD
ENDBRANCH  15  17
BRANCH  16  20
ATOM     20  O   UNL     1       5.490   3.059  17.552  0.00  0.00    +0.000 OA
ATOM     21  H   UNL     1       5.270   2.270  17.026  0.00  0.00    +0.000 HD
ENDBRANCH  16  20
BRANCH   1  22
ATOM     22  C   UNL     1       7.617   9.190  17.718  0.00  0.00    +0.000 C 
BRANCH  22  25
ATOM     23  C   UNL     1       8.611  11.434  17.854  0.00  0.00    +0.000 C 
ATOM     24  O   UNL     1       7.697  11.921  17.198  0.00  0.00    +0.000 OA
ATOM     25  N   UNL     1       8.681  10.086  18.128  0.00  0.00    +0.000 N 
ATOM     26  H   UNL     1       9.331   9.746  18.826  0.00  0.00    +0.000 HD
BRANCH  23  28
ATOM     27  C   UNL     1      10.500  11.482  19.521  0.00  0.00    +0.000 C 
ATOM     28  C   UNL     1       9.751  12.263  18.444  0.00  0.00    +0.000 C 
ATOM     29  C   UNL     1      10.722  12.698  17.346  0.00  0.00    +0.000 C 
ENDBRANCH  23  28
ENDBRANCH  22  25
ENDBRANCH   1  22
TORSDOF 5
ENDMDL
MODEL 8
REMARK VINA RESULT:      -6.7     10.734     13.544
REMARK  Name = 
REMARK  7 active torsions:
REMARK  status: ('A' for Active; 'I' for Inactive)
REMARK    1  A    between atoms: C_1  and  C_2
REMARK    2  A    between atoms: C_2  and  C_3
REMARK    3  A    between atoms: C_2  and  C_4
REMARK    4  A    between atoms: N_6  and  C_7
REMARK    5  A    between atoms: C_7  and  C_8
REMARK    6  A    between atoms: C_22  and  N_23
REMARK    7  A    between atoms: C_24  and  O_25
REMARK                            x       y       z     vdW  Elec       q    Type
REMARK                         _______ _______ _______ _____ _____    ______ ____
ROOT
ATOM      1  C   UNL     1       4.355  15.233  19.773  0.00  0.00    +0.000 C 
ATOM      2  O   UNL     1       4.072  15.410  20.960  0.00  0.00    +0.000 OA
ATOM      3  N   UNL     1       5.631  15.454  19.274  0.00  0.00    +0.000 N 
ATOM      4  C   UNL     1       6.731  15.678  20.206  0.00  0.00    +0.000 C 
ATOM      5  C   UNL     1       7.824  14.634  19.958  0.00  0.00    +0.000 C 
ATOM      6  C   UNL     1       8.326  14.659  18.490  0.00  0.00    +0.000 C 
ATOM      7  C   UNL     1       7.106  14.522  17.540  0.00  0.00    +0.000 C 
ATOM      8  C   UNL     1       6.003  15.535  17.863  0.00  0.00    +0.000 C 
ATOM      9  C   UNL     1       9.320  13.542  18.224  0.00  0.00    +0.000 A 
ATOM     10  C   UNL     1       9.122  12.172  18.391  0.00  0.00    +0.000 A 
ATOM     11  C   UNL     1      10.156  11.289  18.068  0.00  0.00    +0.000 A 
ATOM     12  C   UNL     1      11.382  11.772  17.595  0.00  0.00    +0.000 A 
ATOM     13  C   UNL     1      11.577  13.140  17.421  0.00  0.00    +0.000 A 
ATOM     14  C   UNL     1      10.536  14.014  17.723  0.00  0.00    +0.000 A 
ATOM     15  C   UNL     1      10.542  15.499  17.527  0.00  0.00    +0.000 C 
ATOM     16  C   UNL     1       9.178  15.943  18.151  0.00  0.00    +0.000 C 
ENDROOT
BRANCH  15  17
ATOM     17  N   UNL     1      10.673  15.852  16.115  0.00  0.00    +0.000 NA
ATOM     18  H   UNL     1      11.662  15.933  15.879  0.00  0.00    +0.000 HD
ATOM     19  H   UNL     1      10.279  16.781  15.972  0.00  0.00    +0.000 HD
ENDBRANCH  15  17
BRANCH  16  20
ATOM     20  O   UNL     1       9.428  16.756  19.309  0.00  0.00    +0.000 OA
ATOM     21  H   UNL     1       8.655  17.332  19.441  0.00  0.00    +0.000 HD
ENDBRANCH  16  20
BRANCH   1  22
ATOM     22  C   UNL     1       3.255  14.810  18.800  0.00  0.00    +0.000 C 
BRANCH  22  25
ATOM     23  C   UNL     1       2.146  16.848  17.992  0.00  0.00    +0.000 C 
ATOM     24  O   UNL     1       3.096  17.125  17.267  0.00  0.00    +0.000 OA
ATOM     25  N   UNL     1       2.149  15.747  18.817  0.00  0.00    +0.000 N 
ATOM     26  H   UNL     1       1.287  15.439  19.250  0.00  0.00    +0.000 HD
BRANCH  23  28
ATOM     27  C   UNL     1       0.873  18.630  19.239  0.00  0.00    +0.000 C 
ATOM     28  C   UNL     1       0.865  17.680  18.043  0.00  0.00    +0.000 C 
ATOM     29  C   UNL     1       0.690  18.476  16.749  0.00  0.00    +0.000 C 
ENDBRANCH  23  28
ENDBRANCH  22  25
ENDBRANCH   1  22
TORSDOF 5
ENDMDL
MODEL 9
REMARK VINA RESULT:      -6.7      5.180      8.044
REMARK  Name = 
REMARK  7 active torsions:
REMARK  status: ('A' for Active; 'I' for Inactive)
REMARK    1  A    between atoms: C_1  and  C_2
REMARK    2  A    between atoms: C_2  and  C_3
REMARK    3  A    between atoms: C_2  and  C_4
REMARK    4  A    between atoms: N_6  and  C_7
REMARK    5  A    between atoms: C_7  and  C_8
REMARK    6  A    between atoms: C_22  and  N_23
REMARK    7  A    between atoms: C_24  and  O_25
REMARK                            x       y       z     vdW  Elec       q    Type
REMARK                         _______ _______ _______ _____ _____    ______ ____
ROOT
ATOM      1  C   UNL     1       2.525   7.396  18.939  0.00  0.00    +0.000 C 
ATOM      2  O   UNL     1       3.324   7.305  18.004  0.00  0.00    +0.000 OA
ATOM      3  N   UNL     1       1.833   8.568  19.211  0.00  0.00    +0.000 N 
ATOM      4  C   UNL     1       1.864   9.656  18.239  0.00  0.00    +0.000 C 
ATOM      5  C   UNL     1       0.432  10.005  17.825  0.00  0.00    +0.000 C 
ATOM      6  C   UNL     1      -0.450  10.377  19.046  0.00  0.00    +0.000 C 
ATOM      7  C   UNL     1      -0.365   9.234  20.093  0.00  0.00    +0.000 C 
ATOM      8  C   UNL     1       1.083   8.864  20.431  0.00  0.00    +0.000 C 
ATOM      9  C   UNL     1      -1.896  10.602  18.638  0.00  0.00    +0.000 A 
ATOM     10  C   UNL     1      -2.744   9.707  17.989  0.00  0.00    +0.000 A 
ATOM     11  C   UNL     1      -4.061  10.089  17.717  0.00  0.00    +0.000 A 
ATOM     12  C   UNL     1      -4.521  11.360  18.080  0.00  0.00    +0.000 A 
ATOM     13  C   UNL     1      -3.676  12.253  18.735  0.00  0.00    +0.000 A 
ATOM     14  C   UNL     1      -2.372  11.858  19.024  0.00  0.00    +0.000 A 
ATOM     15  C   UNL     1      -1.354  12.653  19.784  0.00  0.00    +0.000 C 
ATOM     16  C   UNL     1      -0.068  11.769  19.681  0.00  0.00    +0.000 C 
ENDROOT
BRANCH  15  17
ATOM     17  N   UNL     1      -1.782  12.891  21.161  0.00  0.00    +0.000 NA
ATOM     18  H   UNL     1      -1.239  12.299  21.790  0.00  0.00    +0.000 HD
ATOM     19  H   UNL     1      -2.749  12.583  21.261  0.00  0.00    +0.000 HD
ENDBRANCH  15  17
BRANCH  16  20
ATOM     20  O   UNL     1       0.926  12.468  18.914  0.00  0.00    +0.000 OA
ATOM     21  H   UNL     1       0.664  13.404  18.870  0.00  0.00    +0.000 HD
ENDBRANCH  16  20
BRANCH   1  22
ATOM     22  C   UNL     1       2.327   6.201  19.870  0.00  0.00    +0.000 C 
BRANCH  22  25
ATOM     23  C   UNL     1       2.863   3.980  18.963  0.00  0.00    +0.000 C 
ATOM     24  O   UNL     1       4.019   4.050  19.371  0.00  0.00    +0.000 OA
ATOM     25  N   UNL     1       1.965   5.010  19.126  0.00  0.00    +0.000 N 
ATOM     26  H   UNL     1       0.979   4.850  18.957  0.00  0.00    +0.000 HD
BRANCH  23  28
ATOM     27  C   UNL     1       3.333   1.626  18.200  0.00  0.00    +0.000 C 
ATOM     28  C   UNL     1       2.301   2.749  18.253  0.00  0.00    +0.000 C 
ATOM     29  C   UNL     1       1.034   2.258  18.954  0.00  0.00    +0.000 C 
ENDBRANCH  23  28
ENDBRANCH  22  25
ENDBRANCH   1  22
TORSDOF 5
ENDMDL
