MODEL 1
REMARK VINA RESULT:      -5.2      0.000      0.000
REMARK  Name = 
REMARK  3 active torsions:
REMARK  status: ('A' for Active; 'I' for Inactive)
REMARK    1  A    between atoms: C_1  and  N_2
REMARK    2  A    between atoms: N_2  and  C_3
REMARK    3  A    between atoms: C_3  and  S_4
REMARK                            x       y       z     vdW  Elec       q    Type
REMARK                         _______ _______ _______ _____ _____    ______ ____
ROOT
ATOM      1  C   UNL     1       5.387   4.376  18.709  0.00  0.00    +0.000 C 
ATOM      2  N   UNL     1       4.555   4.637  17.461  0.00  0.00    +0.000 N 
ATOM      3  C   UNL     1       3.937   6.009  17.462  0.00  0.00    +0.000 C 
ATOM      4  C   UNL     1       2.642   5.816  18.222  0.00  0.00    +0.000 C 
ATOM      5  C   UNL     1       2.148   4.462  17.750  0.00  0.00    +0.000 C 
ATOM      6  C   UNL     1       3.387   3.649  17.381  0.00  0.00    +0.000 C 
ENDROOT
BRANCH   2   7
ATOM      7  C   UNL     1       5.500   4.460  16.203  0.00  0.00    +0.000 C 
BRANCH   7   8
ATOM      8  S   UNL     1       7.128   5.254  16.153  0.00  0.00    +0.000 S 
ATOM      9  O   UNL     1       7.936   4.392  17.007  0.00  0.00    +0.000 OA
ATOM     10  O   UNL     1       7.459   5.218  14.730  0.00  0.00    +0.000 OA
ATOM     11  O   UNL     1       6.847   6.587  16.683  0.00  0.00    +0.000 OA
ENDBRANCH   7   8
ENDBRANCH   2   7
TORSDOF 2
ENDMDL
MODEL 2
REMARK VINA RESULT:      -5.2      0.033      1.288
REMARK  Name = 
REMARK  3 active torsions:
REMARK  status: ('A' for Active; 'I' for Inactive)
REMARK    1  A    between atoms: C_1  and  N_2
REMARK    2  A    between atoms: N_2  and  C_3
REMARK    3  A    between atoms: C_3  and  S_4
REMARK                            x       y       z     vdW  Elec       q    Type
REMARK                         _______ _______ _______ _____ _____    ______ ____
ROOT
ATOM      1  C   UNL     1       5.387   4.325  18.695  0.00  0.00    +0.000 C 
ATOM      2  N   UNL     1       4.559   4.601  17.446  0.00  0.00    +0.000 N 
ATOM      3  C   UNL     1       3.946   5.975  17.458  0.00  0.00    +0.000 C 
ATOM      4  C   UNL     1       2.649   5.780  18.213  0.00  0.00    +0.000 C 
ATOM      5  C   UNL     1       2.151   4.433  17.727  0.00  0.00    +0.000 C 
ATOM      6  C   UNL     1       3.388   3.618  17.354  0.00  0.00    +0.000 C 
ENDROOT
BRANCH   2   7
ATOM      7  C   UNL     1       5.508   4.431  16.189  0.00  0.00    +0.000 C 
BRANCH   7   8
ATOM      8  S   UNL     1       7.125   5.245  16.137  0.00  0.00    +0.000 S 
ATOM      9  O   UNL     1       7.464   5.205  14.719  0.00  0.00    +0.000 OA
ATOM     10  O   UNL     1       6.834   6.572  16.677  0.00  0.00    +0.000 OA
ATOM     11  O   UNL     1       7.937   4.394  17.007  0.00  0.00    +0.000 OA
ENDBRANCH   7   8
ENDBRANCH   2   7
TORSDOF 2
ENDMDL
MODEL 3
REMARK VINA RESULT:      -5.1      0.943      1.251
REMARK  Name = 
REMARK  3 active torsions:
REMARK  status: ('A' for Active; 'I' for Inactive)
REMARK    1  A    between atoms: C_1  and  N_2
REMARK    2  A    between atoms: N_2  and  C_3
REMARK    3  A    between atoms: C_3  and  S_4
REMARK                            x       y       z     vdW  Elec       q    Type
REMARK                         _______ _______ _______ _____ _____    ______ ____
ROOT
ATOM      1  C   UNL     1       5.504   4.723  18.857  0.00  0.00    +0.000 C 
ATOM      2  N   UNL     1       4.690   5.088  17.623  0.00  0.00    +0.000 N 
ATOM      3  C   UNL     1       3.592   6.070  17.932  0.00  0.00    +0.000 C 
ATOM      4  C   UNL     1       2.440   5.190  18.369  0.00  0.00    +0.000 C 
ATOM      5  C   UNL     1       2.525   3.998  17.436  0.00  0.00    +0.000 C 
ATOM      6  C   UNL     1       3.997   3.846  17.055  0.00  0.00    +0.000 C 
ENDROOT
BRANCH   2   7
ATOM      7  C   UNL     1       5.684   5.692  16.548  0.00  0.00    +0.000 C 
BRANCH   7   8
ATOM      8  S   UNL     1       6.953   4.654  15.780  0.00  0.00    +0.000 S 
ATOM      9  O   UNL     1       6.188   3.514  15.289  0.00  0.00    +0.000 OA
ATOM     10  O   UNL     1       7.505   5.531  14.749  0.00  0.00    +0.000 OA
ATOM     11  O   UNL     1       7.856   4.377  16.896  0.00  0.00    +0.000 OA
ENDBRANCH   7   8
ENDBRANCH   2   7
TORSDOF 2
ENDMDL
MODEL 4
REMARK VINA RESULT:      -5.0      1.188      2.077
REMARK  Name = 
REMARK  3 active torsions:
REMARK  status: ('A' for Active; 'I' for Inactive)
REMARK    1  A    between atoms: C_1  and  N_2
REMARK    2  A    between atoms: N_2  and  C_3
REMARK    3  A    between atoms: C_3  and  S_4
REMARK                            x       y       z     vdW  Elec       q    Type
REMARK                         _______ _______ _______ _____ _____    ______ ____
ROOT
ATOM      1  C   UNL     1       4.455   6.669  17.222  0.00  0.00    +0.000 C 
ATOM      2  N   UNL     1       4.468   5.387  18.045  0.00  0.00    +0.000 N 
ATOM      3  C   UNL     1       3.771   4.251  17.345  0.00  0.00    +0.000 C 
ATOM      4  C   UNL     1       2.320   4.429  17.738  0.00  0.00    +0.000 C 
ATOM      5  C   UNL     1       2.392   4.856  19.191  0.00  0.00    +0.000 C 
ATOM      6  C   UNL     1       3.719   5.592  19.365  0.00  0.00    +0.000 C 
ENDROOT
BRANCH   2   7
ATOM      7  C   UNL     1       5.980   5.012  18.333  0.00  0.00    +0.000 C 
BRANCH   7   8
ATOM      8  S   UNL     1       7.148   4.778  16.969  0.00  0.00    +0.000 S 
ATOM      9  O   UNL     1       6.390   3.961  16.028  0.00  0.00    +0.000 OA
ATOM     10  O   UNL     1       7.417   6.147  16.537  0.00  0.00    +0.000 OA
ATOM     11  O   UNL     1       8.272   4.110  17.625  0.00  0.00    +0.000 OA
ENDBRANCH   7   8
ENDBRANCH   2   7
TORSDOF 2
ENDMDL
MODEL 5
REMARK VINA RESULT:      -5.0      1.028      1.227
REMARK  Name = 
REMARK  3 active torsions:
REMARK  status: ('A' for Active; 'I' for Inactive)
REMARK    1  A    between atoms: C_1  and  N_2
REMARK    2  A    between atoms: N_2  and  C_3
REMARK    3  A    between atoms: C_3  and  S_4
REMARK                            x       y       z     vdW  Elec       q    Type
REMARK                         _______ _______ _______ _____ _____    ______ ____
ROOT
ATOM      1  C   UNL     1       5.745   5.253  18.811  0.00  0.00    +0.000 C 
ATOM      2  N   UNL     1       4.857   5.357  17.578  0.00  0.00    +0.000 N 
ATOM      3  C   UNL     1       3.727   6.334  17.768  0.00  0.00    +0.000 C 
ATOM      4  C   UNL     1       2.642   5.501  18.417  0.00  0.00    +0.000 C 
ATOM      5  C   UNL     1       2.742   4.166  17.706  0.00  0.00    +0.000 C 
ATOM      6  C   UNL     1       4.199   4.007  17.277  0.00  0.00    +0.000 C 
ENDROOT
BRANCH   2   7
ATOM      7  C   UNL     1       5.768   5.798  16.360  0.00  0.00    +0.000 C 
BRANCH   7   8
ATOM      8  S   UNL     1       7.001   4.664  15.673  0.00  0.00    +0.000 S 
ATOM      9  O   UNL     1       7.870   4.397  16.814  0.00  0.00    +0.000 OA
ATOM     10  O   UNL     1       6.187   3.536  15.227  0.00  0.00    +0.000 OA
ATOM     11  O   UNL     1       7.596   5.455  14.596  0.00  0.00    +0.000 OA
ENDBRANCH   7   8
ENDBRANCH   2   7
TORSDOF 2
ENDMDL
MODEL 6
REMARK VINA RESULT:      -5.0      1.279      1.640
REMARK  Name = 
REMARK  3 active torsions:
REMARK  status: ('A' for Active; 'I' for Inactive)
REMARK    1  A    between atoms: C_1  and  N_2
REMARK    2  A    between atoms: N_2  and  C_3
REMARK    3  A    between atoms: C_3  and  S_4
REMARK                            x       y       z     vdW  Elec       q    Type
REMARK                         _______ _______ _______ _____ _____    ______ ____
ROOT
ATOM      1  C   UNL     1       4.478   3.151  19.348  0.00  0.00    +0.000 C 
ATOM      2  N   UNL     1       4.183   4.130  18.219  0.00  0.00    +0.000 N 
ATOM      3  C   UNL     1       3.822   5.499  18.729  0.00  0.00    +0.000 C 
ATOM      4  C   UNL     1       2.330   5.407  18.970  0.00  0.00    +0.000 C 
ATOM      5  C   UNL     1       1.830   4.575  17.805  0.00  0.00    +0.000 C 
ATOM      6  C   UNL     1       2.980   3.654  17.400  0.00  0.00    +0.000 C 
ENDROOT
BRANCH   2   7
ATOM      7  C   UNL     1       5.469   4.207  17.297  0.00  0.00    +0.000 C 
BRANCH   7   8
ATOM      8  S   UNL     1       6.950   5.089  17.852  0.00  0.00    +0.000 S 
ATOM      9  O   UNL     1       8.028   4.367  17.185  0.00  0.00    +0.000 OA
ATOM     10  O   UNL     1       6.714   6.448  17.371  0.00  0.00    +0.000 OA
ATOM     11  O   UNL     1       6.888   4.932  19.304  0.00  0.00    +0.000 OA
ENDBRANCH   7   8
ENDBRANCH   2   7
TORSDOF 2
ENDMDL
MODEL 7
REMARK VINA RESULT:      -5.0      0.976      1.665
REMARK  Name = 
REMARK  3 active torsions:
REMARK  status: ('A' for Active; 'I' for Inactive)
REMARK    1  A    between atoms: C_1  and  N_2
REMARK    2  A    between atoms: N_2  and  C_3
REMARK    3  A    between atoms: C_3  and  S_4
REMARK                            x       y       z     vdW  Elec       q    Type
REMARK                         _______ _______ _______ _____ _____    ______ ____
ROOT
ATOM      1  C   UNL     1       5.002   4.936  19.178  0.00  0.00    +0.000 C 
ATOM      2  N   UNL     1       4.378   4.995  17.790  0.00  0.00    +0.000 N 
ATOM      3  C   UNL     1       3.074   5.746  17.780  0.00  0.00    +0.000 C 
ATOM      4  C   UNL     1       2.052   4.689  18.140  0.00  0.00    +0.000 C 
ATOM      5  C   UNL     1       2.538   3.456  17.402  0.00  0.00    +0.000 C 
ATOM      6  C   UNL     1       4.056   3.584  17.289  0.00  0.00    +0.000 C 
ENDROOT
BRANCH   2   7
ATOM      7  C   UNL     1       5.421   5.689  16.820  0.00  0.00    +0.000 C 
BRANCH   7   8
ATOM      8  S   UNL     1       6.852   4.771  16.196  0.00  0.00    +0.000 S 
ATOM      9  O   UNL     1       7.537   5.759  15.370  0.00  0.00    +0.000 OA
ATOM     10  O   UNL     1       7.547   4.387  17.422  0.00  0.00    +0.000 OA
ATOM     11  O   UNL     1       6.228   3.664  15.472  0.00  0.00    +0.000 OA
ENDBRANCH   7   8
ENDBRANCH   2   7
TORSDOF 2
ENDMDL
MODEL 8
REMARK VINA RESULT:      -5.0      0.933      1.110
REMARK  Name = 
REMARK  3 active torsions:
REMARK  status: ('A' for Active; 'I' for Inactive)
REMARK    1  A    between atoms: C_1  and  N_2
REMARK    2  A    between atoms: N_2  and  C_3
REMARK    3  A    between atoms: C_3  and  S_4
REMARK                            x       y       z     vdW  Elec       q    Type
REMARK                         _______ _______ _______ _____ _____    ______ ____
ROOT
ATOM      1  C   UNL     1       4.652   3.555  19.168  0.00  0.00    +0.000 C 
ATOM      2  N   UNL     1       4.164   4.195  17.875  0.00  0.00    +0.000 N 
ATOM      3  C   UNL     1       3.706   5.615  18.077  0.00  0.00    +0.000 C 
ATOM      4  C   UNL     1       2.257   5.466  18.491  0.00  0.00    +0.000 C 
ATOM      5  C   UNL     1       1.751   4.333  17.620  0.00  0.00    +0.000 C 
ATOM      6  C   UNL     1       2.952   3.436  17.328  0.00  0.00    +0.000 C 
ENDROOT
BRANCH   2   7
ATOM      7  C   UNL     1       5.353   4.143  16.830  0.00  0.00    +0.000 C 
BRANCH   7   8
ATOM      8  S   UNL     1       6.763   5.270  16.980  0.00  0.00    +0.000 S 
ATOM      9  O   UNL     1       6.804   5.551  18.411  0.00  0.00    +0.000 OA
ATOM     10  O   UNL     1       7.871   4.469  16.465  0.00  0.00    +0.000 OA
ATOM     11  O   UNL     1       6.367   6.389  16.127  0.00  0.00    +0.000 OA
ENDBRANCH   7   8
ENDBRANCH   2   7
TORSDOF 2
ENDMDL
MODEL 9
REMARK VINA RESULT:      -5.0      1.277      1.863
REMARK  Name = 
REMARK  3 active torsions:
REMARK  status: ('A' for Active; 'I' for Inactive)
REMARK    1  A    between atoms: C_1  and  N_2
REMARK    2  A    between atoms: N_2  and  C_3
REMARK    3  A    between atoms: C_3  and  S_4
REMARK                            x       y       z     vdW  Elec       q    Type
REMARK                         _______ _______ _______ _____ _____    ______ ____
ROOT
ATOM      1  C   UNL     1       4.945   3.651  19.191  0.00  0.00    +0.000 C 
ATOM      2  N   UNL     1       4.381   4.901  18.528  0.00  0.00    +0.000 N 
ATOM      3  C   UNL     1       3.545   5.722  19.472  0.00  0.00    +0.000 C 
ATOM      4  C   UNL     1       2.169   5.102  19.360  0.00  0.00    +0.000 C 
ATOM      5  C   UNL     1       2.041   4.779  17.884  0.00  0.00    +0.000 C 
ATOM      6  C   UNL     1       3.455   4.519  17.369  0.00  0.00    +0.000 C 
ENDROOT
BRANCH   2   7
ATOM      7  C   UNL     1       5.601   5.754  17.987  0.00  0.00    +0.000 C 
BRANCH   7   8
ATOM      8  S   UNL     1       6.925   4.969  17.032  0.00  0.00    +0.000 S 
ATOM      9  O   UNL     1       7.476   6.081  16.266  0.00  0.00    +0.000 OA
ATOM     10  O   UNL     1       7.797   4.431  18.074  0.00  0.00    +0.000 OA
ATOM     11  O   UNL     1       6.202   3.961  16.257  0.00  0.00    +0.000 OA
ENDBRANCH   7   8
ENDBRANCH   2   7
TORSDOF 2
ENDMDL
