MODEL 1
REMARK VINA RESULT:      -7.1      0.000      0.000
REMARK  Name = 
REMARK  3 active torsions:
REMARK  status: ('A' for Active; 'I' for Inactive)
REMARK    1  A    between atoms: N_1  and  C_2
REMARK    2  A    between atoms: N_5  and  C_6
REMARK    3  A    between atoms: C_6  and  C_7
REMARK                            x       y       z     vdW  Elec       q    Type
REMARK                         _______ _______ _______ _____ _____    ______ ____
ROOT
ATOM      1  C   UNL     1       6.774   6.398  17.105  0.00  0.00    +0.000 A 
ATOM      2  N   UNL     1       5.938   6.134  18.185  0.00  0.00    +0.000 NA
ATOM      3  C   UNL     1       5.127   5.121  18.085  0.00  0.00    +0.000 A 
ATOM      4  N   UNL     1       5.026   4.261  17.013  0.00  0.00    +0.000 N 
ATOM      5  C   UNL     1       5.894   4.454  15.972  0.00  0.00    +0.000 A 
ATOM      6  N   UNL     1       6.106   3.814  14.860  0.00  0.00    +0.000 NA
ATOM      7  C   UNL     1       7.123   4.541  14.250  0.00  0.00    +0.000 A 
ATOM      8  N   UNL     1       7.575   5.584  14.883  0.00  0.00    +0.000 NA
ATOM      9  C   UNL     1       6.820   5.592  16.022  0.00  0.00    +0.000 A 
ENDROOT
BRANCH   1  10
ATOM     10  N   UNL     1       7.600   7.505  17.176  0.00  0.00    +0.000 N 
ATOM     11  H   UNL     1       7.065   8.351  17.010  0.00  0.00    +0.000 HD
ATOM     12  H   UNL     1       8.149   7.512  18.030  0.00  0.00    +0.000 HD
ENDBRANCH   1  10
BRANCH   4  13
ATOM     13  C   UNL     1       4.040   3.196  16.973  0.00  0.00    +0.000 C 
BRANCH  13  14
ATOM     14  C   UNL     1       3.307   3.039  18.292  0.00  0.00    +0.000 A 
ATOM     15  C   UNL     1       3.934   2.331  19.337  0.00  0.00    +0.000 A 
ATOM     16  C   UNL     1       3.332   2.214  20.592  0.00  0.00    +0.000 A 
ATOM     17  C   UNL     1       2.089   2.797  20.819  0.00  0.00    +0.000 A 
ATOM     18 CL   UNL     1       1.370   2.699  22.378  0.00  0.00    +0.000 Cl
ATOM     19  C   UNL     1       1.434   3.472  19.795  0.00  0.00    +0.000 A 
ATOM     20  C   UNL     1       2.037   3.588  18.538  0.00  0.00    +0.000 A 
ATOM     21 CL   UNL     1       1.162   4.456  17.327  0.00  0.00    +0.000 Cl
ENDBRANCH  13  14
ENDBRANCH   4  13
TORSDOF 3
ENDMDL
MODEL 2
REMARK VINA RESULT:      -7.1      3.214      3.925
REMARK  Name = 
REMARK  3 active torsions:
REMARK  status: ('A' for Active; 'I' for Inactive)
REMARK    1  A    between atoms: N_1  and  C_2
REMARK    2  A    between atoms: N_5  and  C_6
REMARK    3  A    between atoms: C_6  and  C_7
REMARK                            x       y       z     vdW  Elec       q    Type
REMARK                         _______ _______ _______ _____ _____    ______ ____
ROOT
ATOM      1  C   UNL     1       7.212   4.958  18.568  0.00  0.00    +0.000 A 
ATOM      2  N   UNL     1       6.308   5.078  19.617  0.00  0.00    +0.000 NA
ATOM      3  C   UNL     1       5.048   5.190  19.318  0.00  0.00    +0.000 A 
ATOM      4  N   UNL     1       4.508   5.183  18.050  0.00  0.00    +0.000 N 
ATOM      5  C   UNL     1       5.370   4.986  17.004  0.00  0.00    +0.000 A 
ATOM      6  N   UNL     1       5.200   4.870  15.720  0.00  0.00    +0.000 NA
ATOM      7  C   UNL     1       6.490   4.695  15.231  0.00  0.00    +0.000 A 
ATOM      8  N   UNL     1       7.461   4.687  16.096  0.00  0.00    +0.000 NA
ATOM      9  C   UNL     1       6.806   4.869  17.282  0.00  0.00    +0.000 A 
ENDROOT
BRANCH   1  10
ATOM     10  N   UNL     1       8.560   4.894  18.870  0.00  0.00    +0.000 N 
ATOM     11  H   UNL     1       9.113   5.057  18.036  0.00  0.00    +0.000 HD
ATOM     12  H   UNL     1       8.798   5.489  19.659  0.00  0.00    +0.000 HD
ENDBRANCH   1  10
BRANCH   4  13
ATOM     13  C   UNL     1       3.088   5.380  17.817  0.00  0.00    +0.000 C 
BRANCH  13  14
ATOM     14  C   UNL     1       2.573   6.657  18.454  0.00  0.00    +0.000 A 
ATOM     15  C   UNL     1       2.602   7.850  17.705  0.00  0.00    +0.000 A 
ATOM     16  C   UNL     1       2.080   9.039  18.220  0.00  0.00    +0.000 A 
ATOM     17  C   UNL     1       1.527   9.054  19.496  0.00  0.00    +0.000 A 
ATOM     18 CL   UNL     1       0.837  10.505  20.111  0.00  0.00    +0.000 Cl
ATOM     19  C   UNL     1       1.516   7.899  20.270  0.00  0.00    +0.000 A 
ATOM     20  C   UNL     1       2.040   6.709  19.754  0.00  0.00    +0.000 A 
ATOM     21 CL   UNL     1       1.972   5.317  20.774  0.00  0.00    +0.000 Cl
ENDBRANCH  13  14
ENDBRANCH   4  13
TORSDOF 3
ENDMDL
MODEL 3
REMARK VINA RESULT:      -7.1      3.209      5.931
REMARK  Name = 
REMARK  3 active torsions:
REMARK  status: ('A' for Active; 'I' for Inactive)
REMARK    1  A    between atoms: N_1  and  C_2
REMARK    2  A    between atoms: N_5  and  C_6
REMARK    3  A    between atoms: C_6  and  C_7
REMARK                            x       y       z     vdW  Elec       q    Type
REMARK                         _______ _______ _______ _____ _____    ______ ____
ROOT
ATOM      1  C   UNL     1       1.722   3.514  19.033  0.00  0.00    +0.000 A 
ATOM      2  N   UNL     1       1.755   4.000  17.730  0.00  0.00    +0.000 NA
ATOM      3  C   UNL     1       2.910   4.050  17.134  0.00  0.00    +0.000 A 
ATOM      4  N   UNL     1       4.117   3.649  17.663  0.00  0.00    +0.000 N 
ATOM      5  C   UNL     1       4.099   3.093  18.914  0.00  0.00    +0.000 A 
ATOM      6  N   UNL     1       5.019   2.571  19.670  0.00  0.00    +0.000 NA
ATOM      7  C   UNL     1       4.330   2.203  20.821  0.00  0.00    +0.000 A 
ATOM      8  N   UNL     1       3.053   2.444  20.856  0.00  0.00    +0.000 NA
ATOM      9  C   UNL     1       2.825   3.025  19.641  0.00  0.00    +0.000 A 
ENDROOT
BRANCH   1  10
ATOM     10  N   UNL     1       0.509   3.507  19.697  0.00  0.00    +0.000 N 
ATOM     11  H   UNL     1      -0.239   3.758  19.059  0.00  0.00    +0.000 HD
ATOM     12  H   UNL     1       0.360   2.638  20.201  0.00  0.00    +0.000 HD
ENDBRANCH   1  10
BRANCH   4  13
ATOM     13  C   UNL     1       5.365   3.807  16.937  0.00  0.00    +0.000 C 
BRANCH  13  14
ATOM     14  C   UNL     1       6.127   5.047  17.366  0.00  0.00    +0.000 A 
ATOM     15  C   UNL     1       7.029   4.951  18.444  0.00  0.00    +0.000 A 
ATOM     16  C   UNL     1       7.803   6.046  18.837  0.00  0.00    +0.000 A 
ATOM     17  C   UNL     1       7.681   7.256  18.162  0.00  0.00    +0.000 A 
ATOM     18 CL   UNL     1       8.671   8.589  18.610  0.00  0.00    +0.000 Cl
ATOM     19  C   UNL     1       6.773   7.387  17.117  0.00  0.00    +0.000 A 
ATOM     20  C   UNL     1       5.998   6.291  16.724  0.00  0.00    +0.000 A 
ATOM     21 CL   UNL     1       4.908   6.535  15.406  0.00  0.00    +0.000 Cl
ENDBRANCH  13  14
ENDBRANCH   4  13
TORSDOF 3
ENDMDL
MODEL 4
REMARK VINA RESULT:      -7.0      3.464      6.147
REMARK  Name = 
REMARK  3 active torsions:
REMARK  status: ('A' for Active; 'I' for Inactive)
REMARK    1  A    between atoms: N_1  and  C_2
REMARK    2  A    between atoms: N_5  and  C_6
REMARK    3  A    between atoms: C_6  and  C_7
REMARK                            x       y       z     vdW  Elec       q    Type
REMARK                         _______ _______ _______ _____ _____    ______ ____
ROOT
ATOM      1  C   UNL     1       2.744   3.234  20.979  0.00  0.00    +0.000 A 
ATOM      2  N   UNL     1       3.731   2.345  20.566  0.00  0.00    +0.000 NA
ATOM      3  C   UNL     1       4.477   2.696  19.560  0.00  0.00    +0.000 A 
ATOM      4  N   UNL     1       4.400   3.884  18.865  0.00  0.00    +0.000 N 
ATOM      5  C   UNL     1       3.489   4.808  19.303  0.00  0.00    +0.000 A 
ATOM      6  N   UNL     1       3.198   6.018  18.928  0.00  0.00    +0.000 NA
ATOM      7  C   UNL     1       2.171   6.392  19.787  0.00  0.00    +0.000 A 
ATOM      8  N   UNL     1       1.790   5.523  20.677  0.00  0.00    +0.000 NA
ATOM      9  C   UNL     1       2.609   4.459  20.425  0.00  0.00    +0.000 A 
ENDROOT
BRANCH   1  10
ATOM     10  N   UNL     1       1.908   2.849  22.011  0.00  0.00    +0.000 N 
ATOM     11  H   UNL     1       1.459   1.967  21.785  0.00  0.00    +0.000 HD
ATOM     12  H   UNL     1       2.385   2.863  22.908  0.00  0.00    +0.000 HD
ENDBRANCH   1  10
BRANCH   4  13
ATOM     13  C   UNL     1       5.239   4.155  17.711  0.00  0.00    +0.000 C 
BRANCH  13  14
ATOM     14  C   UNL     1       6.110   5.381  17.908  0.00  0.00    +0.000 A 
ATOM     15  C   UNL     1       7.080   5.367  18.930  0.00  0.00    +0.000 A 
ATOM     16  C   UNL     1       7.952   6.444  19.112  0.00  0.00    +0.000 A 
ATOM     17  C   UNL     1       7.861   7.554  18.280  0.00  0.00    +0.000 A 
ATOM     18 CL   UNL     1       8.967   8.858  18.469  0.00  0.00    +0.000 Cl
ATOM     19  C   UNL     1       6.890   7.608  17.286  0.00  0.00    +0.000 A 
ATOM     20  C   UNL     1       6.017   6.530  17.104  0.00  0.00    +0.000 A 
ATOM     21 CL   UNL     1       4.852   6.671  15.837  0.00  0.00    +0.000 Cl
ENDBRANCH  13  14
ENDBRANCH   4  13
TORSDOF 3
ENDMDL
MODEL 5
REMARK VINA RESULT:      -7.0      2.414      3.650
REMARK  Name = 
REMARK  3 active torsions:
REMARK  status: ('A' for Active; 'I' for Inactive)
REMARK    1  A    between atoms: N_1  and  C_2
REMARK    2  A    between atoms: N_5  and  C_6
REMARK    3  A    between atoms: C_6  and  C_7
REMARK                            x       y       z     vdW  Elec       q    Type
REMARK                         _______ _______ _______ _____ _____    ______ ____
ROOT
ATOM      1  C   UNL     1       6.545   4.853  15.972  0.00  0.00    +0.000 A 
ATOM      2  N   UNL     1       5.293   4.395  15.575  0.00  0.00    +0.000 NA
ATOM      3  C   UNL     1       4.416   4.157  16.505  0.00  0.00    +0.000 A 
ATOM      4  N   UNL     1       4.597   4.332  17.860  0.00  0.00    +0.000 N 
ATOM      5  C   UNL     1       5.795   4.856  18.269  0.00  0.00    +0.000 A 
ATOM      6  N   UNL     1       6.267   5.195  19.432  0.00  0.00    +0.000 NA
ATOM      7  C   UNL     1       7.549   5.653  19.145  0.00  0.00    +0.000 A 
ATOM      8  N   UNL     1       7.925   5.637  17.901  0.00  0.00    +0.000 NA
ATOM      9  C   UNL     1       6.828   5.129  17.263  0.00  0.00    +0.000 A 
ENDROOT
BRANCH   1  10
ATOM     10  N   UNL     1       7.505   5.056  14.997  0.00  0.00    +0.000 N 
ATOM     11  H   UNL     1       7.383   5.970  14.573  0.00  0.00    +0.000 HD
ATOM     12  H   UNL     1       8.441   4.874  15.346  0.00  0.00    +0.000 HD
ENDBRANCH   1  10
BRANCH   4  13
ATOM     13  C   UNL     1       3.573   3.974  18.826  0.00  0.00    +0.000 C 
BRANCH  13  14
ATOM     14  C   UNL     1       2.887   5.192  19.414  0.00  0.00    +0.000 A 
ATOM     15  C   UNL     1       2.950   6.412  18.712  0.00  0.00    +0.000 A 
ATOM     16  C   UNL     1       2.281   7.547  19.177  0.00  0.00    +0.000 A 
ATOM     17  C   UNL     1       1.545   7.481  20.355  0.00  0.00    +0.000 A 
ATOM     18 CL   UNL     1       0.678   8.863  20.900  0.00  0.00    +0.000 Cl
ATOM     19  C   UNL     1       1.494   6.299  21.084  0.00  0.00    +0.000 A 
ATOM     20  C   UNL     1       2.164   5.162  20.620  0.00  0.00    +0.000 A 
ATOM     21 CL   UNL     1       2.036   3.731  21.578  0.00  0.00    +0.000 Cl
ENDBRANCH  13  14
ENDBRANCH   4  13
TORSDOF 3
ENDMDL
MODEL 6
REMARK VINA RESULT:      -6.9      3.418      6.221
REMARK  Name = 
REMARK  3 active torsions:
REMARK  status: ('A' for Active; 'I' for Inactive)
REMARK    1  A    between atoms: N_1  and  C_2
REMARK    2  A    between atoms: N_5  and  C_6
REMARK    3  A    between atoms: C_6  and  C_7
REMARK                            x       y       z     vdW  Elec       q    Type
REMARK                         _______ _______ _______ _____ _____    ______ ____
ROOT
ATOM      1  C   UNL     1       1.895   4.479  20.068  0.00  0.00    +0.000 A 
ATOM      2  N   UNL     1       1.923   5.771  19.554  0.00  0.00    +0.000 NA
ATOM      3  C   UNL     1       3.052   6.207  19.079  0.00  0.00    +0.000 A 
ATOM      4  N   UNL     1       4.236   5.503  19.016  0.00  0.00    +0.000 N 
ATOM      5  C   UNL     1       4.213   4.202  19.443  0.00  0.00    +0.000 A 
ATOM      6  N   UNL     1       5.108   3.258  19.471  0.00  0.00    +0.000 NA
ATOM      7  C   UNL     1       4.433   2.181  20.036  0.00  0.00    +0.000 A 
ATOM      8  N   UNL     1       3.188   2.362  20.365  0.00  0.00    +0.000 NA
ATOM      9  C   UNL     1       2.969   3.661  20.004  0.00  0.00    +0.000 A 
ENDROOT
BRANCH   1  10
ATOM     10  N   UNL     1       0.715   4.024  20.627  0.00  0.00    +0.000 N 
ATOM     11  H   UNL     1       0.889   3.653  21.555  0.00  0.00    +0.000 HD
ATOM     12  H   UNL     1      -0.018   4.725  20.583  0.00  0.00    +0.000 HD
ENDBRANCH   1  10
BRANCH   4  13
ATOM     13  C   UNL     1       5.463   6.103  18.524  0.00  0.00    +0.000 C 
BRANCH  13  14
ATOM     14  C   UNL     1       5.839   5.597  17.144  0.00  0.00    +0.000 A 
ATOM     15  C   UNL     1       4.982   5.880  16.061  0.00  0.00    +0.000 A 
ATOM     16  C   UNL     1       5.314   5.494  14.760  0.00  0.00    +0.000 A 
ATOM     17  C   UNL     1       6.503   4.812  14.523  0.00  0.00    +0.000 A 
ATOM     18 CL   UNL     1       6.937   4.383  12.915  0.00  0.00    +0.000 Cl
ATOM     19  C   UNL     1       7.349   4.491  15.579  0.00  0.00    +0.000 A 
ATOM     20  C   UNL     1       7.017   4.877  16.882  0.00  0.00    +0.000 A 
ATOM     21 CL   UNL     1       8.131   4.453  18.132  0.00  0.00    +0.000 Cl
ENDBRANCH  13  14
ENDBRANCH   4  13
TORSDOF 3
ENDMDL
MODEL 7
REMARK VINA RESULT:      -6.9      1.212      1.571
REMARK  Name = 
REMARK  3 active torsions:
REMARK  status: ('A' for Active; 'I' for Inactive)
REMARK    1  A    between atoms: N_1  and  C_2
REMARK    2  A    between atoms: N_5  and  C_6
REMARK    3  A    between atoms: C_6  and  C_7
REMARK                            x       y       z     vdW  Elec       q    Type
REMARK                         _______ _______ _______ _____ _____    ______ ____
ROOT
ATOM      1  C   UNL     1       6.702   6.446  17.019  0.00  0.00    +0.000 A 
ATOM      2  N   UNL     1       5.779   6.529  18.057  0.00  0.00    +0.000 NA
ATOM      3  C   UNL     1       4.705   5.800  17.969  0.00  0.00    +0.000 A 
ATOM      4  N   UNL     1       4.394   4.928  16.948  0.00  0.00    +0.000 N 
ATOM      5  C   UNL     1       5.324   4.769  15.955  0.00  0.00    +0.000 A 
ATOM      6  N   UNL     1       5.380   4.010  14.901  0.00  0.00    +0.000 NA
ATOM      7  C   UNL     1       6.595   4.349  14.315  0.00  0.00    +0.000 A 
ATOM      8  N   UNL     1       7.312   5.256  14.909  0.00  0.00    +0.000 NA
ATOM      9  C   UNL     1       6.548   5.579  15.994  0.00  0.00    +0.000 A 
ENDROOT
BRANCH   1  10
ATOM     10  N   UNL     1       7.820   7.257  17.073  0.00  0.00    +0.000 N 
ATOM     11  H   UNL     1       7.856   7.743  17.963  0.00  0.00    +0.000 HD
ATOM     12  H   UNL     1       8.667   6.749  16.834  0.00  0.00    +0.000 HD
ENDBRANCH   1  10
BRANCH   4  13
ATOM     13  C   UNL     1       3.135   4.206  16.911  0.00  0.00    +0.000 C 
BRANCH  13  14
ATOM     14  C   UNL     1       2.682   3.767  18.291  0.00  0.00    +0.000 A 
ATOM     15  C   UNL     1       1.919   4.660  19.070  0.00  0.00    +0.000 A 
ATOM     16  C   UNL     1       1.421   4.282  20.320  0.00  0.00    +0.000 A 
ATOM     17  C   UNL     1       1.687   3.010  20.813  0.00  0.00    +0.000 A 
ATOM     18 CL   UNL     1       1.032   2.526  22.328  0.00  0.00    +0.000 Cl
ATOM     19  C   UNL     1       2.467   2.122  20.080  0.00  0.00    +0.000 A 
ATOM     20  C   UNL     1       2.965   2.500  18.829  0.00  0.00    +0.000 A 
ATOM     21 CL   UNL     1       3.911   1.332  17.977  0.00  0.00    +0.000 Cl
ENDBRANCH  13  14
ENDBRANCH   4  13
TORSDOF 3
ENDMDL
MODEL 8
REMARK VINA RESULT:      -6.9      3.869      5.380
REMARK  Name = 
REMARK  3 active torsions:
REMARK  status: ('A' for Active; 'I' for Inactive)
REMARK    1  A    between atoms: N_1  and  C_2
REMARK    2  A    between atoms: N_5  and  C_6
REMARK    3  A    between atoms: C_6  and  C_7
REMARK                            x       y       z     vdW  Elec       q    Type
REMARK                         _______ _______ _______ _____ _____    ______ ____
ROOT
ATOM      1  C   UNL     1       4.468   2.934  19.509  0.00  0.00    +0.000 A 
ATOM      2  N   UNL     1       5.230   4.093  19.609  0.00  0.00    +0.000 NA
ATOM      3  C   UNL     1       4.696   5.203  19.190  0.00  0.00    +0.000 A 
ATOM      4  N   UNL     1       3.429   5.352  18.669  0.00  0.00    +0.000 N 
ATOM      5  C   UNL     1       2.631   4.239  18.635  0.00  0.00    +0.000 A 
ATOM      6  N   UNL     1       1.400   4.038  18.271  0.00  0.00    +0.000 NA
ATOM      7  C   UNL     1       1.213   2.675  18.481  0.00  0.00    +0.000 A 
ATOM      8  N   UNL     1       2.220   1.999  18.950  0.00  0.00    +0.000 NA
ATOM      9  C   UNL     1       3.187   2.955  19.080  0.00  0.00    +0.000 A 
ENDROOT
BRANCH   1  10
ATOM     10  N   UNL     1       5.044   1.739  19.899  0.00  0.00    +0.000 N 
ATOM     11  H   UNL     1       6.052   1.785  19.788  0.00  0.00    +0.000 HD
ATOM     12  H   UNL     1       4.733   1.454  20.823  0.00  0.00    +0.000 HD
ENDBRANCH   1  10
BRANCH   4  13
ATOM     13  C   UNL     1       2.948   6.628  18.168  0.00  0.00    +0.000 C 
BRANCH  13  14
ATOM     14  C   UNL     1       2.152   7.392  19.210  0.00  0.00    +0.000 A 
ATOM     15  C   UNL     1       1.852   6.759  20.433  0.00  0.00    +0.000 A 
ATOM     16  C   UNL     1       1.179   7.439  21.451  0.00  0.00    +0.000 A 
ATOM     17  C   UNL     1       0.789   8.760  21.258  0.00  0.00    +0.000 A 
ATOM     18 CL   UNL     1       0.007   9.616  22.529  0.00  0.00    +0.000 Cl
ATOM     19  C   UNL     1       1.043   9.397  20.048  0.00  0.00    +0.000 A 
ATOM     20  C   UNL     1       1.716   8.716  19.029  0.00  0.00    +0.000 A 
ATOM     21 CL   UNL     1       2.006   9.584  17.564  0.00  0.00    +0.000 Cl
ENDBRANCH  13  14
ENDBRANCH   4  13
TORSDOF 3
ENDMDL
MODEL 9
REMARK VINA RESULT:      -6.8      3.174      5.917
REMARK  Name = 
REMARK  3 active torsions:
REMARK  status: ('A' for Active; 'I' for Inactive)
REMARK    1  A    between atoms: N_1  and  C_2
REMARK    2  A    between atoms: N_5  and  C_6
REMARK    3  A    between atoms: C_6  and  C_7
REMARK                            x       y       z     vdW  Elec       q    Type
REMARK                         _______ _______ _______ _____ _____    ______ ____
ROOT
ATOM      1  C   UNL     1       1.604   2.877  20.894  0.00  0.00    +0.000 A 
ATOM      2  N   UNL     1       0.825   3.401  19.868  0.00  0.00    +0.000 NA
ATOM      3  C   UNL     1       1.405   3.626  18.725  0.00  0.00    +0.000 A 
ATOM      4  N   UNL     1       2.725   3.377  18.419  0.00  0.00    +0.000 N 
ATOM      5  C   UNL     1       3.492   2.788  19.388  0.00  0.00    +0.000 A 
ATOM      6  N   UNL     1       4.724   2.374  19.418  0.00  0.00    +0.000 NA
ATOM      7  C   UNL     1       4.875   1.882  20.710  0.00  0.00    +0.000 A 
ATOM      8  N   UNL     1       3.842   1.945  21.498  0.00  0.00    +0.000 NA
ATOM      9  C   UNL     1       2.895   2.525  20.702  0.00  0.00    +0.000 A 
ENDROOT
BRANCH   1  10
ATOM     10  N   UNL     1       1.014   2.685  22.129  0.00  0.00    +0.000 N 
ATOM     11  H   UNL     1       0.704   1.724  22.223  0.00  0.00    +0.000 HD
ATOM     12  H   UNL     1       1.607   3.014  22.886  0.00  0.00    +0.000 HD
ENDBRANCH   1  10
BRANCH   4  13
ATOM     13  C   UNL     1       3.294   3.726  17.129  0.00  0.00    +0.000 C 
BRANCH  13  14
ATOM     14  C   UNL     1       4.388   4.769  17.245  0.00  0.00    +0.000 A 
ATOM     15  C   UNL     1       5.717   4.393  16.966  0.00  0.00    +0.000 A 
ATOM     16  C   UNL     1       6.754   5.330  16.994  0.00  0.00    +0.000 A 
ATOM     17  C   UNL     1       6.477   6.656  17.311  0.00  0.00    +0.000 A 
ATOM     18 CL   UNL     1       7.743   7.820  17.295  0.00  0.00    +0.000 Cl
ATOM     19  C   UNL     1       5.180   7.046  17.624  0.00  0.00    +0.000 A 
ATOM     20  C   UNL     1       4.143   6.108  17.596  0.00  0.00    +0.000 A 
ATOM     21 CL   UNL     1       2.559   6.680  17.982  0.00  0.00    +0.000 Cl
ENDBRANCH  13  14
ENDBRANCH   4  13
TORSDOF 3
ENDMDL
