MODEL 1
REMARK VINA RESULT:      -7.6      0.000      0.000
REMARK  Name = 
REMARK  8 active torsions:
REMARK  status: ('A' for Active; 'I' for Inactive)
REMARK    1  A    between atoms: C_2  and  C_3
REMARK    2  A    between atoms: C_3  and  O_4
REMARK    3  A    between atoms: O_4  and  C_5
REMARK    4  A    between atoms: C_5  and  C_7
REMARK    5  A    between atoms: C_7  and  C_8
REMARK    6  A    between atoms: N_14  and  C_15
REMARK    7  A    between atoms: C_17  and  S_18
REMARK    8  A    between atoms: S_18  and  N_21
REMARK                            x       y       z     vdW  Elec       q    Type
REMARK                         _______ _______ _______ _____ _____    ______ ____
ROOT
ATOM      1  C   UNL     1       1.702   8.381  20.180  0.00  0.00    +0.000 A 
ATOM      2  C   UNL     1       2.066   7.032  20.125  0.00  0.00    +0.000 A 
ATOM      3  C   UNL     1       2.407   6.421  18.909  0.00  0.00    +0.000 A 
ATOM      4  C   UNL     1       2.343   7.140  17.716  0.00  0.00    +0.000 A 
ATOM      5  C   UNL     1       2.025   8.501  17.758  0.00  0.00    +0.000 A 
ATOM      6  C   UNL     1       1.760   9.125  18.986  0.00  0.00    +0.000 A 
ATOM      7 CL   UNL     1       1.693  10.856  19.015  0.00  0.00    +0.000 Cl
ENDROOT
BRANCH   1  10
ATOM      8  O   UNL     1      -0.859   8.061  21.544  0.00  0.00    +0.000 OA
ATOM      9  C   UNL     1      -0.016   8.858  21.926  0.00  0.00    +0.000 C 
ATOM     10  N   UNL     1       1.260   8.991  21.386  0.00  0.00    +0.000 N 
ATOM     11  H   UNL     1       1.952   9.530  21.895  0.00  0.00    +0.000 HD
BRANCH   9  12
ATOM     12  C   UNL     1      -0.328   9.801  23.092  0.00  0.00    +0.000 C 
BRANCH  12  13
ATOM     13  O   UNL     1      -0.179  11.185  22.749  0.00  0.00    +0.000 OA
BRANCH  13  14
ATOM     14  C   UNL     1      -1.283  11.730  22.159  0.00  0.00    +0.000 C 
ATOM     15  O   UNL     1      -2.392  11.785  22.678  0.00  0.00    +0.000 OA
BRANCH  14  16
ATOM     16  C   UNL     1      -0.976  12.200  20.758  0.00  0.00    +0.000 C 
BRANCH  16  17
ATOM     17  C   UNL     1      -1.912  11.669  19.704  0.00  0.00    +0.000 A 
ATOM     18  C   UNL     1      -1.550  10.574  18.907  0.00  0.00    +0.000 A 
ATOM     19  C   UNL     1      -2.422  10.085  17.935  0.00  0.00    +0.000 A 
ATOM     20  C   UNL     1      -3.671  10.675  17.755  0.00  0.00    +0.000 A 
ATOM     21  C   UNL     1      -4.053  11.749  18.556  0.00  0.00    +0.000 A 
ATOM     22  C   UNL     1      -3.180  12.243  19.528  0.00  0.00    +0.000 A 
ENDBRANCH  16  17
ENDBRANCH  14  16
ENDBRANCH  13  14
ENDBRANCH  12  13
ENDBRANCH   9  12
ENDBRANCH   1  10
BRANCH   3  23
ATOM     23  S   UNL     1       3.213   4.816  18.964  0.00  0.00    +0.000 S 
ATOM     24  O   UNL     1       3.361   4.486  20.365  0.00  0.00    +0.000 OA
ATOM     25  O   UNL     1       2.489   3.949  18.065  0.00  0.00    +0.000 OA
BRANCH  23  26
ATOM     26  N   UNL     1       4.775   5.076  18.315  0.00  0.00    +0.000 NA
ATOM     27  C   UNL     1       5.846   5.302  19.318  0.00  0.00    +0.000 C 
ATOM     28  C   UNL     1       7.193   5.612  18.676  0.00  0.00    +0.000 C 
ATOM     29  C   UNL     1       7.544   4.604  17.594  0.00  0.00    +0.000 C 
ATOM     30  C   UNL     1       6.459   4.614  16.533  0.00  0.00    +0.000 C 
ATOM     31  C   UNL     1       5.101   4.262  17.125  0.00  0.00    +0.000 C 
ENDBRANCH  23  26
ENDBRANCH   3  23
TORSDOF 8
ENDMDL
MODEL 2
REMARK VINA RESULT:      -7.6      0.565      1.389
REMARK  Name = 
REMARK  8 active torsions:
REMARK  status: ('A' for Active; 'I' for Inactive)
REMARK    1  A    between atoms: C_2  and  C_3
REMARK    2  A    between atoms: C_3  and  O_4
REMARK    3  A    between atoms: O_4  and  C_5
REMARK    4  A    between atoms: C_5  and  C_7
REMARK    5  A    between atoms: C_7  and  C_8
REMARK    6  A    between atoms: N_14  and  C_15
REMARK    7  A    between atoms: C_17  and  S_18
REMARK    8  A    between atoms: S_18  and  N_21
REMARK                            x       y       z     vdW  Elec       q    Type
REMARK                         _______ _______ _______ _____ _____    ______ ____
ROOT
ATOM      1  C   UNL     1       1.897   7.729  20.222  0.00  0.00    +0.000 A 
ATOM      2  C   UNL     1       2.224   6.370  20.187  0.00  0.00    +0.000 A 
ATOM      3  C   UNL     1       2.496   5.720  18.974  0.00  0.00    +0.000 A 
ATOM      4  C   UNL     1       2.395   6.409  17.766  0.00  0.00    +0.000 A 
ATOM      5  C   UNL     1       2.114   7.779  17.786  0.00  0.00    +0.000 A 
ATOM      6  C   UNL     1       1.920   8.441  19.007  0.00  0.00    +0.000 A 
ATOM      7 CL   UNL     1       1.897  10.173  18.992  0.00  0.00    +0.000 Cl
ENDROOT
BRANCH   1  10
ATOM      8  O   UNL     1      -0.755   7.952  21.423  0.00  0.00    +0.000 OA
ATOM      9  C   UNL     1       0.219   8.523  21.890  0.00  0.00    +0.000 C 
ATOM     10  N   UNL     1       1.525   8.381  21.429  0.00  0.00    +0.000 N 
ATOM     11  H   UNL     1       2.285   8.731  22.002  0.00  0.00    +0.000 HD
BRANCH   9  12
ATOM     12  C   UNL     1       0.051   9.471  23.081  0.00  0.00    +0.000 C 
BRANCH  12  13
ATOM     13  O   UNL     1       0.236  10.849  22.732  0.00  0.00    +0.000 OA
BRANCH  13  14
ATOM     14  C   UNL     1      -0.880  11.444  22.218  0.00  0.00    +0.000 C 
ATOM     15  O   UNL     1      -1.968  11.481  22.781  0.00  0.00    +0.000 OA
BRANCH  14  16
ATOM     16  C   UNL     1      -0.617  11.995  20.838  0.00  0.00    +0.000 C 
BRANCH  16  17
ATOM     17  C   UNL     1      -1.596  11.538  19.789  0.00  0.00    +0.000 A 
ATOM     18  C   UNL     1      -2.799  12.229  19.581  0.00  0.00    +0.000 A 
ATOM     19  C   UNL     1      -3.702  11.803  18.606  0.00  0.00    +0.000 A 
ATOM     20  C   UNL     1      -3.409  10.692  17.820  0.00  0.00    +0.000 A 
ATOM     21  C   UNL     1      -2.207  10.011  18.000  0.00  0.00    +0.000 A 
ATOM     22  C   UNL     1      -1.303  10.432  18.978  0.00  0.00    +0.000 A 
ENDBRANCH  16  17
ENDBRANCH  14  16
ENDBRANCH  13  14
ENDBRANCH  12  13
ENDBRANCH   9  12
ENDBRANCH   1  10
BRANCH   3  23
ATOM     23  S   UNL     1       3.263   4.096  19.035  0.00  0.00    +0.000 S 
ATOM     24  O   UNL     1       3.270   3.705  20.429  0.00  0.00    +0.000 OA
ATOM     25  O   UNL     1       2.612   3.283  18.036  0.00  0.00    +0.000 OA
BRANCH  23  26
ATOM     26  N   UNL     1       4.885   4.348  18.549  0.00  0.00    +0.000 NA
ATOM     27  C   UNL     1       5.132   4.238  17.090  0.00  0.00    +0.000 C 
ATOM     28  C   UNL     1       6.605   4.388  16.733  0.00  0.00    +0.000 C 
ATOM     29  C   UNL     1       7.219   5.615  17.386  0.00  0.00    +0.000 C 
ATOM     30  C   UNL     1       7.068   5.506  18.893  0.00  0.00    +0.000 C 
ATOM     31  C   UNL     1       5.604   5.402  19.297  0.00  0.00    +0.000 C 
ENDBRANCH  23  26
ENDBRANCH   3  23
TORSDOF 8
ENDMDL
MODEL 3
REMARK VINA RESULT:      -7.6      2.196      2.963
REMARK  Name = 
REMARK  8 active torsions:
REMARK  status: ('A' for Active; 'I' for Inactive)
REMARK    1  A    between atoms: C_2  and  C_3
REMARK    2  A    between atoms: C_3  and  O_4
REMARK    3  A    between atoms: O_4  and  C_5
REMARK    4  A    between atoms: C_5  and  C_7
REMARK    5  A    between atoms: C_7  and  C_8
REMARK    6  A    between atoms: N_14  and  C_15
REMARK    7  A    between atoms: C_17  and  S_18
REMARK    8  A    between atoms: S_18  and  N_21
REMARK                            x       y       z     vdW  Elec       q    Type
REMARK                         _______ _______ _______ _____ _____    ______ ____
ROOT
ATOM      1  C   UNL     1       1.446   9.120  20.237  0.00  0.00    +0.000 A 
ATOM      2  C   UNL     1       1.947   7.826  20.063  0.00  0.00    +0.000 A 
ATOM      3  C   UNL     1       2.332   7.362  18.796  0.00  0.00    +0.000 A 
ATOM      4  C   UNL     1       2.175   8.170  17.671  0.00  0.00    +0.000 A 
ATOM      5  C   UNL     1       1.718   9.482  17.834  0.00  0.00    +0.000 A 
ATOM      6  C   UNL     1       1.407   9.966  19.113  0.00  0.00    +0.000 A 
ATOM      7 CL   UNL     1       1.160  11.671  19.293  0.00  0.00    +0.000 Cl
ENDROOT
BRANCH   1  10
ATOM      8  O   UNL     1      -0.853   8.151  21.754  0.00  0.00    +0.000 OA
ATOM      9  C   UNL     1      -0.201   9.120  22.112  0.00  0.00    +0.000 C 
ATOM     10  N   UNL     1       0.961   9.574  21.495  0.00  0.00    +0.000 N 
ATOM     11  H   UNL     1       1.538  10.252  21.979  0.00  0.00    +0.000 HD
BRANCH   9  12
ATOM     12  C   UNL     1      -0.643   9.930  23.335  0.00  0.00    +0.000 C 
BRANCH  12  13
ATOM     13  O   UNL     1      -0.597  11.346  23.117  0.00  0.00    +0.000 OA
BRANCH  13  14
ATOM     14  C   UNL     1      -1.816  11.906  22.858  0.00  0.00    +0.000 C 
ATOM     15  O   UNL     1      -2.842  11.652  23.480  0.00  0.00    +0.000 OA
BRANCH  14  16
ATOM     16  C   UNL     1      -1.748  12.829  21.667  0.00  0.00    +0.000 C 
BRANCH  16  17
ATOM     17  C   UNL     1      -2.700  12.478  20.553  0.00  0.00    +0.000 A 
ATOM     18  C   UNL     1      -4.062  12.799  20.645  0.00  0.00    +0.000 A 
ATOM     19  C   UNL     1      -4.939  12.473  19.610  0.00  0.00    +0.000 A 
ATOM     20  C   UNL     1      -4.464  11.836  18.466  0.00  0.00    +0.000 A 
ATOM     21  C   UNL     1      -3.108  11.534  18.352  0.00  0.00    +0.000 A 
ATOM     22  C   UNL     1      -2.230  11.854  19.389  0.00  0.00    +0.000 A 
ENDBRANCH  16  17
ENDBRANCH  14  16
ENDBRANCH  13  14
ENDBRANCH  12  13
ENDBRANCH   9  12
ENDBRANCH   1  10
BRANCH   3  23
ATOM     23  S   UNL     1       3.302   5.852  18.705  0.00  0.00    +0.000 S 
ATOM     24  O   UNL     1       3.597   5.645  17.303  0.00  0.00    +0.000 OA
ATOM     25  O   UNL     1       4.360   5.971  19.680  0.00  0.00    +0.000 OA
BRANCH  23  26
ATOM     26  N   UNL     1       2.243   4.607  19.211  0.00  0.00    +0.000 NA
ATOM     27  C   UNL     1       1.930   3.586  18.181  0.00  0.00    +0.000 C 
ATOM     28  C   UNL     1       0.918   2.556  18.666  0.00  0.00    +0.000 C 
ATOM     29  C   UNL     1       1.302   1.987  20.022  0.00  0.00    +0.000 C 
ATOM     30  C   UNL     1       1.399   3.120  21.028  0.00  0.00    +0.000 C 
ATOM     31  C   UNL     1       2.437   4.150  20.604  0.00  0.00    +0.000 C 
ENDBRANCH  23  26
ENDBRANCH   3  23
TORSDOF 8
ENDMDL
MODEL 4
REMARK VINA RESULT:      -7.6      3.050      4.179
REMARK  Name = 
REMARK  8 active torsions:
REMARK  status: ('A' for Active; 'I' for Inactive)
REMARK    1  A    between atoms: C_2  and  C_3
REMARK    2  A    between atoms: C_3  and  O_4
REMARK    3  A    between atoms: O_4  and  C_5
REMARK    4  A    between atoms: C_5  and  C_7
REMARK    5  A    between atoms: C_7  and  C_8
REMARK    6  A    between atoms: N_14  and  C_15
REMARK    7  A    between atoms: C_17  and  S_18
REMARK    8  A    between atoms: S_18  and  N_21
REMARK                            x       y       z     vdW  Elec       q    Type
REMARK                         _______ _______ _______ _____ _____    ______ ____
ROOT
ATOM      1  C   UNL     1       3.454   5.860  17.904  0.00  0.00    +0.000 A 
ATOM      2  C   UNL     1       4.797   5.990  17.537  0.00  0.00    +0.000 A 
ATOM      3  C   UNL     1       5.511   4.909  16.999  0.00  0.00    +0.000 A 
ATOM      4  C   UNL     1       4.904   3.661  16.863  0.00  0.00    +0.000 A 
ATOM      5  C   UNL     1       3.550   3.525  17.181  0.00  0.00    +0.000 A 
ATOM      6  C   UNL     1       2.821   4.629  17.647  0.00  0.00    +0.000 A 
ATOM      7 CL   UNL     1       1.096   4.487  17.716  0.00  0.00    +0.000 Cl
ENDROOT
BRANCH   1  10
ATOM      8  O   UNL     1       2.553   6.029  20.676  0.00  0.00    +0.000 OA
ATOM      9  C   UNL     1       2.267   6.880  19.847  0.00  0.00    +0.000 C 
ATOM     10  N   UNL     1       2.743   6.914  18.540  0.00  0.00    +0.000 N 
ATOM     11  H   UNL     1       2.616   7.761  17.996  0.00  0.00    +0.000 HD
BRANCH   9  12
ATOM     12  C   UNL     1       1.325   8.027  20.224  0.00  0.00    +0.000 C 
BRANCH  12  13
ATOM     13  O   UNL     1       1.540   9.210  19.443  0.00  0.00    +0.000 OA
BRANCH  13  14
ATOM     14  C   UNL     1       0.764  10.269  19.817  0.00  0.00    +0.000 C 
ATOM     15  O   UNL     1       0.413  10.499  20.969  0.00  0.00    +0.000 OA
BRANCH  14  16
ATOM     16  C   UNL     1       0.342  11.084  18.620  0.00  0.00    +0.000 C 
BRANCH  16  17
ATOM     17  C   UNL     1      -1.114  10.948  18.256  0.00  0.00    +0.000 A 
ATOM     18  C   UNL     1      -1.540   9.958  17.360  0.00  0.00    +0.000 A 
ATOM     19  C   UNL     1      -2.890   9.834  17.029  0.00  0.00    +0.000 A 
ATOM     20  C   UNL     1      -3.830  10.689  17.598  0.00  0.00    +0.000 A 
ATOM     21  C   UNL     1      -3.423  11.662  18.508  0.00  0.00    +0.000 A 
ATOM     22  C   UNL     1      -2.072  11.790  18.838  0.00  0.00    +0.000 A 
ENDBRANCH  16  17
ENDBRANCH  14  16
ENDBRANCH  13  14
ENDBRANCH  12  13
ENDBRANCH   9  12
ENDBRANCH   1  10
BRANCH   3  23
ATOM     23  S   UNL     1       7.093   5.244  16.215  0.00  0.00    +0.000 S 
ATOM     24  O   UNL     1       7.356   6.653  16.422  0.00  0.00    +0.000 OA
ATOM     25  O   UNL     1       8.016   4.237  16.680  0.00  0.00    +0.000 OA
BRANCH  23  26
ATOM     26  N   UNL     1       6.826   4.997  14.542  0.00  0.00    +0.000 NA
ATOM     27  C   UNL     1       7.932   5.435  13.654  0.00  0.00    +0.000 C 
ATOM     28  C   UNL     1       7.598   5.268  12.177  0.00  0.00    +0.000 C 
ATOM     29  C   UNL     1       7.061   3.877  11.878  0.00  0.00    +0.000 C 
ATOM     30  C   UNL     1       5.817   3.633  12.713  0.00  0.00    +0.000 C 
ATOM     31  C   UNL     1       6.118   3.745  14.201  0.00  0.00    +0.000 C 
ENDBRANCH  23  26
ENDBRANCH   3  23
TORSDOF 8
ENDMDL
MODEL 5
REMARK VINA RESULT:      -7.6      0.937      1.484
REMARK  Name = 
REMARK  8 active torsions:
REMARK  status: ('A' for Active; 'I' for Inactive)
REMARK    1  A    between atoms: C_2  and  C_3
REMARK    2  A    between atoms: C_3  and  O_4
REMARK    3  A    between atoms: O_4  and  C_5
REMARK    4  A    between atoms: C_5  and  C_7
REMARK    5  A    between atoms: C_7  and  C_8
REMARK    6  A    between atoms: N_14  and  C_15
REMARK    7  A    between atoms: C_17  and  S_18
REMARK    8  A    between atoms: S_18  and  N_21
REMARK                            x       y       z     vdW  Elec       q    Type
REMARK                         _______ _______ _______ _____ _____    ______ ____
ROOT
ATOM      1  C   UNL     1       1.744   8.082  20.332  0.00  0.00    +0.000 A 
ATOM      2  C   UNL     1       2.157   6.750  20.229  0.00  0.00    +0.000 A 
ATOM      3  C   UNL     1       2.440   6.172  18.982  0.00  0.00    +0.000 A 
ATOM      4  C   UNL     1       2.267   6.905  17.809  0.00  0.00    +0.000 A 
ATOM      5  C   UNL     1       1.899   8.251  17.896  0.00  0.00    +0.000 A 
ATOM      6  C   UNL     1       1.692   8.845  19.150  0.00  0.00    +0.000 A 
ATOM      7 CL   UNL     1       1.558  10.571  19.214  0.00  0.00    +0.000 Cl
ENDROOT
BRANCH   1  10
ATOM      8  O   UNL     1      -0.896   8.112  21.579  0.00  0.00    +0.000 OA
ATOM      9  C   UNL     1       0.056   8.708  22.060  0.00  0.00    +0.000 C 
ATOM     10  N   UNL     1       1.360   8.655  21.575  0.00  0.00    +0.000 N 
ATOM     11  H   UNL     1       2.111   9.014  22.154  0.00  0.00    +0.000 HD
BRANCH   9  12
ATOM     12  C   UNL     1      -0.139   9.588  23.298  0.00  0.00    +0.000 C 
BRANCH  12  13
ATOM     13  O   UNL     1      -0.082  10.990  23.005  0.00  0.00    +0.000 OA
BRANCH  13  14
ATOM     14  C   UNL     1      -1.300  11.608  23.021  0.00  0.00    +0.000 C 
ATOM     15  O   UNL     1      -2.332  11.099  23.443  0.00  0.00    +0.000 OA
BRANCH  14  16
ATOM     16  C   UNL     1      -1.222  12.977  22.391  0.00  0.00    +0.000 C 
BRANCH  16  17
ATOM     17  C   UNL     1      -1.073  12.965  20.892  0.00  0.00    +0.000 A 
ATOM     18  C   UNL     1      -1.879  12.137  20.098  0.00  0.00    +0.000 A 
ATOM     19  C   UNL     1      -1.739  12.131  18.710  0.00  0.00    +0.000 A 
ATOM     20  C   UNL     1      -0.802  12.961  18.098  0.00  0.00    +0.000 A 
ATOM     21  C   UNL     1      -0.012  13.806  18.874  0.00  0.00    +0.000 A 
ATOM     22  C   UNL     1      -0.147  13.811  20.264  0.00  0.00    +0.000 A 
ENDBRANCH  16  17
ENDBRANCH  14  16
ENDBRANCH  13  14
ENDBRANCH  12  13
ENDBRANCH   9  12
ENDBRANCH   1  10
BRANCH   3  23
ATOM     23  S   UNL     1       3.311   4.600  18.955  0.00  0.00    +0.000 S 
ATOM     24  O   UNL     1       3.493   4.215  20.338  0.00  0.00    +0.000 OA
ATOM     25  O   UNL     1       2.609   3.745  18.028  0.00  0.00    +0.000 OA
BRANCH  23  26
ATOM     26  N   UNL     1       4.852   4.953  18.298  0.00  0.00    +0.000 NA
ATOM     27  C   UNL     1       5.932   5.156  19.295  0.00  0.00    +0.000 C 
ATOM     28  C   UNL     1       7.256   5.550  18.652  0.00  0.00    +0.000 C 
ATOM     29  C   UNL     1       7.621   4.620  17.506  0.00  0.00    +0.000 C 
ATOM     30  C   UNL     1       6.517   4.656  16.464  0.00  0.00    +0.000 C 
ATOM     31  C   UNL     1       5.183   4.222  17.056  0.00  0.00    +0.000 C 
ENDBRANCH  23  26
ENDBRANCH   3  23
TORSDOF 8
ENDMDL
MODEL 6
REMARK VINA RESULT:      -7.5      3.139      4.285
REMARK  Name = 
REMARK  8 active torsions:
REMARK  status: ('A' for Active; 'I' for Inactive)
REMARK    1  A    between atoms: C_2  and  C_3
REMARK    2  A    between atoms: C_3  and  O_4
REMARK    3  A    between atoms: O_4  and  C_5
REMARK    4  A    between atoms: C_5  and  C_7
REMARK    5  A    between atoms: C_7  and  C_8
REMARK    6  A    between atoms: N_14  and  C_15
REMARK    7  A    between atoms: C_17  and  S_18
REMARK    8  A    between atoms: S_18  and  N_21
REMARK                            x       y       z     vdW  Elec       q    Type
REMARK                         _______ _______ _______ _____ _____    ______ ____
ROOT
ATOM      1  C   UNL     1       3.544   6.571  17.454  0.00  0.00    +0.000 A 
ATOM      2  C   UNL     1       4.891   6.548  17.080  0.00  0.00    +0.000 A 
ATOM      3  C   UNL     1       5.635   5.359  17.118  0.00  0.00    +0.000 A 
ATOM      4  C   UNL     1       5.054   4.178  17.579  0.00  0.00    +0.000 A 
ATOM      5  C   UNL     1       3.697   4.173  17.913  0.00  0.00    +0.000 A 
ATOM      6  C   UNL     1       2.939   5.348  17.799  0.00  0.00    +0.000 A 
ATOM      7 CL   UNL     1       1.216   5.211  17.912  0.00  0.00    +0.000 Cl
ENDROOT
BRANCH   1  10
ATOM      8  O   UNL     1       2.335   7.845  19.786  0.00  0.00    +0.000 OA
ATOM      9  C   UNL     1       2.177   8.278  18.655  0.00  0.00    +0.000 C 
ATOM     10  N   UNL     1       2.802   7.782  17.514  0.00  0.00    +0.000 N 
ATOM     11  H   UNL     1       2.768   8.330  16.662  0.00  0.00    +0.000 HD
BRANCH   9  12
ATOM     12  C   UNL     1       1.238   9.464  18.414  0.00  0.00    +0.000 C 
BRANCH  12  13
ATOM     13  O   UNL     1       0.494   9.836  19.582  0.00  0.00    +0.000 OA
BRANCH  13  14
ATOM     14  C   UNL     1      -0.487  10.756  19.343  0.00  0.00    +0.000 C 
ATOM     15  O   UNL     1      -0.308  11.968  19.307  0.00  0.00    +0.000 OA
BRANCH  14  16
ATOM     16  C   UNL     1      -1.833  10.090  19.193  0.00  0.00    +0.000 C 
BRANCH  16  17
ATOM     17  C   UNL     1      -2.539  10.400  17.899  0.00  0.00    +0.000 A 
ATOM     18  C   UNL     1      -3.681  11.213  17.882  0.00  0.00    +0.000 A 
ATOM     19  C   UNL     1      -4.330  11.499  16.680  0.00  0.00    +0.000 A 
ATOM     20  C   UNL     1      -3.840  10.987  15.482  0.00  0.00    +0.000 A 
ATOM     21  C   UNL     1      -2.692  10.196  15.482  0.00  0.00    +0.000 A 
ATOM     22  C   UNL     1      -2.044   9.905  16.684  0.00  0.00    +0.000 A 
ENDBRANCH  16  17
ENDBRANCH  14  16
ENDBRANCH  13  14
ENDBRANCH  12  13
ENDBRANCH   9  12
ENDBRANCH   1  10
BRANCH   3  23
ATOM     23  S   UNL     1       7.226   5.327  16.283  0.00  0.00    +0.000 S 
ATOM     24  O   UNL     1       7.759   6.670  16.378  0.00  0.00    +0.000 OA
ATOM     25  O   UNL     1       7.955   4.196  16.806  0.00  0.00    +0.000 OA
BRANCH  23  26
ATOM     26  N   UNL     1       6.863   5.018  14.639  0.00  0.00    +0.000 NA
ATOM     27  C   UNL     1       7.929   5.389  13.676  0.00  0.00    +0.000 C 
ATOM     28  C   UNL     1       7.512   5.169  12.227  0.00  0.00    +0.000 C 
ATOM     29  C   UNL     1       6.925   3.782  12.017  0.00  0.00    +0.000 C 
ATOM     30  C   UNL     1       5.723   3.606  12.926  0.00  0.00    +0.000 C 
ATOM     31  C   UNL     1       6.107   3.772  14.390  0.00  0.00    +0.000 C 
ENDBRANCH  23  26
ENDBRANCH   3  23
TORSDOF 8
ENDMDL
MODEL 7
REMARK VINA RESULT:      -7.5      2.815      4.416
REMARK  Name = 
REMARK  8 active torsions:
REMARK  status: ('A' for Active; 'I' for Inactive)
REMARK    1  A    between atoms: C_2  and  C_3
REMARK    2  A    between atoms: C_3  and  O_4
REMARK    3  A    between atoms: O_4  and  C_5
REMARK    4  A    between atoms: C_5  and  C_7
REMARK    5  A    between atoms: C_7  and  C_8
REMARK    6  A    between atoms: N_14  and  C_15
REMARK    7  A    between atoms: C_17  and  S_18
REMARK    8  A    between atoms: S_18  and  N_21
REMARK                            x       y       z     vdW  Elec       q    Type
REMARK                         _______ _______ _______ _____ _____    ______ ____
ROOT
ATOM      1  C   UNL     1       4.272   6.638  17.277  0.00  0.00    +0.000 A 
ATOM      2  C   UNL     1       3.551   5.441  17.336  0.00  0.00    +0.000 A 
ATOM      3  C   UNL     1       4.182   4.204  17.138  0.00  0.00    +0.000 A 
ATOM      4  C   UNL     1       5.540   4.146  16.828  0.00  0.00    +0.000 A 
ATOM      5  C   UNL     1       6.285   5.329  16.811  0.00  0.00    +0.000 A 
ATOM      6  C   UNL     1       5.664   6.557  17.085  0.00  0.00    +0.000 A 
ATOM      7 CL   UNL     1       6.680   7.931  17.366  0.00  0.00    +0.000 Cl
ENDROOT
BRANCH   1  10
ATOM      8  O   UNL     1       2.242   7.500  19.190  0.00  0.00    +0.000 OA
ATOM      9  C   UNL     1       2.604   8.210  18.265  0.00  0.00    +0.000 C 
ATOM     10  N   UNL     1       3.633   7.905  17.379  0.00  0.00    +0.000 N 
ATOM     11  H   UNL     1       3.994   8.638  16.778  0.00  0.00    +0.000 HD
BRANCH   9  12
ATOM     12  C   UNL     1       1.916   9.557  18.019  0.00  0.00    +0.000 C 
BRANCH  12  13
ATOM     13  O   UNL     1       1.283  10.085  19.191  0.00  0.00    +0.000 OA
BRANCH  13  14
ATOM     14  C   UNL     1       0.334  11.032  18.928  0.00  0.00    +0.000 C 
ATOM     15  O   UNL     1       0.576  12.163  18.523  0.00  0.00    +0.000 OA
BRANCH  14  16
ATOM     16  C   UNL     1      -1.048  10.525  19.262  0.00  0.00    +0.000 C 
BRANCH  16  17
ATOM     17  C   UNL     1      -2.031  10.604  18.123  0.00  0.00    +0.000 A 
ATOM     18  C   UNL     1      -3.149  11.447  18.198  0.00  0.00    +0.000 A 
ATOM     19  C   UNL     1      -4.055  11.519  17.139  0.00  0.00    +0.000 A 
ATOM     20  C   UNL     1      -3.849  10.760  15.990  0.00  0.00    +0.000 A 
ATOM     21  C   UNL     1      -2.730   9.936  15.893  0.00  0.00    +0.000 A 
ATOM     22  C   UNL     1      -1.823   9.859  16.953  0.00  0.00    +0.000 A 
ENDBRANCH  16  17
ENDBRANCH  14  16
ENDBRANCH  13  14
ENDBRANCH  12  13
ENDBRANCH   9  12
ENDBRANCH   1  10
BRANCH   3  23
ATOM     23  S   UNL     1       3.287   2.713  17.592  0.00  0.00    +0.000 S 
ATOM     24  O   UNL     1       2.184   2.605  16.660  0.00  0.00    +0.000 OA
ATOM     25  O   UNL     1       4.262   1.657  17.720  0.00  0.00    +0.000 OA
BRANCH  23  26
ATOM     26  N   UNL     1       2.638   3.035  19.143  0.00  0.00    +0.000 NA
ATOM     27  C   UNL     1       1.156   3.102  19.206  0.00  0.00    +0.000 C 
ATOM     28  C   UNL     1       0.646   3.475  20.592  0.00  0.00    +0.000 C 
ATOM     29  C   UNL     1       1.286   2.621  21.675  0.00  0.00    +0.000 C 
ATOM     30  C   UNL     1       2.793   2.796  21.621  0.00  0.00    +0.000 C 
ATOM     31  C   UNL     1       3.351   2.388  20.265  0.00  0.00    +0.000 C 
ENDBRANCH  23  26
ENDBRANCH   3  23
TORSDOF 8
ENDMDL
MODEL 8
REMARK VINA RESULT:      -7.5      0.704      1.262
REMARK  Name = 
REMARK  8 active torsions:
REMARK  status: ('A' for Active; 'I' for Inactive)
REMARK    1  A    between atoms: C_2  and  C_3
REMARK    2  A    between atoms: C_3  and  O_4
REMARK    3  A    between atoms: O_4  and  C_5
REMARK    4  A    between atoms: C_5  and  C_7
REMARK    5  A    between atoms: C_7  and  C_8
REMARK    6  A    between atoms: N_14  and  C_15
REMARK    7  A    between atoms: C_17  and  S_18
REMARK    8  A    between atoms: S_18  and  N_21
REMARK                            x       y       z     vdW  Elec       q    Type
REMARK                         _______ _______ _______ _____ _____    ______ ____
ROOT
ATOM      1  C   UNL     1       1.888   7.818  20.192  0.00  0.00    +0.000 A 
ATOM      2  C   UNL     1       2.201   6.455  20.182  0.00  0.00    +0.000 A 
ATOM      3  C   UNL     1       2.481   5.783  18.983  0.00  0.00    +0.000 A 
ATOM      4  C   UNL     1       2.403   6.456  17.764  0.00  0.00    +0.000 A 
ATOM      5  C   UNL     1       2.137   7.828  17.759  0.00  0.00    +0.000 A 
ATOM      6  C   UNL     1       1.934   8.510  18.968  0.00  0.00    +0.000 A 
ATOM      7 CL   UNL     1       1.930  10.242  18.927  0.00  0.00    +0.000 Cl
ENDROOT
BRANCH   1  10
ATOM      8  O   UNL     1      -0.748   7.954  21.440  0.00  0.00    +0.000 OA
ATOM      9  C   UNL     1       0.206   8.586  21.868  0.00  0.00    +0.000 C 
ATOM     10  N   UNL     1       1.508   8.492  21.385  0.00  0.00    +0.000 N 
ATOM     11  H   UNL     1       2.261   8.897  21.931  0.00  0.00    +0.000 HD
BRANCH   9  12
ATOM     12  C   UNL     1       0.015   9.565  23.030  0.00  0.00    +0.000 C 
BRANCH  12  13
ATOM     13  O   UNL     1      -0.884  10.637  22.719  0.00  0.00    +0.000 OA
BRANCH  13  14
ATOM     14  C   UNL     1      -0.370  11.556  21.849  0.00  0.00    +0.000 C 
ATOM     15  O   UNL     1       0.827  11.769  21.692  0.00  0.00    +0.000 OA
BRANCH  14  16
ATOM     16  C   UNL     1      -1.469  12.319  21.151  0.00  0.00    +0.000 C 
BRANCH  16  17
ATOM     17  C   UNL     1      -1.933  11.700  19.859  0.00  0.00    +0.000 A 
ATOM     18  C   UNL     1      -1.169  10.711  19.222  0.00  0.00    +0.000 A 
ATOM     19  C   UNL     1      -1.605  10.139  18.026  0.00  0.00    +0.000 A 
ATOM     20  C   UNL     1      -2.814  10.537  17.461  0.00  0.00    +0.000 A 
ATOM     21  C   UNL     1      -3.594  11.502  18.096  0.00  0.00    +0.000 A 
ATOM     22  C   UNL     1      -3.157  12.079  19.290  0.00  0.00    +0.000 A 
ENDBRANCH  16  17
ENDBRANCH  14  16
ENDBRANCH  13  14
ENDBRANCH  12  13
ENDBRANCH   9  12
ENDBRANCH   1  10
BRANCH   3  23
ATOM     23  S   UNL     1       3.230   4.153  19.078  0.00  0.00    +0.000 S 
ATOM     24  O   UNL     1       3.260   3.804  20.483  0.00  0.00    +0.000 OA
ATOM     25  O   UNL     1       2.549   3.319  18.117  0.00  0.00    +0.000 OA
BRANCH  23  26
ATOM     26  N   UNL     1       4.844   4.369  18.553  0.00  0.00    +0.000 NA
ATOM     27  C   UNL     1       5.053   4.254  17.088  0.00  0.00    +0.000 C 
ATOM     28  C   UNL     1       6.520   4.371  16.694  0.00  0.00    +0.000 C 
ATOM     29  C   UNL     1       7.176   5.585  17.331  0.00  0.00    +0.000 C 
ATOM     30  C   UNL     1       7.060   5.480  18.841  0.00  0.00    +0.000 C 
ATOM     31  C   UNL     1       5.604   5.409  19.281  0.00  0.00    +0.000 C 
ENDBRANCH  23  26
ENDBRANCH   3  23
TORSDOF 8
ENDMDL
MODEL 9
REMARK VINA RESULT:      -7.5      2.267      2.882
REMARK  Name = 
REMARK  8 active torsions:
REMARK  status: ('A' for Active; 'I' for Inactive)
REMARK    1  A    between atoms: C_2  and  C_3
REMARK    2  A    between atoms: C_3  and  O_4
REMARK    3  A    between atoms: O_4  and  C_5
REMARK    4  A    between atoms: C_5  and  C_7
REMARK    5  A    between atoms: C_7  and  C_8
REMARK    6  A    between atoms: N_14  and  C_15
REMARK    7  A    between atoms: C_17  and  S_18
REMARK    8  A    between atoms: S_18  and  N_21
REMARK                            x       y       z     vdW  Elec       q    Type
REMARK                         _______ _______ _______ _____ _____    ______ ____
ROOT
ATOM      1  C   UNL     1       1.570   8.711  20.163  0.00  0.00    +0.000 A 
ATOM      2  C   UNL     1       2.225   7.490  19.983  0.00  0.00    +0.000 A 
ATOM      3  C   UNL     1       2.537   7.016  18.699  0.00  0.00    +0.000 A 
ATOM      4  C   UNL     1       2.153   7.736  17.569  0.00  0.00    +0.000 A 
ATOM      5  C   UNL     1       1.537   8.981  17.732  0.00  0.00    +0.000 A 
ATOM      6  C   UNL     1       1.298   9.485  19.019  0.00  0.00    +0.000 A 
ATOM      7 CL   UNL     1       0.836  11.148  19.161  0.00  0.00    +0.000 Cl
ENDROOT
BRANCH   1  10
ATOM      8  O   UNL     1      -0.877   8.064  21.619  0.00  0.00    +0.000 OA
ATOM      9  C   UNL     1      -0.069   8.879  22.037  0.00  0.00    +0.000 C 
ATOM     10  N   UNL     1       1.160   9.161  21.448  0.00  0.00    +0.000 N 
ATOM     11  H   UNL     1       1.842   9.696  21.974  0.00  0.00    +0.000 HD
BRANCH   9  12
ATOM     12  C   UNL     1      -0.375   9.673  23.311  0.00  0.00    +0.000 C 
BRANCH  12  13
ATOM     13  O   UNL     1      -1.387  10.670  23.122  0.00  0.00    +0.000 OA
BRANCH  13  14
ATOM     14  C   UNL     1      -0.919  11.843  22.602  0.00  0.00    +0.000 C 
ATOM     15  O   UNL     1       0.243  12.036  22.263  0.00  0.00    +0.000 OA
BRANCH  14  16
ATOM     16  C   UNL     1      -2.004  12.890  22.559  0.00  0.00    +0.000 C 
BRANCH  16  17
ATOM     17  C   UNL     1      -3.049  12.660  21.498  0.00  0.00    +0.000 A 
ATOM     18  C   UNL     1      -2.678  12.356  20.180  0.00  0.00    +0.000 A 
ATOM     19  C   UNL     1      -3.650  12.142  19.202  0.00  0.00    +0.000 A 
ATOM     20  C   UNL     1      -5.001  12.216  19.531  0.00  0.00    +0.000 A 
ATOM     21  C   UNL     1      -5.383  12.495  20.841  0.00  0.00    +0.000 A 
ATOM     22  C   UNL     1      -4.412  12.714  21.821  0.00  0.00    +0.000 A 
ENDBRANCH  16  17
ENDBRANCH  14  16
ENDBRANCH  13  14
ENDBRANCH  12  13
ENDBRANCH   9  12
ENDBRANCH   1  10
BRANCH   3  23
ATOM     23  S   UNL     1       3.693   5.647  18.559  0.00  0.00    +0.000 S 
ATOM     24  O   UNL     1       3.969   5.495  17.146  0.00  0.00    +0.000 OA
ATOM     25  O   UNL     1       4.755   5.893  19.504  0.00  0.00    +0.000 OA
BRANCH  23  26
ATOM     26  N   UNL     1       2.820   4.269  19.077  0.00  0.00    +0.000 NA
ATOM     27  C   UNL     1       2.692   4.119  20.548  0.00  0.00    +0.000 C 
ATOM     28  C   UNL     1       1.981   2.831  20.946  0.00  0.00    +0.000 C 
ATOM     29  C   UNL     1       0.683   2.647  20.177  0.00  0.00    +0.000 C 
ATOM     30  C   UNL     1       0.983   2.626  18.689  0.00  0.00    +0.000 C 
ATOM     31  C   UNL     1       1.653   3.918  18.241  0.00  0.00    +0.000 C 
ENDBRANCH  23  26
ENDBRANCH   3  23
TORSDOF 8
ENDMDL
