MODEL 1
REMARK VINA RESULT:      -7.6      0.000      0.000
REMARK  Name = 
REMARK  9 active torsions:
REMARK  status: ('A' for Active; 'I' for Inactive)
REMARK    1  A    between atoms: C_1  and  C_2
REMARK    2  A    between atoms: C_2  and  N_3
REMARK    3  A    between atoms: C_7  and  O_8
REMARK    4  A    between atoms: O_8  and  C_9
REMARK    5  A    between atoms: C_10  and  C_11
REMARK    6  A    between atoms: C_11  and  N_12
REMARK    7  A    between atoms: C_13  and  C_15
REMARK    8  A    between atoms: C_15  and  C_16
REMARK    9  A    between atoms: C_16  and  C_17
REMARK                            x       y       z     vdW  Elec       q    Type
REMARK                         _______ _______ _______ _____ _____    ______ ____
ROOT
ATOM      1  N   UNL     1       1.898   3.088  19.292  0.00  0.00    +0.000 N 
ATOM      2  C   UNL     1       1.352   4.436  19.297  0.00  0.00    +0.000 C 
ATOM      3  C   UNL     1       2.320   5.175  18.425  0.00  0.00    +0.000 A 
ATOM      4  N   UNL     1       2.302   6.493  18.188  0.00  0.00    +0.000 NA
ATOM      5  C   UNL     1       3.330   7.023  17.470  0.00  0.00    +0.000 A 
ATOM      6  C   UNL     1       4.384   6.231  16.961  0.00  0.00    +0.000 A 
ATOM      7  C   UNL     1       4.327   4.830  17.201  0.00  0.00    +0.000 A 
ATOM      8  C   UNL     1       3.296   4.325  17.959  0.00  0.00    +0.000 A 
ATOM      9  C   UNL     1       3.044   2.995  18.514  0.00  0.00    +0.000 C 
ATOM     10  O   UNL     1       3.771   2.037  18.345  0.00  0.00    +0.000 OA
ENDROOT
BRANCH   1  12
ATOM     11  C   UNL     1       1.638   2.693  21.706  0.00  0.00    +0.000 C 
ATOM     12  C   UNL     1       1.526   2.115  20.302  0.00  0.00    +0.000 C 
ENDBRANCH   1  12
BRANCH   5  13
ATOM     13  O   UNL     1       3.087   8.344  17.342  0.00  0.00    +0.000 OA
ATOM     14  C   UNL     1       1.992   9.011  17.921  0.00  0.00    +0.000 C 
ENDBRANCH   5  13
BRANCH   6  15
ATOM     15  C   UNL     1       5.585   6.710  16.182  0.00  0.00    +0.000 C 
BRANCH  15  16
ATOM     16  N   UNL     1       6.436   7.587  16.961  0.00  0.00    +0.000 N 
ATOM     17  C   UNL     1       7.532   7.095  17.647  0.00  0.00    +0.000 C 
ATOM     18  O   UNL     1       7.828   5.906  17.674  0.00  0.00    +0.000 OA
ATOM     19  H   UNL     1       6.148   8.543  17.109  0.00  0.00    +0.000 HD
BRANCH  17  20
ATOM     20  C   UNL     1       8.299   8.179  18.384  0.00  0.00    +0.000 C 
BRANCH  20  21
ATOM     21  C   UNL     1       8.469   9.490  17.606  0.00  0.00    +0.000 C 
BRANCH  21  22
ATOM     22  C   UNL     1       8.934  10.673  18.466  0.00  0.00    +0.000 C 
ATOM     23  C   UNL     1       9.443  10.274  19.849  0.00  0.00    +0.000 C 
ATOM     24  C   UNL     1      10.233  11.487  20.314  0.00  0.00    +0.000 C 
ATOM     25  C   UNL     1      10.789  12.133  19.047  0.00  0.00    +0.000 C 
ATOM     26  C   UNL     1      10.138  11.409  17.870  0.00  0.00    +0.000 C 
ENDBRANCH  21  22
ENDBRANCH  20  21
ENDBRANCH  17  20
ENDBRANCH  15  16
ENDBRANCH   6  15
TORSDOF 7
ENDMDL
MODEL 2
REMARK VINA RESULT:      -7.3      4.213      7.797
REMARK  Name = 
REMARK  9 active torsions:
REMARK  status: ('A' for Active; 'I' for Inactive)
REMARK    1  A    between atoms: C_1  and  C_2
REMARK    2  A    between atoms: C_2  and  N_3
REMARK    3  A    between atoms: C_7  and  O_8
REMARK    4  A    between atoms: O_8  and  C_9
REMARK    5  A    between atoms: C_10  and  C_11
REMARK    6  A    between atoms: C_11  and  N_12
REMARK    7  A    between atoms: C_13  and  C_15
REMARK    8  A    between atoms: C_15  and  C_16
REMARK    9  A    between atoms: C_16  and  C_17
REMARK                            x       y       z     vdW  Elec       q    Type
REMARK                         _______ _______ _______ _____ _____    ______ ____
ROOT
ATOM      1  N   UNL     1       5.340   4.654  16.396  0.00  0.00    +0.000 N 
ATOM      2  C   UNL     1       4.814   3.732  17.390  0.00  0.00    +0.000 C 
ATOM      3  C   UNL     1       3.909   4.613  18.195  0.00  0.00    +0.000 A 
ATOM      4  N   UNL     1       3.251   4.246  19.301  0.00  0.00    +0.000 NA
ATOM      5  C   UNL     1       2.567   5.207  19.982  0.00  0.00    +0.000 A 
ATOM      6  C   UNL     1       2.519   6.551  19.549  0.00  0.00    +0.000 A 
ATOM      7  C   UNL     1       3.197   6.875  18.340  0.00  0.00    +0.000 A 
ATOM      8  C   UNL     1       3.908   5.893  17.692  0.00  0.00    +0.000 A 
ATOM      9  C   UNL     1       4.825   5.934  16.551  0.00  0.00    +0.000 C 
ATOM     10  O   UNL     1       5.097   6.942  15.932  0.00  0.00    +0.000 OA
ENDROOT
BRANCH   1  12
ATOM     11  C   UNL     1       6.227   4.002  14.196  0.00  0.00    +0.000 C 
ATOM     12  C   UNL     1       6.544   4.353  15.644  0.00  0.00    +0.000 C 
ENDBRANCH   1  12
BRANCH   5  13
ATOM     13  O   UNL     1       1.974   4.605  21.034  0.00  0.00    +0.000 OA
ATOM     14  C   UNL     1       1.626   3.242  21.078  0.00  0.00    +0.000 C 
ENDBRANCH   5  13
BRANCH   6  15
ATOM     15  C   UNL     1       1.823   7.702  20.234  0.00  0.00    +0.000 C 
BRANCH  15  16
ATOM     16  N   UNL     1       1.532   8.793  19.325  0.00  0.00    +0.000 N 
ATOM     17  C   UNL     1       0.964   9.969  19.780  0.00  0.00    +0.000 C 
ATOM     18  O   UNL     1       0.639  10.149  20.948  0.00  0.00    +0.000 OA
ATOM     19  H   UNL     1       1.624   8.639  18.332  0.00  0.00    +0.000 HD
BRANCH  17  20
ATOM     20  C   UNL     1       0.757  10.989  18.673  0.00  0.00    +0.000 C 
BRANCH  20  21
ATOM     21  C   UNL     1      -0.592  11.719  18.716  0.00  0.00    +0.000 C 
BRANCH  21  22
ATOM     22  C   UNL     1      -1.803  10.810  18.462  0.00  0.00    +0.000 C 
ATOM     23  C   UNL     1      -3.127  11.560  18.338  0.00  0.00    +0.000 C 
ATOM     24  C   UNL     1      -4.054  10.558  17.667  0.00  0.00    +0.000 C 
ATOM     25  C   UNL     1      -3.161   9.687  16.788  0.00  0.00    +0.000 C 
ATOM     26  C   UNL     1      -1.720  10.061  17.128  0.00  0.00    +0.000 C 
ENDBRANCH  21  22
ENDBRANCH  20  21
ENDBRANCH  17  20
ENDBRANCH  15  16
ENDBRANCH   6  15
TORSDOF 7
ENDMDL
MODEL 3
REMARK VINA RESULT:      -7.2      1.198      1.315
REMARK  Name = 
REMARK  9 active torsions:
REMARK  status: ('A' for Active; 'I' for Inactive)
REMARK    1  A    between atoms: C_1  and  C_2
REMARK    2  A    between atoms: C_2  and  N_3
REMARK    3  A    between atoms: C_7  and  O_8
REMARK    4  A    between atoms: O_8  and  C_9
REMARK    5  A    between atoms: C_10  and  C_11
REMARK    6  A    between atoms: C_11  and  N_12
REMARK    7  A    between atoms: C_13  and  C_15
REMARK    8  A    between atoms: C_15  and  C_16
REMARK    9  A    between atoms: C_16  and  C_17
REMARK                            x       y       z     vdW  Elec       q    Type
REMARK                         _______ _______ _______ _____ _____    ______ ____
ROOT
ATOM      1  N   UNL     1       2.977   3.195  20.474  0.00  0.00    +0.000 N 
ATOM      2  C   UNL     1       2.293   4.430  20.125  0.00  0.00    +0.000 C 
ATOM      3  C   UNL     1       3.250   5.063  19.162  0.00  0.00    +0.000 A 
ATOM      4  N   UNL     1       3.113   6.279  18.618  0.00  0.00    +0.000 NA
ATOM      5  C   UNL     1       4.138   6.753  17.857  0.00  0.00    +0.000 A 
ATOM      6  C   UNL     1       5.310   6.003  17.616  0.00  0.00    +0.000 A 
ATOM      7  C   UNL     1       5.382   4.698  18.179  0.00  0.00    +0.000 A 
ATOM      8  C   UNL     1       4.348   4.257  18.972  0.00  0.00    +0.000 A 
ATOM      9  C   UNL     1       4.190   3.068  19.811  0.00  0.00    +0.000 C 
ATOM     10  O   UNL     1       5.027   2.195  19.919  0.00  0.00    +0.000 OA
ENDROOT
BRANCH   1  12
ATOM     11  C   UNL     1       1.128   2.505  21.943  0.00  0.00    +0.000 C 
ATOM     12  C   UNL     1       2.623   2.441  21.663  0.00  0.00    +0.000 C 
ENDBRANCH   1  12
BRANCH   5  13
ATOM     13  O   UNL     1       3.768   7.970  17.405  0.00  0.00    +0.000 OA
ATOM     14  C   UNL     1       2.502   8.546  17.616  0.00  0.00    +0.000 C 
ENDBRANCH   5  13
BRANCH   6  15
ATOM     15  C   UNL     1       6.517   6.435  16.819  0.00  0.00    +0.000 C 
BRANCH  15  16
ATOM     16  N   UNL     1       6.847   7.831  17.027  0.00  0.00    +0.000 N 
ATOM     17  C   UNL     1       7.819   8.208  17.937  0.00  0.00    +0.000 C 
ATOM     18  O   UNL     1       8.425   7.408  18.641  0.00  0.00    +0.000 OA
ATOM     19  H   UNL     1       6.269   8.539  16.600  0.00  0.00    +0.000 HD
BRANCH  17  20
ATOM     20  C   UNL     1       8.023   9.712  17.990  0.00  0.00    +0.000 C 
BRANCH  20  21
ATOM     21  C   UNL     1       9.477  10.170  17.819  0.00  0.00    +0.000 C 
BRANCH  21  22
ATOM     22  C   UNL     1       9.899  11.286  18.785  0.00  0.00    +0.000 C 
ATOM     23  C   UNL     1       9.455  11.060  20.228  0.00  0.00    +0.000 C 
ATOM     24  C   UNL     1      10.333  12.003  21.035  0.00  0.00    +0.000 C 
ATOM     25  C   UNL     1      11.643  12.120  20.260  0.00  0.00    +0.000 C 
ATOM     26  C   UNL     1      11.419  11.415  18.923  0.00  0.00    +0.000 C 
ENDBRANCH  21  22
ENDBRANCH  20  21
ENDBRANCH  17  20
ENDBRANCH  15  16
ENDBRANCH   6  15
TORSDOF 7
ENDMDL
MODEL 4
REMARK VINA RESULT:      -7.2      3.704      7.276
REMARK  Name = 
REMARK  9 active torsions:
REMARK  status: ('A' for Active; 'I' for Inactive)
REMARK    1  A    between atoms: C_1  and  C_2
REMARK    2  A    between atoms: C_2  and  N_3
REMARK    3  A    between atoms: C_7  and  O_8
REMARK    4  A    between atoms: O_8  and  C_9
REMARK    5  A    between atoms: C_10  and  C_11
REMARK    6  A    between atoms: C_11  and  N_12
REMARK    7  A    between atoms: C_13  and  C_15
REMARK    8  A    between atoms: C_15  and  C_16
REMARK    9  A    between atoms: C_16  and  C_17
REMARK                            x       y       z     vdW  Elec       q    Type
REMARK                         _______ _______ _______ _____ _____    ______ ____
ROOT
ATOM      1  N   UNL     1       6.378   5.619  16.486  0.00  0.00    +0.000 N 
ATOM      2  C   UNL     1       5.534   6.714  16.036  0.00  0.00    +0.000 C 
ATOM      3  C   UNL     1       4.559   6.850  17.164  0.00  0.00    +0.000 A 
ATOM      4  N   UNL     1       3.506   7.677  17.186  0.00  0.00    +0.000 NA
ATOM      5  C   UNL     1       2.648   7.585  18.239  0.00  0.00    +0.000 A 
ATOM      6  C   UNL     1       2.846   6.672  19.299  0.00  0.00    +0.000 A 
ATOM      7  C   UNL     1       4.007   5.851  19.248  0.00  0.00    +0.000 A 
ATOM      8  C   UNL     1       4.839   5.939  18.157  0.00  0.00    +0.000 A 
ATOM      9  C   UNL     1       5.990   5.142  17.731  0.00  0.00    +0.000 C 
ATOM     10  O   UNL     1       6.440   4.205  18.359  0.00  0.00    +0.000 OA
ENDROOT
BRANCH   1  12
ATOM     11  C   UNL     1       6.389   3.969  14.661  0.00  0.00    +0.000 C 
ATOM     12  C   UNL     1       7.215   4.877  15.561  0.00  0.00    +0.000 C 
ENDBRANCH   1  12
BRANCH   5  13
ATOM     13  O   UNL     1       1.691   8.519  18.056  0.00  0.00    +0.000 OA
ATOM     14  C   UNL     1       1.905   9.906  18.152  0.00  0.00    +0.000 C 
ENDBRANCH   5  13
BRANCH   6  15
ATOM     15  C   UNL     1       1.951   6.461  20.495  0.00  0.00    +0.000 C 
BRANCH  15  16
ATOM     16  N   UNL     1       1.304   5.164  20.481  0.00  0.00    +0.000 N 
ATOM     17  C   UNL     1       1.833   4.094  21.181  0.00  0.00    +0.000 C 
ATOM     18  O   UNL     1       2.882   4.159  21.813  0.00  0.00    +0.000 OA
ATOM     19  H   UNL     1       0.534   5.008  19.848  0.00  0.00    +0.000 HD
BRANCH  17  20
ATOM     20  C   UNL     1       0.997   2.833  21.049  0.00  0.00    +0.000 C 
BRANCH  20  21
ATOM     21  C   UNL     1       0.316   2.653  19.686  0.00  0.00    +0.000 C 
BRANCH  21  22
ATOM     22  C   UNL     1       1.286   2.344  18.538  0.00  0.00    +0.000 C 
ATOM     23  C   UNL     1       1.710   3.570  17.734  0.00  0.00    +0.000 C 
ATOM     24  C   UNL     1       2.956   3.110  16.992  0.00  0.00    +0.000 C 
ATOM     25  C   UNL     1       3.612   2.062  17.888  0.00  0.00    +0.000 C 
ATOM     26  C   UNL     1       2.628   1.785  19.023  0.00  0.00    +0.000 C 
ENDBRANCH  21  22
ENDBRANCH  20  21
ENDBRANCH  17  20
ENDBRANCH  15  16
ENDBRANCH   6  15
TORSDOF 7
ENDMDL
MODEL 5
REMARK VINA RESULT:      -7.0      2.778      5.437
REMARK  Name = 
REMARK  9 active torsions:
REMARK  status: ('A' for Active; 'I' for Inactive)
REMARK    1  A    between atoms: C_1  and  C_2
REMARK    2  A    between atoms: C_2  and  N_3
REMARK    3  A    between atoms: C_7  and  O_8
REMARK    4  A    between atoms: O_8  and  C_9
REMARK    5  A    between atoms: C_10  and  C_11
REMARK    6  A    between atoms: C_11  and  N_12
REMARK    7  A    between atoms: C_13  and  C_15
REMARK    8  A    between atoms: C_15  and  C_16
REMARK    9  A    between atoms: C_16  and  C_17
REMARK                            x       y       z     vdW  Elec       q    Type
REMARK                         _______ _______ _______ _____ _____    ______ ____
ROOT
ATOM      1  N   UNL     1       1.176   9.798  19.648  0.00  0.00    +0.000 N 
ATOM      2  C   UNL     1       1.108   8.897  20.786  0.00  0.00    +0.000 C 
ATOM      3  C   UNL     1       1.703   7.639  20.233  0.00  0.00    +0.000 A 
ATOM      4  N   UNL     1       1.782   6.468  20.877  0.00  0.00    +0.000 NA
ATOM      5  C   UNL     1       2.240   5.390  20.182  0.00  0.00    +0.000 A 
ATOM      6  C   UNL     1       2.645   5.477  18.832  0.00  0.00    +0.000 A 
ATOM      7  C   UNL     1       2.586   6.756  18.211  0.00  0.00    +0.000 A 
ATOM      8  C   UNL     1       2.086   7.820  18.924  0.00  0.00    +0.000 A 
ATOM      9  C   UNL     1       1.746   9.190  18.537  0.00  0.00    +0.000 C 
ATOM     10  O   UNL     1       1.895   9.639  17.419  0.00  0.00    +0.000 OA
ENDROOT
BRANCH   1  12
ATOM     11  C   UNL     1      -1.028  10.715  19.053  0.00  0.00    +0.000 C 
ATOM     12  C   UNL     1       0.369  11.003  19.584  0.00  0.00    +0.000 C 
ENDBRANCH   1  12
BRANCH   5  13
ATOM     13  O   UNL     1       2.252   4.343  21.034  0.00  0.00    +0.000 OA
ATOM     14  C   UNL     1       1.243   3.365  21.105  0.00  0.00    +0.000 C 
ENDBRANCH   5  13
BRANCH   6  15
ATOM     15  C   UNL     1       3.138   4.351  17.957  0.00  0.00    +0.000 C 
BRANCH  15  16
ATOM     16  N   UNL     1       3.958   4.821  16.858  0.00  0.00    +0.000 N 
ATOM     17  C   UNL     1       4.876   3.988  16.244  0.00  0.00    +0.000 C 
ATOM     18  O   UNL     1       5.082   2.835  16.605  0.00  0.00    +0.000 OA
ATOM     19  H   UNL     1       3.951   5.804  16.629  0.00  0.00    +0.000 HD
BRANCH  17  20
ATOM     20  C   UNL     1       5.620   4.668  15.108  0.00  0.00    +0.000 C 
BRANCH  20  21
ATOM     21  C   UNL     1       6.920   5.372  15.520  0.00  0.00    +0.000 C 
BRANCH  21  22
ATOM     22  C   UNL     1       6.927   5.872  16.971  0.00  0.00    +0.000 C 
ATOM     23  C   UNL     1       7.640   4.939  17.946  0.00  0.00    +0.000 C 
ATOM     24  C   UNL     1       7.908   5.813  19.162  0.00  0.00    +0.000 C 
ATOM     25  C   UNL     1       8.076   7.232  18.626  0.00  0.00    +0.000 C 
ATOM     26  C   UNL     1       7.695   7.185  17.147  0.00  0.00    +0.000 C 
ENDBRANCH  21  22
ENDBRANCH  20  21
ENDBRANCH  17  20
ENDBRANCH  15  16
ENDBRANCH   6  15
TORSDOF 7
ENDMDL
MODEL 6
REMARK VINA RESULT:      -7.0      4.205      7.748
REMARK  Name = 
REMARK  9 active torsions:
REMARK  status: ('A' for Active; 'I' for Inactive)
REMARK    1  A    between atoms: C_1  and  C_2
REMARK    2  A    between atoms: C_2  and  N_3
REMARK    3  A    between atoms: C_7  and  O_8
REMARK    4  A    between atoms: O_8  and  C_9
REMARK    5  A    between atoms: C_10  and  C_11
REMARK    6  A    between atoms: C_11  and  N_12
REMARK    7  A    between atoms: C_13  and  C_15
REMARK    8  A    between atoms: C_15  and  C_16
REMARK    9  A    between atoms: C_16  and  C_17
REMARK                            x       y       z     vdW  Elec       q    Type
REMARK                         _______ _______ _______ _____ _____    ______ ____
ROOT
ATOM      1  N   UNL     1       5.366   4.824  16.469  0.00  0.00    +0.000 N 
ATOM      2  C   UNL     1       5.047   3.756  17.403  0.00  0.00    +0.000 C 
ATOM      3  C   UNL     1       4.074   4.422  18.327  0.00  0.00    +0.000 A 
ATOM      4  N   UNL     1       3.549   3.871  19.429  0.00  0.00    +0.000 NA
ATOM      5  C   UNL     1       2.775   4.659  20.226  0.00  0.00    +0.000 A 
ATOM      6  C   UNL     1       2.501   6.010  19.916  0.00  0.00    +0.000 A 
ATOM      7  C   UNL     1       3.045   6.530  18.708  0.00  0.00    +0.000 A 
ATOM      8  C   UNL     1       3.852   5.723  17.940  0.00  0.00    +0.000 A 
ATOM      9  C   UNL     1       4.678   5.994  16.763  0.00  0.00    +0.000 C 
ATOM     10  O   UNL     1       4.759   7.078  16.222  0.00  0.00    +0.000 OA
ENDROOT
BRANCH   1  12
ATOM     11  C   UNL     1       6.268   4.089  14.301  0.00  0.00    +0.000 C 
ATOM     12  C   UNL     1       6.551   4.772  15.633  0.00  0.00    +0.000 C 
ENDBRANCH   1  12
BRANCH   5  13
ATOM     13  O   UNL     1       2.345   3.891  21.249  0.00  0.00    +0.000 OA
ATOM     14  C   UNL     1       1.194   3.083  21.208  0.00  0.00    +0.000 C 
ENDBRANCH   5  13
BRANCH   6  15
ATOM     15  C   UNL     1       1.688   6.983  20.735  0.00  0.00    +0.000 C 
BRANCH  15  16
ATOM     16  N   UNL     1       1.564   8.277  20.094  0.00  0.00    +0.000 N 
ATOM     17  C   UNL     1       0.611   9.191  20.508  0.00  0.00    +0.000 C 
ATOM     18  O   UNL     1      -0.199   8.958  21.397  0.00  0.00    +0.000 OA
ATOM     19  H   UNL     1       2.091   8.459  19.253  0.00  0.00    +0.000 HD
BRANCH  17  20
ATOM     20  C   UNL     1       0.659  10.489  19.720  0.00  0.00    +0.000 C 
BRANCH  20  21
ATOM     21  C   UNL     1      -0.669  11.254  19.661  0.00  0.00    +0.000 C 
BRANCH  21  22
ATOM     22  C   UNL     1      -1.328  11.257  18.274  0.00  0.00    +0.000 C 
ATOM     23  C   UNL     1      -1.303   9.902  17.572  0.00  0.00    +0.000 C 
ATOM     24  C   UNL     1      -2.358  10.032  16.484  0.00  0.00    +0.000 C 
ATOM     25  C   UNL     1      -3.401  11.005  17.030  0.00  0.00    +0.000 C 
ATOM     26  C   UNL     1      -2.825  11.577  18.324  0.00  0.00    +0.000 C 
ENDBRANCH  21  22
ENDBRANCH  20  21
ENDBRANCH  17  20
ENDBRANCH  15  16
ENDBRANCH   6  15
TORSDOF 7
ENDMDL
MODEL 7
REMARK VINA RESULT:      -7.0      3.809      7.185
REMARK  Name = 
REMARK  9 active torsions:
REMARK  status: ('A' for Active; 'I' for Inactive)
REMARK    1  A    between atoms: C_1  and  C_2
REMARK    2  A    between atoms: C_2  and  N_3
REMARK    3  A    between atoms: C_7  and  O_8
REMARK    4  A    between atoms: O_8  and  C_9
REMARK    5  A    between atoms: C_10  and  C_11
REMARK    6  A    between atoms: C_11  and  N_12
REMARK    7  A    between atoms: C_13  and  C_15
REMARK    8  A    between atoms: C_15  and  C_16
REMARK    9  A    between atoms: C_16  and  C_17
REMARK                            x       y       z     vdW  Elec       q    Type
REMARK                         _______ _______ _______ _____ _____    ______ ____
ROOT
ATOM      1  N   UNL     1       1.365   8.915  19.102  0.00  0.00    +0.000 N 
ATOM      2  C   UNL     1       2.061   9.059  17.834  0.00  0.00    +0.000 C 
ATOM      3  C   UNL     1       3.029   7.917  17.870  0.00  0.00    +0.000 A 
ATOM      4  N   UNL     1       3.973   7.669  16.953  0.00  0.00    +0.000 NA
ATOM      5  C   UNL     1       4.851   6.659  17.202  0.00  0.00    +0.000 A 
ATOM      6  C   UNL     1       4.782   5.868  18.370  0.00  0.00    +0.000 A 
ATOM      7  C   UNL     1       3.729   6.143  19.288  0.00  0.00    +0.000 A 
ATOM      8  C   UNL     1       2.878   7.191  19.029  0.00  0.00    +0.000 A 
ATOM      9  C   UNL     1       1.827   7.824  19.827  0.00  0.00    +0.000 C 
ATOM     10  O   UNL     1       1.504   7.461  20.940  0.00  0.00    +0.000 OA
ENDROOT
BRANCH   1  12
ATOM     11  C   UNL     1       1.268  11.355  19.401  0.00  0.00    +0.000 C 
ATOM     12  C   UNL     1       0.611  10.011  19.683  0.00  0.00    +0.000 C 
ENDBRANCH   1  12
BRANCH   5  13
ATOM     13  O   UNL     1       5.684   6.584  16.142  0.00  0.00    +0.000 OA
ATOM     14  C   UNL     1       5.581   5.627  15.116  0.00  0.00    +0.000 C 
ENDBRANCH   5  13
BRANCH   6  15
ATOM     15  C   UNL     1       5.713   4.748  18.766  0.00  0.00    +0.000 C 
BRANCH  15  16
ATOM     16  N   UNL     1       5.012   3.503  19.006  0.00  0.00    +0.000 N 
ATOM     17  C   UNL     1       4.366   2.837  17.979  0.00  0.00    +0.000 C 
ATOM     18  O   UNL     1       4.311   3.266  16.832  0.00  0.00    +0.000 OA
ATOM     19  H   UNL     1       4.883   3.189  19.956  0.00  0.00    +0.000 HD
BRANCH  17  20
ATOM     20  C   UNL     1       3.708   1.547  18.436  0.00  0.00    +0.000 C 
BRANCH  20  21
ATOM     21  C   UNL     1       2.179   1.527  18.313  0.00  0.00    +0.000 C 
BRANCH  21  22
ATOM     22  C   UNL     1       1.448   2.204  19.481  0.00  0.00    +0.000 C 
ATOM     23  C   UNL     1       2.277   2.304  20.758  0.00  0.00    +0.000 C 
ATOM     24  C   UNL     1       1.557   3.361  21.582  0.00  0.00    +0.000 C 
ATOM     25  C   UNL     1       0.915   4.310  20.573  0.00  0.00    +0.000 C 
ATOM     26  C   UNL     1       1.096   3.668  19.198  0.00  0.00    +0.000 C 
ENDBRANCH  21  22
ENDBRANCH  20  21
ENDBRANCH  17  20
ENDBRANCH  15  16
ENDBRANCH   6  15
TORSDOF 7
ENDMDL
MODEL 8
REMARK VINA RESULT:      -6.9      2.688      5.473
REMARK  Name = 
REMARK  9 active torsions:
REMARK  status: ('A' for Active; 'I' for Inactive)
REMARK    1  A    between atoms: C_1  and  C_2
REMARK    2  A    between atoms: C_2  and  N_3
REMARK    3  A    between atoms: C_7  and  O_8
REMARK    4  A    between atoms: O_8  and  C_9
REMARK    5  A    between atoms: C_10  and  C_11
REMARK    6  A    between atoms: C_11  and  N_12
REMARK    7  A    between atoms: C_13  and  C_15
REMARK    8  A    between atoms: C_15  and  C_16
REMARK    9  A    between atoms: C_16  and  C_17
REMARK                            x       y       z     vdW  Elec       q    Type
REMARK                         _______ _______ _______ _____ _____    ______ ____
ROOT
ATOM      1  N   UNL     1       1.544   9.471  19.630  0.00  0.00    +0.000 N 
ATOM      2  C   UNL     1       1.331   8.609  20.781  0.00  0.00    +0.000 C 
ATOM      3  C   UNL     1       1.613   7.250  20.218  0.00  0.00    +0.000 A 
ATOM      4  N   UNL     1       1.462   6.091  20.872  0.00  0.00    +0.000 NA
ATOM      5  C   UNL     1       1.645   4.938  20.172  0.00  0.00    +0.000 A 
ATOM      6  C   UNL     1       2.001   4.932  18.805  0.00  0.00    +0.000 A 
ATOM      7  C   UNL     1       2.195   6.191  18.172  0.00  0.00    +0.000 A 
ATOM      8  C   UNL     1       1.970   7.341  18.893  0.00  0.00    +0.000 A 
ATOM      9  C   UNL     1       1.920   8.751  18.504  0.00  0.00    +0.000 C 
ATOM     10  O   UNL     1       2.115   9.154  17.375  0.00  0.00    +0.000 OA
ENDROOT
BRANCH   1  12
ATOM     11  C   UNL     1      -0.307  10.933  20.329  0.00  0.00    +0.000 C 
ATOM     12  C   UNL     1       1.017  10.823  19.586  0.00  0.00    +0.000 C 
ENDBRANCH   1  12
BRANCH   5  13
ATOM     13  O   UNL     1       1.465   3.915  21.034  0.00  0.00    +0.000 OA
ATOM     14  C   UNL     1       2.462   2.988  21.388  0.00  0.00    +0.000 C 
ENDBRANCH   5  13
BRANCH   6  15
ATOM     15  C   UNL     1       2.198   3.723  17.923  0.00  0.00    +0.000 C 
BRANCH  15  16
ATOM     16  N   UNL     1       3.349   3.856  17.052  0.00  0.00    +0.000 N 
ATOM     17  C   UNL     1       4.626   3.578  17.507  0.00  0.00    +0.000 C 
ATOM     18  O   UNL     1       4.869   3.248  18.662  0.00  0.00    +0.000 OA
ATOM     19  H   UNL     1       3.229   4.281  16.145  0.00  0.00    +0.000 HD
BRANCH  17  20
ATOM     20  C   UNL     1       5.685   3.763  16.435  0.00  0.00    +0.000 C 
BRANCH  20  21
ATOM     21  C   UNL     1       5.914   5.217  16.001  0.00  0.00    +0.000 C 
BRANCH  21  22
ATOM     22  C   UNL     1       7.089   5.904  16.710  0.00  0.00    +0.000 C 
ATOM     23  C   UNL     1       6.818   7.356  17.095  0.00  0.00    +0.000 C 
ATOM     24  C   UNL     1       7.885   7.665  18.135  0.00  0.00    +0.000 C 
ATOM     25  C   UNL     1       8.176   6.343  18.840  0.00  0.00    +0.000 C 
ATOM     26  C   UNL     1       7.432   5.262  18.058  0.00  0.00    +0.000 C 
ENDBRANCH  21  22
ENDBRANCH  20  21
ENDBRANCH  17  20
ENDBRANCH  15  16
ENDBRANCH   6  15
TORSDOF 7
ENDMDL
MODEL 9
REMARK VINA RESULT:      -6.9      2.727      5.062
REMARK  Name = 
REMARK  9 active torsions:
REMARK  status: ('A' for Active; 'I' for Inactive)
REMARK    1  A    between atoms: C_1  and  C_2
REMARK    2  A    between atoms: C_2  and  N_3
REMARK    3  A    between atoms: C_7  and  O_8
REMARK    4  A    between atoms: O_8  and  C_9
REMARK    5  A    between atoms: C_10  and  C_11
REMARK    6  A    between atoms: C_11  and  N_12
REMARK    7  A    between atoms: C_13  and  C_15
REMARK    8  A    between atoms: C_15  and  C_16
REMARK    9  A    between atoms: C_16  and  C_17
REMARK                            x       y       z     vdW  Elec       q    Type
REMARK                         _______ _______ _______ _____ _____    ______ ____
ROOT
ATOM      1  N   UNL     1       1.685   8.596  19.563  0.00  0.00    +0.000 N 
ATOM      2  C   UNL     1       1.599   7.603  20.621  0.00  0.00    +0.000 C 
ATOM      3  C   UNL     1       2.141   6.377  19.954  0.00  0.00    +0.000 A 
ATOM      4  N   UNL     1       2.185   5.153  20.495  0.00  0.00    +0.000 NA
ATOM      5  C   UNL     1       2.595   4.123  19.704  0.00  0.00    +0.000 A 
ATOM      6  C   UNL     1       2.987   4.312  18.360  0.00  0.00    +0.000 A 
ATOM      7  C   UNL     1       2.967   5.641  17.851  0.00  0.00    +0.000 A 
ATOM      8  C   UNL     1       2.515   6.657  18.660  0.00  0.00    +0.000 A 
ATOM      9  C   UNL     1       2.220   8.066  18.396  0.00  0.00    +0.000 C 
ATOM     10  O   UNL     1       2.372   8.604  17.318  0.00  0.00    +0.000 OA
ENDROOT
BRANCH   1  12
ATOM     11  C   UNL     1      -0.309   9.691  20.500  0.00  0.00    +0.000 C 
ATOM     12  C   UNL     1       0.923   9.829  19.615  0.00  0.00    +0.000 C 
ENDBRANCH   1  12
BRANCH   5  13
ATOM     13  O   UNL     1       2.579   3.007  20.463  0.00  0.00    +0.000 OA
ATOM     14  C   UNL     1       2.083   2.948  21.778  0.00  0.00    +0.000 C 
ENDBRANCH   5  13
BRANCH   6  15
ATOM     15  C   UNL     1       3.428   3.248  17.385  0.00  0.00    +0.000 C 
BRANCH  15  16
ATOM     16  N   UNL     1       4.816   3.397  16.994  0.00  0.00    +0.000 N 
ATOM     17  C   UNL     1       5.158   3.867  15.738  0.00  0.00    +0.000 C 
ATOM     18  O   UNL     1       4.330   4.145  14.878  0.00  0.00    +0.000 OA
ATOM     19  H   UNL     1       5.536   3.029  17.597  0.00  0.00    +0.000 HD
BRANCH  17  20
ATOM     20  C   UNL     1       6.660   3.964  15.535  0.00  0.00    +0.000 C 
BRANCH  20  21
ATOM     21  C   UNL     1       7.236   5.379  15.669  0.00  0.00    +0.000 C 
BRANCH  21  22
ATOM     22  C   UNL     1       7.126   5.969  17.082  0.00  0.00    +0.000 C 
ATOM     23  C   UNL     1       7.757   5.102  18.168  0.00  0.00    +0.000 C 
ATOM     24  C   UNL     1       7.925   6.051  19.345  0.00  0.00    +0.000 C 
ATOM     25  C   UNL     1       8.136   7.435  18.737  0.00  0.00    +0.000 C 
ATOM     26  C   UNL     1       7.877   7.295  17.238  0.00  0.00    +0.000 C 
ENDBRANCH  21  22
ENDBRANCH  20  21
ENDBRANCH  17  20
ENDBRANCH  15  16
ENDBRANCH   6  15
TORSDOF 7
ENDMDL
