MODEL 1
REMARK VINA RESULT:      -7.8      0.000      0.000
REMARK  Name = 
REMARK  4 active torsions:
REMARK  status: ('A' for Active; 'I' for Inactive)
REMARK    1  A    between atoms: C_1  and  S_2
REMARK    2  A    between atoms: S_2  and  C_5
REMARK    3  A    between atoms: C_8  and  C_9
REMARK    4  A    between atoms: C_13  and  C_14
REMARK                            x       y       z     vdW  Elec       q    Type
REMARK                         _______ _______ _______ _____ _____    ______ ____
ROOT
ATOM      1  C   UNL     1       2.712   5.605  18.201  0.00  0.00    +0.000 A 
ATOM      2  N   UNL     1       1.832   4.587  17.888  0.00  0.00    +0.000 N 
ATOM      3  C   UNL     1       2.542   3.511  17.447  0.00  0.00    +0.000 A 
ATOM      4  N   UNL     1       3.828   3.759  17.444  0.00  0.00    +0.000 NA
ATOM      5  C   UNL     1       3.960   5.039  17.939  0.00  0.00    +0.000 A 
ATOM      6  H   UNL     1       0.826   4.632  17.961  0.00  0.00    +0.000 HD
ENDROOT
BRANCH   5   7
ATOM      7  C   UNL     1       5.277   5.638  18.133  0.00  0.00    +0.000 A 
ATOM      8  C   UNL     1       5.694   6.668  17.275  0.00  0.00    +0.000 A 
ATOM      9  C   UNL     1       6.942   7.271  17.449  0.00  0.00    +0.000 A 
ATOM     10  C   UNL     1       7.768   6.850  18.482  0.00  0.00    +0.000 A 
ATOM     11  F   UNL     1       8.960   7.438  18.657  0.00  0.00    +0.000 F 
ATOM     12  C   UNL     1       7.384   5.822  19.331  0.00  0.00    +0.000 A 
ATOM     13  C   UNL     1       6.147   5.200  19.139  0.00  0.00    +0.000 A 
ENDBRANCH   5   7
BRANCH   1  17
ATOM     14  C   UNL     1       1.170   9.330  19.609  0.00  0.00    +0.000 A 
ATOM     15  C   UNL     1       1.551   9.203  18.274  0.00  0.00    +0.000 A 
ATOM     16  C   UNL     1       2.088   7.993  17.821  0.00  0.00    +0.000 A 
ATOM     17  C   UNL     1       2.269   6.913  18.699  0.00  0.00    +0.000 A 
ATOM     18  C   UNL     1       1.970   7.102  20.057  0.00  0.00    +0.000 A 
ATOM     19  C   UNL     1       1.398   8.292  20.514  0.00  0.00    +0.000 A 
BRANCH  14  21
ATOM     20  C   UNL     1       1.266  12.090  19.272  0.00  0.00    +0.000 C 
ATOM     21  S   UNL     1       0.396  10.829  20.170  0.00  0.00    +0.000 S 
ATOM     22  O   UNL     1       0.709  10.974  21.576  0.00  0.00    +0.000 OA
ATOM     23  O   UNL     1      -0.976  10.812  19.707  0.00  0.00    +0.000 OA
ENDBRANCH  14  21
ENDBRANCH   1  17
TORSDOF 3
ENDMDL
MODEL 2
REMARK VINA RESULT:      -7.7      2.956      4.166
REMARK  Name = 
REMARK  4 active torsions:
REMARK  status: ('A' for Active; 'I' for Inactive)
REMARK    1  A    between atoms: C_1  and  S_2
REMARK    2  A    between atoms: S_2  and  C_5
REMARK    3  A    between atoms: C_8  and  C_9
REMARK    4  A    between atoms: C_13  and  C_14
REMARK                            x       y       z     vdW  Elec       q    Type
REMARK                         _______ _______ _______ _____ _____    ______ ____
ROOT
ATOM      1  C   UNL     1       3.494   6.125  17.877  0.00  0.00    +0.000 A 
ATOM      2  N   UNL     1       4.351   6.214  16.797  0.00  0.00    +0.000 N 
ATOM      3  C   UNL     1       4.876   4.981  16.550  0.00  0.00    +0.000 A 
ATOM      4  N   UNL     1       4.426   4.093  17.399  0.00  0.00    +0.000 NA
ATOM      5  C   UNL     1       3.542   4.771  18.211  0.00  0.00    +0.000 A 
ATOM      6  H   UNL     1       4.566   7.054  16.280  0.00  0.00    +0.000 HD
ENDROOT
BRANCH   5   7
ATOM      7  C   UNL     1       2.795   4.075  19.255  0.00  0.00    +0.000 A 
ATOM      8  C   UNL     1       3.493   3.491  20.324  0.00  0.00    +0.000 A 
ATOM      9  C   UNL     1       2.803   2.836  21.346  0.00  0.00    +0.000 A 
ATOM     10  C   UNL     1       1.416   2.770  21.303  0.00  0.00    +0.000 A 
ATOM     11  F   UNL     1       0.753   2.152  22.290  0.00  0.00    +0.000 F 
ATOM     12  C   UNL     1       0.706   3.324  20.247  0.00  0.00    +0.000 A 
ATOM     13  C   UNL     1       1.400   3.956  19.211  0.00  0.00    +0.000 A 
ENDBRANCH   5   7
BRANCH   1  17
ATOM     14  C   UNL     1       1.148   9.368  19.365  0.00  0.00    +0.000 A 
ATOM     15  C   UNL     1       1.651   9.422  18.066  0.00  0.00    +0.000 A 
ATOM     16  C   UNL     1       2.448   8.375  17.590  0.00  0.00    +0.000 A 
ATOM     17  C   UNL     1       2.767   7.282  18.412  0.00  0.00    +0.000 A 
ATOM     18  C   UNL     1       2.329   7.303  19.746  0.00  0.00    +0.000 A 
ATOM     19  C   UNL     1       1.502   8.323  20.220  0.00  0.00    +0.000 A 
BRANCH  14  21
ATOM     20  C   UNL     1      -0.163  10.239  21.659  0.00  0.00    +0.000 C 
ATOM     21  S   UNL     1       0.054  10.645  19.944  0.00  0.00    +0.000 S 
ATOM     22  O   UNL     1      -1.213  10.463  19.269  0.00  0.00    +0.000 OA
ATOM     23  O   UNL     1       0.771  11.901  19.866  0.00  0.00    +0.000 OA
ENDBRANCH  14  21
ENDBRANCH   1  17
TORSDOF 3
ENDMDL
MODEL 3
REMARK VINA RESULT:      -7.7      0.170      1.042
REMARK  Name = 
REMARK  4 active torsions:
REMARK  status: ('A' for Active; 'I' for Inactive)
REMARK    1  A    between atoms: C_1  and  S_2
REMARK    2  A    between atoms: S_2  and  C_5
REMARK    3  A    between atoms: C_8  and  C_9
REMARK    4  A    between atoms: C_13  and  C_14
REMARK                            x       y       z     vdW  Elec       q    Type
REMARK                         _______ _______ _______ _____ _____    ______ ____
ROOT
ATOM      1  C   UNL     1       2.600   5.666  18.184  0.00  0.00    +0.000 A 
ATOM      2  N   UNL     1       1.701   4.675  17.844  0.00  0.00    +0.000 N 
ATOM      3  C   UNL     1       2.389   3.603  17.360  0.00  0.00    +0.000 A 
ATOM      4  N   UNL     1       3.678   3.829  17.355  0.00  0.00    +0.000 NA
ATOM      5  C   UNL     1       3.836   5.088  17.892  0.00  0.00    +0.000 A 
ATOM      6  H   UNL     1       0.696   4.734  17.927  0.00  0.00    +0.000 HD
ENDROOT
BRANCH   5   7
ATOM      7  C   UNL     1       5.165   5.658  18.096  0.00  0.00    +0.000 A 
ATOM      8  C   UNL     1       5.942   5.216  19.178  0.00  0.00    +0.000 A 
ATOM      9  C   UNL     1       7.223   5.730  19.386  0.00  0.00    +0.000 A 
ATOM     10  C   UNL     1       7.730   6.680  18.509  0.00  0.00    +0.000 A 
ATOM     11  F   UNL     1       8.965   7.164  18.701  0.00  0.00    +0.000 F 
ATOM     12  C   UNL     1       6.974   7.145  17.443  0.00  0.00    +0.000 A 
ATOM     13  C   UNL     1       5.681   6.650  17.252  0.00  0.00    +0.000 A 
ENDBRANCH   5   7
BRANCH   1  17
ATOM     14  C   UNL     1       1.133   9.365  19.735  0.00  0.00    +0.000 A 
ATOM     15  C   UNL     1       1.486   9.274  18.389  0.00  0.00    +0.000 A 
ATOM     16  C   UNL     1       1.998   8.072  17.888  0.00  0.00    +0.000 A 
ATOM     17  C   UNL     1       2.184   6.964  18.730  0.00  0.00    +0.000 A 
ATOM     18  C   UNL     1       1.915   7.115  20.099  0.00  0.00    +0.000 A 
ATOM     19  C   UNL     1       1.368   8.298  20.603  0.00  0.00    +0.000 A 
BRANCH  14  21
ATOM     20  C   UNL     1       1.159  12.124  19.381  0.00  0.00    +0.000 C 
ATOM     21  S   UNL     1       0.390  10.856  20.357  0.00  0.00    +0.000 S 
ATOM     22  O   UNL     1       0.823  11.012  21.729  0.00  0.00    +0.000 OA
ATOM     23  O   UNL     1      -1.017  10.817  20.015  0.00  0.00    +0.000 OA
ENDBRANCH  14  21
ENDBRANCH   1  17
TORSDOF 3
ENDMDL
MODEL 4
REMARK VINA RESULT:      -7.7      2.984      4.115
REMARK  Name = 
REMARK  4 active torsions:
REMARK  status: ('A' for Active; 'I' for Inactive)
REMARK    1  A    between atoms: C_1  and  S_2
REMARK    2  A    between atoms: S_2  and  C_5
REMARK    3  A    between atoms: C_8  and  C_9
REMARK    4  A    between atoms: C_13  and  C_14
REMARK                            x       y       z     vdW  Elec       q    Type
REMARK                         _______ _______ _______ _____ _____    ______ ____
ROOT
ATOM      1  C   UNL     1       3.496   6.148  17.887  0.00  0.00    +0.000 A 
ATOM      2  N   UNL     1       4.356   6.241  16.811  0.00  0.00    +0.000 N 
ATOM      3  C   UNL     1       4.890   5.011  16.566  0.00  0.00    +0.000 A 
ATOM      4  N   UNL     1       4.441   4.121  17.415  0.00  0.00    +0.000 NA
ATOM      5  C   UNL     1       3.550   4.795  18.223  0.00  0.00    +0.000 A 
ATOM      6  H   UNL     1       4.568   7.082  16.293  0.00  0.00    +0.000 HD
ENDROOT
BRANCH   5   7
ATOM      7  C   UNL     1       2.803   4.097  19.265  0.00  0.00    +0.000 A 
ATOM      8  C   UNL     1       3.502   3.501  20.326  0.00  0.00    +0.000 A 
ATOM      9  C   UNL     1       2.812   2.843  21.346  0.00  0.00    +0.000 A 
ATOM     10  C   UNL     1       1.424   2.785  21.308  0.00  0.00    +0.000 A 
ATOM     11  F   UNL     1       0.761   2.164  22.293  0.00  0.00    +0.000 F 
ATOM     12  C   UNL     1       0.714   3.351  20.260  0.00  0.00    +0.000 A 
ATOM     13  C   UNL     1       1.408   3.986  19.225  0.00  0.00    +0.000 A 
ENDBRANCH   5   7
BRANCH   1  17
ATOM     14  C   UNL     1       1.124   9.380  19.361  0.00  0.00    +0.000 A 
ATOM     15  C   UNL     1       1.632   9.434  18.064  0.00  0.00    +0.000 A 
ATOM     16  C   UNL     1       2.437   8.391  17.592  0.00  0.00    +0.000 A 
ATOM     17  C   UNL     1       2.759   7.302  18.417  0.00  0.00    +0.000 A 
ATOM     18  C   UNL     1       2.317   7.322  19.749  0.00  0.00    +0.000 A 
ATOM     19  C   UNL     1       1.482   8.338  20.219  0.00  0.00    +0.000 A 
BRANCH  14  21
ATOM     20  C   UNL     1      -1.313  10.581  18.764  0.00  0.00    +0.000 C 
ATOM     21  S   UNL     1       0.021  10.650  19.934  0.00  0.00    +0.000 S 
ATOM     22  O   UNL     1       0.703  11.917  19.772  0.00  0.00    +0.000 OA
ATOM     23  O   UNL     1      -0.490  10.236  21.224  0.00  0.00    +0.000 OA
ENDBRANCH  14  21
ENDBRANCH   1  17
TORSDOF 3
ENDMDL
MODEL 5
REMARK VINA RESULT:      -7.7      0.786      1.634
REMARK  Name = 
REMARK  4 active torsions:
REMARK  status: ('A' for Active; 'I' for Inactive)
REMARK    1  A    between atoms: C_1  and  S_2
REMARK    2  A    between atoms: S_2  and  C_5
REMARK    3  A    between atoms: C_8  and  C_9
REMARK    4  A    between atoms: C_13  and  C_14
REMARK                            x       y       z     vdW  Elec       q    Type
REMARK                         _______ _______ _______ _____ _____    ______ ____
ROOT
ATOM      1  C   UNL     1       2.661   5.509  18.316  0.00  0.00    +0.000 A 
ATOM      2  N   UNL     1       1.805   4.493  17.938  0.00  0.00    +0.000 N 
ATOM      3  C   UNL     1       2.524   3.522  17.308  0.00  0.00    +0.000 A 
ATOM      4  N   UNL     1       3.793   3.838  17.244  0.00  0.00    +0.000 NA
ATOM      5  C   UNL     1       3.908   5.049  17.891  0.00  0.00    +0.000 A 
ATOM      6  H   UNL     1       0.806   4.474  18.089  0.00  0.00    +0.000 HD
ENDROOT
BRANCH   5   7
ATOM      7  C   UNL     1       5.209   5.688  18.065  0.00  0.00    +0.000 A 
ATOM      8  C   UNL     1       6.052   5.255  19.100  0.00  0.00    +0.000 A 
ATOM      9  C   UNL     1       7.309   5.836  19.279  0.00  0.00    +0.000 A 
ATOM     10  C   UNL     1       7.725   6.845  18.420  0.00  0.00    +0.000 A 
ATOM     11  F   UNL     1       8.937   7.395  18.583  0.00  0.00    +0.000 F 
ATOM     12  C   UNL     1       6.902   7.302  17.401  0.00  0.00    +0.000 A 
ATOM     13  C   UNL     1       5.632   6.738  17.241  0.00  0.00    +0.000 A 
ENDBRANCH   5   7
BRANCH   1  17
ATOM     14  C   UNL     1       1.074   8.959  20.270  0.00  0.00    +0.000 A 
ATOM     15  C   UNL     1       1.552   9.066  18.964  0.00  0.00    +0.000 A 
ATOM     16  C   UNL     1       2.103   7.943  18.336  0.00  0.00    +0.000 A 
ATOM     17  C   UNL     1       2.202   6.717  19.012  0.00  0.00    +0.000 A 
ATOM     18  C   UNL     1       1.806   6.665  20.358  0.00  0.00    +0.000 A 
ATOM     19  C   UNL     1       1.219   7.768  20.983  0.00  0.00    +0.000 A 
BRANCH  14  21
ATOM     20  C   UNL     1      -0.374   9.664  22.538  0.00  0.00    +0.000 C 
ATOM     21  S   UNL     1       0.283  10.353  21.039  0.00  0.00    +0.000 S 
ATOM     22  O   UNL     1      -0.825  10.740  20.192  0.00  0.00    +0.000 OA
ATOM     23  O   UNL     1       1.319  11.301  21.396  0.00  0.00    +0.000 OA
ENDBRANCH  14  21
ENDBRANCH   1  17
TORSDOF 3
ENDMDL
MODEL 6
REMARK VINA RESULT:      -7.7      2.876      4.154
REMARK  Name = 
REMARK  4 active torsions:
REMARK  status: ('A' for Active; 'I' for Inactive)
REMARK    1  A    between atoms: C_1  and  S_2
REMARK    2  A    between atoms: S_2  and  C_5
REMARK    3  A    between atoms: C_8  and  C_9
REMARK    4  A    between atoms: C_13  and  C_14
REMARK                            x       y       z     vdW  Elec       q    Type
REMARK                         _______ _______ _______ _____ _____    ______ ____
ROOT
ATOM      1  C   UNL     1       3.354   6.383  17.979  0.00  0.00    +0.000 A 
ATOM      2  N   UNL     1       4.243   6.550  16.936  0.00  0.00    +0.000 N 
ATOM      3  C   UNL     1       4.871   5.365  16.699  0.00  0.00    +0.000 A 
ATOM      4  N   UNL     1       4.457   4.434  17.522  0.00  0.00    +0.000 NA
ATOM      5  C   UNL     1       3.493   5.033  18.303  0.00  0.00    +0.000 A 
ATOM      6  H   UNL     1       4.412   7.411  16.435  0.00  0.00    +0.000 HD
ENDROOT
BRANCH   5   7
ATOM      7  C   UNL     1       2.761   4.270  19.310  0.00  0.00    +0.000 A 
ATOM      8  C   UNL     1       3.449   3.777  20.430  0.00  0.00    +0.000 A 
ATOM      9  C   UNL     1       2.771   3.060  21.418  0.00  0.00    +0.000 A 
ATOM     10  C   UNL     1       1.405   2.841  21.290  0.00  0.00    +0.000 A 
ATOM     11  F   UNL     1       0.752   2.165  22.244  0.00  0.00    +0.000 F 
ATOM     12  C   UNL     1       0.708   3.304  20.183  0.00  0.00    +0.000 A 
ATOM     13  C   UNL     1       1.393   3.997  19.181  0.00  0.00    +0.000 A 
ENDBRANCH   5   7
BRANCH   1  17
ATOM     14  C   UNL     1       1.151   9.690  19.545  0.00  0.00    +0.000 A 
ATOM     15  C   UNL     1       1.403   8.585  20.356  0.00  0.00    +0.000 A 
ATOM     16  C   UNL     1       2.095   7.487  19.833  0.00  0.00    +0.000 A 
ATOM     17  C   UNL     1       2.518   7.475  18.494  0.00  0.00    +0.000 A 
ATOM     18  C   UNL     1       2.164   8.558  17.675  0.00  0.00    +0.000 A 
ATOM     19  C   UNL     1       1.507   9.675  18.195  0.00  0.00    +0.000 A 
BRANCH  14  21
ATOM     20  C   UNL     1       0.918  12.436  19.165  0.00  0.00    +0.000 C 
ATOM     21  S   UNL     1       0.361  11.128  20.229  0.00  0.00    +0.000 S 
ATOM     22  O   UNL     1       0.922  11.342  21.546  0.00  0.00    +0.000 OA
ATOM     23  O   UNL     1      -1.067  10.973  20.040  0.00  0.00    +0.000 OA
ENDBRANCH  14  21
ENDBRANCH   1  17
TORSDOF 3
ENDMDL
MODEL 7
REMARK VINA RESULT:      -7.7      2.147      2.627
REMARK  Name = 
REMARK  4 active torsions:
REMARK  status: ('A' for Active; 'I' for Inactive)
REMARK    1  A    between atoms: C_1  and  S_2
REMARK    2  A    between atoms: S_2  and  C_5
REMARK    3  A    between atoms: C_8  and  C_9
REMARK    4  A    between atoms: C_13  and  C_14
REMARK                            x       y       z     vdW  Elec       q    Type
REMARK                         _______ _______ _______ _____ _____    ______ ____
ROOT
ATOM      1  C   UNL     1       2.666   4.838  20.116  0.00  0.00    +0.000 A 
ATOM      2  N   UNL     1       2.020   4.130  21.109  0.00  0.00    +0.000 N 
ATOM      3  C   UNL     1       2.500   2.855  21.125  0.00  0.00    +0.000 A 
ATOM      4  N   UNL     1       3.414   2.680  20.204  0.00  0.00    +0.000 NA
ATOM      5  C   UNL     1       3.559   3.904  19.588  0.00  0.00    +0.000 A 
ATOM      6  H   UNL     1       1.299   4.489  21.719  0.00  0.00    +0.000 HD
ENDROOT
BRANCH   5   7
ATOM      7  C   UNL     1       4.547   4.103  18.532  0.00  0.00    +0.000 A 
ATOM      8  C   UNL     1       5.783   4.686  18.851  0.00  0.00    +0.000 A 
ATOM      9  C   UNL     1       6.754   4.871  17.864  0.00  0.00    +0.000 A 
ATOM     10  C   UNL     1       6.492   4.468  16.561  0.00  0.00    +0.000 A 
ATOM     11  F   UNL     1       7.428   4.633  15.617  0.00  0.00    +0.000 F 
ATOM     12  C   UNL     1       5.271   3.905  16.219  0.00  0.00    +0.000 A 
ATOM     13  C   UNL     1       4.289   3.746  17.202  0.00  0.00    +0.000 A 
ENDBRANCH   5   7
BRANCH   1  17
ATOM     14  C   UNL     1       1.568   8.862  19.196  0.00  0.00    +0.000 A 
ATOM     15  C   UNL     1       2.231   8.093  18.239  0.00  0.00    +0.000 A 
ATOM     16  C   UNL     1       2.621   6.786  18.552  0.00  0.00    +0.000 A 
ATOM     17  C   UNL     1       2.374   6.248  19.826  0.00  0.00    +0.000 A 
ATOM     18  C   UNL     1       1.796   7.077  20.799  0.00  0.00    +0.000 A 
ATOM     19  C   UNL     1       1.368   8.370  20.486  0.00  0.00    +0.000 A 
BRANCH  14  21
ATOM     20  C   UNL     1       0.701  11.235  20.359  0.00  0.00    +0.000 C 
ATOM     21  S   UNL     1       0.982  10.486  18.774  0.00  0.00    +0.000 S 
ATOM     22  O   UNL     1      -0.296  10.324  18.114  0.00  0.00    +0.000 OA
ATOM     23  O   UNL     1       2.072  11.191  18.131  0.00  0.00    +0.000 OA
ENDBRANCH  14  21
ENDBRANCH   1  17
TORSDOF 3
ENDMDL
MODEL 8
REMARK VINA RESULT:      -7.7      2.169      2.519
REMARK  Name = 
REMARK  4 active torsions:
REMARK  status: ('A' for Active; 'I' for Inactive)
REMARK    1  A    between atoms: C_1  and  S_2
REMARK    2  A    between atoms: S_2  and  C_5
REMARK    3  A    between atoms: C_8  and  C_9
REMARK    4  A    between atoms: C_13  and  C_14
REMARK                            x       y       z     vdW  Elec       q    Type
REMARK                         _______ _______ _______ _____ _____    ______ ____
ROOT
ATOM      1  C   UNL     1       2.954   4.699  19.815  0.00  0.00    +0.000 A 
ATOM      2  N   UNL     1       2.346   3.931  20.788  0.00  0.00    +0.000 N 
ATOM      3  C   UNL     1       2.876   2.676  20.753  0.00  0.00    +0.000 A 
ATOM      4  N   UNL     1       3.786   2.570  19.818  0.00  0.00    +0.000 NA
ATOM      5  C   UNL     1       3.876   3.821  19.245  0.00  0.00    +0.000 A 
ATOM      6  H   UNL     1       1.618   4.240  21.417  0.00  0.00    +0.000 HD
ENDROOT
BRANCH   5   7
ATOM      7  C   UNL     1       4.845   4.095  18.188  0.00  0.00    +0.000 A 
ATOM      8  C   UNL     1       4.501   3.820  16.855  0.00  0.00    +0.000 A 
ATOM      9  C   UNL     1       5.401   4.090  15.822  0.00  0.00    +0.000 A 
ATOM     10  C   UNL     1       6.641   4.639  16.120  0.00  0.00    +0.000 A 
ATOM     11  F   UNL     1       7.500   4.910  15.128  0.00  0.00    +0.000 F 
ATOM     12  C   UNL     1       7.009   4.903  17.431  0.00  0.00    +0.000 A 
ATOM     13  C   UNL     1       6.118   4.606  18.467  0.00  0.00    +0.000 A 
ENDBRANCH   5   7
BRANCH   1  17
ATOM     14  C   UNL     1       1.691   8.707  19.052  0.00  0.00    +0.000 A 
ATOM     15  C   UNL     1       2.369   7.998  18.061  0.00  0.00    +0.000 A 
ATOM     16  C   UNL     1       2.813   6.697  18.322  0.00  0.00    +0.000 A 
ATOM     17  C   UNL     1       2.605   6.106  19.579  0.00  0.00    +0.000 A 
ATOM     18  C   UNL     1       2.009   6.878  20.588  0.00  0.00    +0.000 A 
ATOM     19  C   UNL     1       1.528   8.163  20.327  0.00  0.00    +0.000 A 
BRANCH  14  21
ATOM     20  C   UNL     1       0.701  10.983  20.308  0.00  0.00    +0.000 C 
ATOM     21  S   UNL     1       1.038  10.322  18.695  0.00  0.00    +0.000 S 
ATOM     22  O   UNL     1      -0.223  10.133  18.008  0.00  0.00    +0.000 OA
ATOM     23  O   UNL     1       2.104  11.103  18.102  0.00  0.00    +0.000 OA
ENDBRANCH  14  21
ENDBRANCH   1  17
TORSDOF 3
ENDMDL
MODEL 9
REMARK VINA RESULT:      -7.7      0.875      1.468
REMARK  Name = 
REMARK  4 active torsions:
REMARK  status: ('A' for Active; 'I' for Inactive)
REMARK    1  A    between atoms: C_1  and  S_2
REMARK    2  A    between atoms: S_2  and  C_5
REMARK    3  A    between atoms: C_8  and  C_9
REMARK    4  A    between atoms: C_13  and  C_14
REMARK                            x       y       z     vdW  Elec       q    Type
REMARK                         _______ _______ _______ _____ _____    ______ ____
ROOT
ATOM      1  C   UNL     1       2.890   5.317  18.103  0.00  0.00    +0.000 A 
ATOM      2  N   UNL     1       2.121   4.216  17.782  0.00  0.00    +0.000 N 
ATOM      3  C   UNL     1       2.940   3.218  17.347  0.00  0.00    +0.000 A 
ATOM      4  N   UNL     1       4.194   3.595  17.356  0.00  0.00    +0.000 NA
ATOM      5  C   UNL     1       4.191   4.880  17.852  0.00  0.00    +0.000 A 
ATOM      6  H   UNL     1       1.114   4.158  17.845  0.00  0.00    +0.000 HD
ENDROOT
BRANCH   5   7
ATOM      7  C   UNL     1       5.439   5.610  18.058  0.00  0.00    +0.000 A 
ATOM      8  C   UNL     1       5.755   6.681  17.208  0.00  0.00    +0.000 A 
ATOM      9  C   UNL     1       6.933   7.408  17.394  0.00  0.00    +0.000 A 
ATOM     10  C   UNL     1       7.791   7.068  18.431  0.00  0.00    +0.000 A 
ATOM     11  F   UNL     1       8.916   7.773  18.618  0.00  0.00    +0.000 F 
ATOM     12  C   UNL     1       7.508   6.001  19.273  0.00  0.00    +0.000 A 
ATOM     13  C   UNL     1       6.343   5.257  19.068  0.00  0.00    +0.000 A 
ENDBRANCH   5   7
BRANCH   1  17
ATOM     14  C   UNL     1       1.462   9.060  19.582  0.00  0.00    +0.000 A 
ATOM     15  C   UNL     1       1.566   7.972  20.448  0.00  0.00    +0.000 A 
ATOM     16  C   UNL     1       2.001   6.736  19.956  0.00  0.00    +0.000 A 
ATOM     17  C   UNL     1       2.312   6.573  18.597  0.00  0.00    +0.000 A 
ATOM     18  C   UNL     1       2.104   7.658  17.731  0.00  0.00    +0.000 A 
ATOM     19  C   UNL     1       1.706   8.906  18.217  0.00  0.00    +0.000 A 
BRANCH  14  21
ATOM     20  C   UNL     1      -0.757  10.686  19.998  0.00  0.00    +0.000 C 
ATOM     21  S   UNL     1       1.005  10.656  20.218  0.00  0.00    +0.000 S 
ATOM     22  O   UNL     1       1.590  11.651  19.343  0.00  0.00    +0.000 OA
ATOM     23  O   UNL     1       1.281  10.655  21.640  0.00  0.00    +0.000 OA
ENDBRANCH  14  21
ENDBRANCH   1  17
TORSDOF 3
ENDMDL
