MODEL 1
REMARK VINA RESULT:      -7.6      0.000      0.000
REMARK  Name = 
REMARK  6 active torsions:
REMARK  status: ('A' for Active; 'I' for Inactive)
REMARK    1  A    between atoms: C_2  and  C_5
REMARK    2  A    between atoms: N_3  and  O_4
REMARK    3  A    between atoms: C_7  and  O_8
REMARK    4  A    between atoms: O_8  and  C_9
REMARK    5  A    between atoms: C_18  and  C_19
REMARK    6  A    between atoms: C_24  and  C_25
REMARK                            x       y       z     vdW  Elec       q    Type
REMARK                         _______ _______ _______ _____ _____    ______ ____
ROOT
ATOM      1  C   UNL     1       2.028   7.666  20.327  0.00  0.00    +0.000 C 
ATOM      2  C   UNL     1       2.114   6.145  20.555  0.00  0.00    +0.000 C 
ATOM      3  C   UNL     1       2.933   5.423  19.486  0.00  0.00    +0.000 C 
ATOM      4  C   UNL     1       2.418   5.774  18.087  0.00  0.00    +0.000 C 
ATOM      5  C   UNL     1       2.266   7.275  17.850  0.00  0.00    +0.000 C 
ATOM      6  C   UNL     1       1.426   7.971  18.937  0.00  0.00    +0.000 C 
ENDROOT
BRANCH   6   7
ATOM      7  C   UNL     1       1.434   9.479  18.639  0.00  0.00    +0.000 C 
ATOM      8  O   UNL     1       2.387   9.964  18.021  0.00  0.00    +0.000 OA
ATOM      9  N   UNL     1       0.316  10.244  18.985  0.00  0.00    +0.000 N 
ATOM     10  C   UNL     1       0.157  11.546  18.338  0.00  0.00    +0.000 C 
ATOM     11  C   UNL     1      -0.470  12.601  19.252  0.00  0.00    +0.000 C 
ATOM     12  C   UNL     1      -1.768  12.124  19.932  0.00  0.00    +0.000 C 
ATOM     13  C   UNL     1      -1.460  10.786  20.632  0.00  0.00    +0.000 C 
ATOM     14  C   UNL     1      -0.874   9.744  19.677  0.00  0.00    +0.000 C 
BRANCH  12  15
ATOM     15  C   UNL     1      -3.031  12.088  19.069  0.00  0.00    +0.000 A 
ATOM     16  C   UNL     1      -4.303  12.427  19.553  0.00  0.00    +0.000 A 
ATOM     17  C   UNL     1      -5.436  12.355  18.736  0.00  0.00    +0.000 A 
ATOM     18  C   UNL     1      -5.324  11.924  17.420  0.00  0.00    +0.000 A 
ATOM     19  C   UNL     1      -4.078  11.555  16.926  0.00  0.00    +0.000 A 
ATOM     20  C   UNL     1      -2.945  11.632  17.744  0.00  0.00    +0.000 A 
ENDBRANCH  12  15
ENDBRANCH   6   7
BRANCH   1  22
ATOM     21  O   UNL     1       0.035   7.786  21.716  0.00  0.00    +0.000 OA
ATOM     22  C   UNL     1       1.156   8.214  21.448  0.00  0.00    +0.000 C 
ATOM     23  N   UNL     1       1.797   9.140  22.241  0.00  0.00    +0.000 N 
ATOM     24  H   UNL     1       2.510   9.757  21.863  0.00  0.00    +0.000 HD
BRANCH  23  25
ATOM     25  O   UNL     1       1.041   9.651  23.323  0.00  0.00    +0.000 OA
ATOM     26  H   UNL     1       0.236   9.988  22.873  0.00  0.00    +0.000 HD
ENDBRANCH  23  25
ENDBRANCH   1  22
BRANCH   3  27
ATOM     27  O   UNL     1       4.336   5.753  19.601  0.00  0.00    +0.000 OA
BRANCH  27  28
ATOM     28  C   UNL     1       5.178   4.820  19.055  0.00  0.00    +0.000 C 
ATOM     29  O   UNL     1       5.316   3.687  19.504  0.00  0.00    +0.000 OA
ATOM     30  N   UNL     1       5.831   5.250  17.928  0.00  0.00    +0.000 N 
ATOM     31  C   UNL     1       5.743   6.546  17.291  0.00  0.00    +0.000 C 
ATOM     32  C   UNL     1       5.921   6.216  15.816  0.00  0.00    +0.000 C 
ATOM     33  C   UNL     1       6.880   5.026  15.814  0.00  0.00    +0.000 C 
ATOM     34  C   UNL     1       6.669   4.348  17.164  0.00  0.00    +0.000 C 
ENDBRANCH  27  28
ENDBRANCH   3  27
TORSDOF 6
ENDMDL
MODEL 2
REMARK VINA RESULT:      -7.6      2.873      9.268
REMARK  Name = 
REMARK  6 active torsions:
REMARK  status: ('A' for Active; 'I' for Inactive)
REMARK    1  A    between atoms: C_2  and  C_5
REMARK    2  A    between atoms: N_3  and  O_4
REMARK    3  A    between atoms: C_7  and  O_8
REMARK    4  A    between atoms: O_8  and  C_9
REMARK    5  A    between atoms: C_18  and  C_19
REMARK    6  A    between atoms: C_24  and  C_25
REMARK                            x       y       z     vdW  Elec       q    Type
REMARK                         _______ _______ _______ _____ _____    ______ ____
ROOT
ATOM      1  C   UNL     1      -0.294  11.797  18.885  0.00  0.00    +0.000 C 
ATOM      2  C   UNL     1      -1.119  12.455  17.762  0.00  0.00    +0.000 C 
ATOM      3  C   UNL     1      -2.440  11.739  17.489  0.00  0.00    +0.000 C 
ATOM      4  C   UNL     1      -2.200  10.247  17.237  0.00  0.00    +0.000 C 
ATOM      5  C   UNL     1      -1.335   9.579  18.303  0.00  0.00    +0.000 C 
ATOM      6  C   UNL     1      -0.007  10.317  18.548  0.00  0.00    +0.000 C 
ENDROOT
BRANCH   6   7
ATOM      7  C   UNL     1       0.717   9.607  19.702  0.00  0.00    +0.000 C 
ATOM      8  O   UNL     1       0.595  10.049  20.849  0.00  0.00    +0.000 OA
ATOM      9  N   UNL     1       1.411   8.423  19.441  0.00  0.00    +0.000 N 
ATOM     10  C   UNL     1       1.726   7.555  20.576  0.00  0.00    +0.000 C 
ATOM     11  C   UNL     1       3.068   6.834  20.429  0.00  0.00    +0.000 C 
ATOM     12  C   UNL     1       3.225   6.109  19.078  0.00  0.00    +0.000 C 
ATOM     13  C   UNL     1       2.936   7.135  17.965  0.00  0.00    +0.000 C 
ATOM     14  C   UNL     1       1.569   7.803  18.123  0.00  0.00    +0.000 C 
BRANCH  12  15
ATOM     15  C   UNL     1       2.471   4.789  18.906  0.00  0.00    +0.000 A 
ATOM     16  C   UNL     1       1.556   4.297  19.849  0.00  0.00    +0.000 A 
ATOM     17  C   UNL     1       0.908   3.071  19.663  0.00  0.00    +0.000 A 
ATOM     18  C   UNL     1       1.175   2.301  18.538  0.00  0.00    +0.000 A 
ATOM     19  C   UNL     1       2.100   2.754  17.604  0.00  0.00    +0.000 A 
ATOM     20  C   UNL     1       2.743   3.983  17.789  0.00  0.00    +0.000 A 
ENDBRANCH  12  15
ENDBRANCH   6   7
BRANCH   1  22
ATOM     21  O   UNL     1       1.356  13.168  20.029  0.00  0.00    +0.000 OA
ATOM     22  C   UNL     1       0.989  12.607  18.999  0.00  0.00    +0.000 C 
ATOM     23  N   UNL     1       1.788  12.534  17.879  0.00  0.00    +0.000 N 
ATOM     24  H   UNL     1       1.389  12.422  16.951  0.00  0.00    +0.000 HD
BRANCH  23  25
ATOM     25  O   UNL     1       3.013  13.239  17.950  0.00  0.00    +0.000 OA
ATOM     26  H   UNL     1       2.848  13.867  18.686  0.00  0.00    +0.000 HD
ENDBRANCH  23  25
ENDBRANCH   1  22
BRANCH   3  27
ATOM     27  O   UNL     1      -3.362  11.919  18.588  0.00  0.00    +0.000 OA
BRANCH  27  28
ATOM     28  C   UNL     1      -4.679  11.962  18.212  0.00  0.00    +0.000 C 
ATOM     29  O   UNL     1      -5.079  11.625  17.102  0.00  0.00    +0.000 OA
ATOM     30  N   UNL     1      -5.528  12.381  19.205  0.00  0.00    +0.000 N 
ATOM     31  C   UNL     1      -5.188  12.787  20.551  0.00  0.00    +0.000 C 
ATOM     32  C   UNL     1      -6.394  12.330  21.361  0.00  0.00    +0.000 C 
ATOM     33  C   UNL     1      -7.571  12.495  20.402  0.00  0.00    +0.000 C 
ATOM     34  C   UNL     1      -6.964  12.373  19.008  0.00  0.00    +0.000 C 
ENDBRANCH  27  28
ENDBRANCH   3  27
TORSDOF 6
ENDMDL
MODEL 3
REMARK VINA RESULT:      -7.6      3.480      4.825
REMARK  Name = 
REMARK  6 active torsions:
REMARK  status: ('A' for Active; 'I' for Inactive)
REMARK    1  A    between atoms: C_2  and  C_5
REMARK    2  A    between atoms: N_3  and  O_4
REMARK    3  A    between atoms: C_7  and  O_8
REMARK    4  A    between atoms: O_8  and  C_9
REMARK    5  A    between atoms: C_18  and  C_19
REMARK    6  A    between atoms: C_24  and  C_25
REMARK                            x       y       z     vdW  Elec       q    Type
REMARK                         _______ _______ _______ _____ _____    ______ ____
ROOT
ATOM      1  C   UNL     1       0.700  10.366  20.971  0.00  0.00    +0.000 C 
ATOM      2  C   UNL     1       0.134   9.096  20.307  0.00  0.00    +0.000 C 
ATOM      3  C   UNL     1       0.958   8.627  19.109  0.00  0.00    +0.000 C 
ATOM      4  C   UNL     1       1.149   9.771  18.108  0.00  0.00    +0.000 C 
ATOM      5  C   UNL     1       1.654  11.063  18.746  0.00  0.00    +0.000 C 
ATOM      6  C   UNL     1       0.797  11.516  19.944  0.00  0.00    +0.000 C 
ENDROOT
BRANCH   6   7
ATOM      7  C   UNL     1       1.464  12.759  20.552  0.00  0.00    +0.000 C 
ATOM      8  O   UNL     1       2.502  12.624  21.207  0.00  0.00    +0.000 OA
ATOM      9  N   UNL     1       0.935  14.020  20.264  0.00  0.00    +0.000 N 
ATOM     10  C   UNL     1       1.794  15.184  20.486  0.00  0.00    +0.000 C 
ATOM     11  C   UNL     1       1.025  16.417  20.966  0.00  0.00    +0.000 C 
ATOM     12  C   UNL     1      -0.197  16.753  20.089  0.00  0.00    +0.000 C 
ATOM     13  C   UNL     1      -1.055  15.476  19.983  0.00  0.00    +0.000 C 
ATOM     14  C   UNL     1      -0.263  14.277  19.461  0.00  0.00    +0.000 C 
BRANCH  12  15
ATOM     15  C   UNL     1       0.078  17.420  18.740  0.00  0.00    +0.000 A 
ATOM     16  C   UNL     1      -0.915  18.055  17.979  0.00  0.00    +0.000 A 
ATOM     17  C   UNL     1      -0.624  18.631  16.738  0.00  0.00    +0.000 A 
ATOM     18  C   UNL     1       0.664  18.568  16.222  0.00  0.00    +0.000 A 
ATOM     19  C   UNL     1       1.659  17.919  16.944  0.00  0.00    +0.000 A 
ATOM     20  C   UNL     1       1.367  17.348  18.188  0.00  0.00    +0.000 A 
ENDBRANCH  12  15
ENDBRANCH   6   7
BRANCH   1  22
ATOM     21  O   UNL     1      -0.041  10.423  23.286  0.00  0.00    +0.000 OA
ATOM     22  C   UNL     1      -0.250  10.709  22.109  0.00  0.00    +0.000 C 
ATOM     23  N   UNL     1      -1.306  11.505  21.724  0.00  0.00    +0.000 N 
ATOM     24  H   UNL     1      -1.701  11.444  20.791  0.00  0.00    +0.000 HD
BRANCH  23  25
ATOM     25  O   UNL     1      -2.198  11.884  22.755  0.00  0.00    +0.000 OA
ATOM     26  H   UNL     1      -2.839  11.140  22.760  0.00  0.00    +0.000 HD
ENDBRANCH  23  25
ENDBRANCH   1  22
BRANCH   3  27
ATOM     27  O   UNL     1       2.241   8.113  19.533  0.00  0.00    +0.000 OA
BRANCH  27  28
ATOM     28  C   UNL     1       2.222   6.793  19.898  0.00  0.00    +0.000 C 
ATOM     29  O   UNL     1       1.476   6.338  20.759  0.00  0.00    +0.000 OA
ATOM     30  N   UNL     1       3.091   6.006  19.186  0.00  0.00    +0.000 N 
ATOM     31  C   UNL     1       4.006   6.412  18.142  0.00  0.00    +0.000 C 
ATOM     32  C   UNL     1       4.037   5.200  17.222  0.00  0.00    +0.000 C 
ATOM     33  C   UNL     1       3.868   4.011  18.167  0.00  0.00    +0.000 C 
ATOM     34  C   UNL     1       3.113   4.568  19.370  0.00  0.00    +0.000 C 
ENDBRANCH  27  28
ENDBRANCH   3  27
TORSDOF 6
ENDMDL
MODEL 4
REMARK VINA RESULT:      -7.4      6.069     10.176
REMARK  Name = 
REMARK  6 active torsions:
REMARK  status: ('A' for Active; 'I' for Inactive)
REMARK    1  A    between atoms: C_2  and  C_5
REMARK    2  A    between atoms: N_3  and  O_4
REMARK    3  A    between atoms: C_7  and  O_8
REMARK    4  A    between atoms: O_8  and  C_9
REMARK    5  A    between atoms: C_18  and  C_19
REMARK    6  A    between atoms: C_24  and  C_25
REMARK                            x       y       z     vdW  Elec       q    Type
REMARK                         _______ _______ _______ _____ _____    ______ ____
ROOT
ATOM      1  C   UNL     1      -1.311  13.258  20.041  0.00  0.00    +0.000 C 
ATOM      2  C   UNL     1      -1.775  12.192  21.052  0.00  0.00    +0.000 C 
ATOM      3  C   UNL     1      -2.119  12.774  22.423  0.00  0.00    +0.000 C 
ATOM      4  C   UNL     1      -0.954  13.615  22.956  0.00  0.00    +0.000 C 
ATOM      5  C   UNL     1      -0.433  14.642  21.954  0.00  0.00    +0.000 C 
ATOM      6  C   UNL     1      -0.085  14.024  20.587  0.00  0.00    +0.000 C 
ENDROOT
BRANCH   6   7
ATOM      7  C   UNL     1       0.328  15.168  19.648  0.00  0.00    +0.000 C 
ATOM      8  O   UNL     1      -0.477  16.076  19.418  0.00  0.00    +0.000 OA
ATOM      9  N   UNL     1       1.636  15.205  19.160  0.00  0.00    +0.000 N 
ATOM     10  C   UNL     1       2.130  16.477  18.632  0.00  0.00    +0.000 C 
ATOM     11  C   UNL     1       3.087  16.309  17.450  0.00  0.00    +0.000 C 
ATOM     12  C   UNL     1       4.227  15.310  17.726  0.00  0.00    +0.000 C 
ATOM     13  C   UNL     1       3.584  13.995  18.209  0.00  0.00    +0.000 C 
ATOM     14  C   UNL     1       2.668  14.197  19.417  0.00  0.00    +0.000 C 
BRANCH  12  15
ATOM     15  C   UNL     1       5.374  15.794  18.615  0.00  0.00    +0.000 A 
ATOM     16  C   UNL     1       5.481  17.112  19.082  0.00  0.00    +0.000 A 
ATOM     17  C   UNL     1       6.562  17.519  19.872  0.00  0.00    +0.000 A 
ATOM     18  C   UNL     1       7.569  16.619  20.196  0.00  0.00    +0.000 A 
ATOM     19  C   UNL     1       7.500  15.315  19.721  0.00  0.00    +0.000 A 
ATOM     20  C   UNL     1       6.416  14.909  18.935  0.00  0.00    +0.000 A 
ENDBRANCH  12  15
ENDBRANCH   6   7
BRANCH   1  22
ATOM     21  O   UNL     1       0.066  11.888  18.578  0.00  0.00    +0.000 OA
ATOM     22  C   UNL     1      -0.980  12.509  18.758  0.00  0.00    +0.000 C 
ATOM     23  N   UNL     1      -2.025  12.462  17.862  0.00  0.00    +0.000 N 
ATOM     24  H   UNL     1      -2.701  13.218  17.799  0.00  0.00    +0.000 HD
BRANCH  23  25
ATOM     25  O   UNL     1      -1.780  11.743  16.669  0.00  0.00    +0.000 OA
ATOM     26  H   UNL     1      -1.441  12.443  16.070  0.00  0.00    +0.000 HD
ENDBRANCH  23  25
ENDBRANCH   1  22
BRANCH   3  27
ATOM     27  O   UNL     1      -3.323  13.570  22.359  0.00  0.00    +0.000 OA
BRANCH  27  28
ATOM     28  C   UNL     1      -4.477  12.857  22.551  0.00  0.00    +0.000 C 
ATOM     29  O   UNL     1      -4.748  12.273  23.595  0.00  0.00    +0.000 OA
ATOM     30  N   UNL     1      -5.332  12.882  21.479  0.00  0.00    +0.000 N 
ATOM     31  C   UNL     1      -5.142  13.542  20.206  0.00  0.00    +0.000 C 
ATOM     32  C   UNL     1      -6.555  13.952  19.817  0.00  0.00    +0.000 C 
ATOM     33  C   UNL     1      -7.435  12.840  20.384  0.00  0.00    +0.000 C 
ATOM     34  C   UNL     1      -6.646  12.274  21.561  0.00  0.00    +0.000 C 
ENDBRANCH  27  28
ENDBRANCH   3  27
TORSDOF 6
ENDMDL
MODEL 5
REMARK VINA RESULT:      -7.3      4.585      7.930
REMARK  Name = 
REMARK  6 active torsions:
REMARK  status: ('A' for Active; 'I' for Inactive)
REMARK    1  A    between atoms: C_2  and  C_5
REMARK    2  A    between atoms: N_3  and  O_4
REMARK    3  A    between atoms: C_7  and  O_8
REMARK    4  A    between atoms: O_8  and  C_9
REMARK    5  A    between atoms: C_18  and  C_19
REMARK    6  A    between atoms: C_24  and  C_25
REMARK                            x       y       z     vdW  Elec       q    Type
REMARK                         _______ _______ _______ _____ _____    ______ ____
ROOT
ATOM      1  C   UNL     1      -0.660  11.305  20.641  0.00  0.00    +0.000 C 
ATOM      2  C   UNL     1       0.131  12.284  21.529  0.00  0.00    +0.000 C 
ATOM      3  C   UNL     1      -0.198  13.749  21.247  0.00  0.00    +0.000 C 
ATOM      4  C   UNL     1      -0.038  14.057  19.755  0.00  0.00    +0.000 C 
ATOM      5  C   UNL     1      -0.762  13.068  18.845  0.00  0.00    +0.000 C 
ATOM      6  C   UNL     1      -0.402  11.601  19.147  0.00  0.00    +0.000 C 
ENDROOT
BRANCH   6   7
ATOM      7  C   UNL     1      -1.266  10.712  18.239  0.00  0.00    +0.000 C 
ATOM      8  O   UNL     1      -0.726   9.803  17.600  0.00  0.00    +0.000 OA
ATOM      9  N   UNL     1      -2.652  10.887  18.238  0.00  0.00    +0.000 N 
ATOM     10  C   UNL     1      -3.475   9.796  17.718  0.00  0.00    +0.000 C 
ATOM     11  C   UNL     1      -4.729  10.282  16.987  0.00  0.00    +0.000 C 
ATOM     12  C   UNL     1      -5.553  11.298  17.800  0.00  0.00    +0.000 C 
ATOM     13  C   UNL     1      -4.598  12.428  18.234  0.00  0.00    +0.000 C 
ATOM     14  C   UNL     1      -3.380  11.906  18.998  0.00  0.00    +0.000 C 
BRANCH  12  15
ATOM     15  C   UNL     1      -6.407  10.744  18.942  0.00  0.00    +0.000 A 
ATOM     16  C   UNL     1      -6.941  11.546  19.962  0.00  0.00    +0.000 A 
ATOM     17  C   UNL     1      -7.696  10.993  21.002  0.00  0.00    +0.000 A 
ATOM     18  C   UNL     1      -7.916   9.623  21.056  0.00  0.00    +0.000 A 
ATOM     19  C   UNL     1      -7.372   8.804  20.073  0.00  0.00    +0.000 A 
ATOM     20  C   UNL     1      -6.622   9.360  19.030  0.00  0.00    +0.000 A 
ENDBRANCH  12  15
ENDBRANCH   6   7
BRANCH   1  22
ATOM     21  O   UNL     1      -0.801   9.166  21.790  0.00  0.00    +0.000 OA
ATOM     22  C   UNL     1      -0.189   9.910  21.026  0.00  0.00    +0.000 C 
ATOM     23  N   UNL     1       0.918   9.488  20.322  0.00  0.00    +0.000 N 
ATOM     24  H   UNL     1       1.624  10.146  20.003  0.00  0.00    +0.000 HD
BRANCH  23  25
ATOM     25  O   UNL     1       1.373   8.181  20.616  0.00  0.00    +0.000 OA
ATOM     26  H   UNL     1       1.700   7.873  19.743  0.00  0.00    +0.000 HD
ENDBRANCH  23  25
ENDBRANCH   1  22
BRANCH   3  27
ATOM     27  O   UNL     1      -1.538  14.072  21.683  0.00  0.00    +0.000 OA
BRANCH  27  28
ATOM     28  C   UNL     1      -1.763  13.844  23.015  0.00  0.00    +0.000 C 
ATOM     29  O   UNL     1      -0.997  14.202  23.904  0.00  0.00    +0.000 OA
ATOM     30  N   UNL     1      -2.949  13.208  23.278  0.00  0.00    +0.000 N 
ATOM     31  C   UNL     1      -3.942  12.752  22.330  0.00  0.00    +0.000 C 
ATOM     32  C   UNL     1      -5.249  12.932  23.089  0.00  0.00    +0.000 C 
ATOM     33  C   UNL     1      -4.877  12.656  24.545  0.00  0.00    +0.000 C 
ATOM     34  C   UNL     1      -3.392  12.995  24.642  0.00  0.00    +0.000 C 
ENDBRANCH  27  28
ENDBRANCH   3  27
TORSDOF 6
ENDMDL
MODEL 6
REMARK VINA RESULT:      -7.3      5.090      8.651
REMARK  Name = 
REMARK  6 active torsions:
REMARK  status: ('A' for Active; 'I' for Inactive)
REMARK    1  A    between atoms: C_2  and  C_5
REMARK    2  A    between atoms: N_3  and  O_4
REMARK    3  A    between atoms: C_7  and  O_8
REMARK    4  A    between atoms: O_8  and  C_9
REMARK    5  A    between atoms: C_18  and  C_19
REMARK    6  A    between atoms: C_24  and  C_25
REMARK                            x       y       z     vdW  Elec       q    Type
REMARK                         _______ _______ _______ _____ _____    ______ ____
ROOT
ATOM      1  C   UNL     1      -0.764  11.596  19.322  0.00  0.00    +0.000 C 
ATOM      2  C   UNL     1      -1.780  10.973  20.298  0.00  0.00    +0.000 C 
ATOM      3  C   UNL     1      -1.499  11.320  21.759  0.00  0.00    +0.000 C 
ATOM      4  C   UNL     1      -0.053  10.974  22.124  0.00  0.00    +0.000 C 
ATOM      5  C   UNL     1       0.976  11.528  21.141  0.00  0.00    +0.000 C 
ATOM      6  C   UNL     1       0.671  11.153  19.679  0.00  0.00    +0.000 C 
ENDROOT
BRANCH   6   7
ATOM      7  C   UNL     1       1.714  11.849  18.791  0.00  0.00    +0.000 C 
ATOM      8  O   UNL     1       2.388  11.170  18.011  0.00  0.00    +0.000 OA
ATOM      9  N   UNL     1       1.801  13.244  18.814  0.00  0.00    +0.000 N 
ATOM     10  C   UNL     1       2.473  13.902  17.694  0.00  0.00    +0.000 C 
ATOM     11  C   UNL     1       3.249  15.154  18.108  0.00  0.00    +0.000 C 
ATOM     12  C   UNL     1       2.413  16.139  18.948  0.00  0.00    +0.000 C 
ATOM     13  C   UNL     1       1.814  15.349  20.128  0.00  0.00    +0.000 C 
ATOM     14  C   UNL     1       1.011  14.130  19.672  0.00  0.00    +0.000 C 
BRANCH  12  15
ATOM     15  C   UNL     1       1.389  16.994  18.199  0.00  0.00    +0.000 A 
ATOM     16  C   UNL     1       1.707  17.767  17.073  0.00  0.00    +0.000 A 
ATOM     17  C   UNL     1       0.744  18.555  16.434  0.00  0.00    +0.000 A 
ATOM     18  C   UNL     1      -0.556  18.601  16.920  0.00  0.00    +0.000 A 
ATOM     19  C   UNL     1      -0.890  17.867  18.052  0.00  0.00    +0.000 A 
ATOM     20  C   UNL     1       0.074  17.075  18.687  0.00  0.00    +0.000 A 
ENDBRANCH  12  15
ENDBRANCH   6   7
BRANCH   1  22
ATOM     21  O   UNL     1      -1.011   9.975  17.526  0.00  0.00    +0.000 OA
ATOM     22  C   UNL     1      -1.168  11.124  17.932  0.00  0.00    +0.000 C 
ATOM     23  N   UNL     1      -1.868  12.067  17.212  0.00  0.00    +0.000 N 
ATOM     24  H   UNL     1      -1.695  13.061  17.334  0.00  0.00    +0.000 HD
BRANCH  23  25
ATOM     25  O   UNL     1      -2.300  11.663  15.927  0.00  0.00    +0.000 OA
ATOM     26  H   UNL     1      -3.276  11.747  16.000  0.00  0.00    +0.000 HD
ENDBRANCH  23  25
ENDBRANCH   1  22
BRANCH   3  27
ATOM     27  O   UNL     1      -1.760  12.718  22.017  0.00  0.00    +0.000 OA
BRANCH  27  28
ATOM     28  C   UNL     1      -2.702  12.943  22.987  0.00  0.00    +0.000 C 
ATOM     29  O   UNL     1      -3.654  12.198  23.192  0.00  0.00    +0.000 OA
ATOM     30  N   UNL     1      -2.467  14.064  23.742  0.00  0.00    +0.000 N 
ATOM     31  C   UNL     1      -1.380  15.009  23.614  0.00  0.00    +0.000 C 
ATOM     32  C   UNL     1      -1.138  15.450  25.051  0.00  0.00    +0.000 C 
ATOM     33  C   UNL     1      -2.525  15.413  25.690  0.00  0.00    +0.000 C 
ATOM     34  C   UNL     1      -3.304  14.381  24.882  0.00  0.00    +0.000 C 
ENDBRANCH  27  28
ENDBRANCH   3  27
TORSDOF 6
ENDMDL
MODEL 7
REMARK VINA RESULT:      -7.3      3.323      4.507
REMARK  Name = 
REMARK  6 active torsions:
REMARK  status: ('A' for Active; 'I' for Inactive)
REMARK    1  A    between atoms: C_2  and  C_5
REMARK    2  A    between atoms: N_3  and  O_4
REMARK    3  A    between atoms: C_7  and  O_8
REMARK    4  A    between atoms: O_8  and  C_9
REMARK    5  A    between atoms: C_18  and  C_19
REMARK    6  A    between atoms: C_24  and  C_25
REMARK                            x       y       z     vdW  Elec       q    Type
REMARK                         _______ _______ _______ _____ _____    ______ ____
ROOT
ATOM      1  C   UNL     1       1.080  10.142  20.644  0.00  0.00    +0.000 C 
ATOM      2  C   UNL     1       0.572   8.893  19.900  0.00  0.00    +0.000 C 
ATOM      3  C   UNL     1       1.328   8.618  18.601  0.00  0.00    +0.000 C 
ATOM      4  C   UNL     1       1.334   9.865  17.710  0.00  0.00    +0.000 C 
ATOM      5  C   UNL     1       1.777  11.133  18.436  0.00  0.00    +0.000 C 
ATOM      6  C   UNL     1       0.989  11.387  19.734  0.00  0.00    +0.000 C 
ENDROOT
BRANCH   6   7
ATOM      7  C   UNL     1       1.594  12.626  20.413  0.00  0.00    +0.000 C 
ATOM      8  O   UNL     1       2.622  12.499  21.086  0.00  0.00    +0.000 OA
ATOM      9  N   UNL     1       1.025  13.878  20.169  0.00  0.00    +0.000 N 
ATOM     10  C   UNL     1       1.833  15.062  20.464  0.00  0.00    +0.000 C 
ATOM     11  C   UNL     1       1.008  16.243  20.979  0.00  0.00    +0.000 C 
ATOM     12  C   UNL     1      -0.206  16.572  20.090  0.00  0.00    +0.000 C 
ATOM     13  C   UNL     1      -1.013  15.271  19.907  0.00  0.00    +0.000 C 
ATOM     14  C   UNL     1      -0.164  14.127  19.350  0.00  0.00    +0.000 C 
BRANCH  12  15
ATOM     15  C   UNL     1       0.073  17.310  18.779  0.00  0.00    +0.000 A 
ATOM     16  C   UNL     1      -0.922  17.962  18.036  0.00  0.00    +0.000 A 
ATOM     17  C   UNL     1      -0.626  18.604  16.829  0.00  0.00    +0.000 A 
ATOM     18  C   UNL     1       0.669  18.590  16.328  0.00  0.00    +0.000 A 
ATOM     19  C   UNL     1       1.667  17.925  17.031  0.00  0.00    +0.000 A 
ATOM     20  C   UNL     1       1.370  17.289  18.242  0.00  0.00    +0.000 A 
ENDBRANCH  12  15
ENDBRANCH   6   7
BRANCH   1  22
ATOM     21  O   UNL     1      -0.826  10.957  21.917  0.00  0.00    +0.000 OA
ATOM     22  C   UNL     1       0.203  10.285  21.880  0.00  0.00    +0.000 C 
ATOM     23  N   UNL     1       0.583   9.468  22.922  0.00  0.00    +0.000 N 
ATOM     24  H   UNL     1       1.556   9.216  23.069  0.00  0.00    +0.000 HD
BRANCH  23  25
ATOM     25  O   UNL     1      -0.225   9.535  24.082  0.00  0.00    +0.000 OA
ATOM     26  H   UNL     1      -0.330  10.503  24.207  0.00  0.00    +0.000 HD
ENDBRANCH  23  25
ENDBRANCH   1  22
BRANCH   3  27
ATOM     27  O   UNL     1       2.682   8.191  18.872  0.00  0.00    +0.000 OA
BRANCH  27  28
ATOM     28  C   UNL     1       2.844   6.831  18.904  0.00  0.00    +0.000 C 
ATOM     29  O   UNL     1       2.137   6.079  19.567  0.00  0.00    +0.000 OA
ATOM     30  N   UNL     1       3.851   6.371  18.093  0.00  0.00    +0.000 N 
ATOM     31  C   UNL     1       4.739   7.144  17.254  0.00  0.00    +0.000 C 
ATOM     32  C   UNL     1       4.989   6.218  16.073  0.00  0.00    +0.000 C 
ATOM     33  C   UNL     1       4.958   4.818  16.685  0.00  0.00    +0.000 C 
ATOM     34  C   UNL     1       4.078   4.949  17.924  0.00  0.00    +0.000 C 
ENDBRANCH  27  28
ENDBRANCH   3  27
TORSDOF 6
ENDMDL
MODEL 8
REMARK VINA RESULT:      -7.2      4.978      7.468
REMARK  Name = 
REMARK  6 active torsions:
REMARK  status: ('A' for Active; 'I' for Inactive)
REMARK    1  A    between atoms: C_2  and  C_5
REMARK    2  A    between atoms: N_3  and  O_4
REMARK    3  A    between atoms: C_7  and  O_8
REMARK    4  A    between atoms: O_8  and  C_9
REMARK    5  A    between atoms: C_18  and  C_19
REMARK    6  A    between atoms: C_24  and  C_25
REMARK                            x       y       z     vdW  Elec       q    Type
REMARK                         _______ _______ _______ _____ _____    ______ ____
ROOT
ATOM      1  C   UNL     1      -0.060  12.865  19.540  0.00  0.00    +0.000 C 
ATOM      2  C   UNL     1       0.281  11.798  18.482  0.00  0.00    +0.000 C 
ATOM      3  C   UNL     1      -0.058  10.378  18.931  0.00  0.00    +0.000 C 
ATOM      4  C   UNL     1       0.585  10.077  20.289  0.00  0.00    +0.000 C 
ATOM      5  C   UNL     1       0.314  11.148  21.344  0.00  0.00    +0.000 C 
ATOM      6  C   UNL     1       0.675  12.566  20.865  0.00  0.00    +0.000 C 
ENDROOT
BRANCH   6   7
ATOM      7  C   UNL     1       0.265  13.551  21.971  0.00  0.00    +0.000 C 
ATOM      8  O   UNL     1       1.032  14.472  22.269  0.00  0.00    +0.000 OA
ATOM      9  N   UNL     1      -1.006  13.441  22.540  0.00  0.00    +0.000 N 
ATOM     10  C   UNL     1      -1.532  14.601  23.260  0.00  0.00    +0.000 C 
ATOM     11  C   UNL     1      -2.394  14.221  24.466  0.00  0.00    +0.000 C 
ATOM     12  C   UNL     1      -3.493  13.195  24.131  0.00  0.00    +0.000 C 
ATOM     13  C   UNL     1      -2.813  11.997  23.440  0.00  0.00    +0.000 C 
ATOM     14  C   UNL     1      -1.996  12.411  22.215  0.00  0.00    +0.000 C 
BRANCH  12  15
ATOM     15  C   UNL     1      -4.724  13.715  23.387  0.00  0.00    +0.000 A 
ATOM     16  C   UNL     1      -5.358  13.003  22.357  0.00  0.00    +0.000 A 
ATOM     17  C   UNL     1      -6.467  13.528  21.685  0.00  0.00    +0.000 A 
ATOM     18  C   UNL     1      -6.955  14.786  22.016  0.00  0.00    +0.000 A 
ATOM     19  C   UNL     1      -6.326  15.523  23.013  0.00  0.00    +0.000 A 
ATOM     20  C   UNL     1      -5.220  14.993  23.688  0.00  0.00    +0.000 A 
ENDBRANCH  12  15
ENDBRANCH   6   7
BRANCH   1  22
ATOM     21  O   UNL     1      -0.416  15.071  18.580  0.00  0.00    +0.000 OA
ATOM     22  C   UNL     1       0.370  14.200  18.949  0.00  0.00    +0.000 C 
ATOM     23  N   UNL     1       1.730  14.413  18.998  0.00  0.00    +0.000 N 
ATOM     24  H   UNL     1       2.388  13.642  18.933  0.00  0.00    +0.000 HD
BRANCH  23  25
ATOM     25  O   UNL     1       2.176  15.658  18.496  0.00  0.00    +0.000 OA
ATOM     26  H   UNL     1       2.986  15.819  19.028  0.00  0.00    +0.000 HD
ENDBRANCH  23  25
ENDBRANCH   1  22
BRANCH   3  27
ATOM     27  O   UNL     1      -1.489  10.185  19.001  0.00  0.00    +0.000 OA
BRANCH  27  28
ATOM     28  C   UNL     1      -2.125  10.266  17.790  0.00  0.00    +0.000 C 
ATOM     29  O   UNL     1      -1.779   9.630  16.799  0.00  0.00    +0.000 OA
ATOM     30  N   UNL     1      -3.215  11.097  17.788  0.00  0.00    +0.000 N 
ATOM     31  C   UNL     1      -3.734  11.885  18.885  0.00  0.00    +0.000 C 
ATOM     32  C   UNL     1      -5.234  11.883  18.629  0.00  0.00    +0.000 C 
ATOM     33  C   UNL     1      -5.352  11.864  17.106  0.00  0.00    +0.000 C 
ATOM     34  C   UNL     1      -4.065  11.206  16.619  0.00  0.00    +0.000 C 
ENDBRANCH  27  28
ENDBRANCH   3  27
TORSDOF 6
ENDMDL
MODEL 9
REMARK VINA RESULT:      -7.2      5.825      9.030
REMARK  Name = 
REMARK  6 active torsions:
REMARK  status: ('A' for Active; 'I' for Inactive)
REMARK    1  A    between atoms: C_2  and  C_5
REMARK    2  A    between atoms: N_3  and  O_4
REMARK    3  A    between atoms: C_7  and  O_8
REMARK    4  A    between atoms: O_8  and  C_9
REMARK    5  A    between atoms: C_18  and  C_19
REMARK    6  A    between atoms: C_24  and  C_25
REMARK                            x       y       z     vdW  Elec       q    Type
REMARK                         _______ _______ _______ _____ _____    ______ ____
ROOT
ATOM      1  C   UNL     1      -5.525  12.828  21.982  0.00  0.00    +0.000 C 
ATOM      2  C   UNL     1      -6.855  12.579  21.244  0.00  0.00    +0.000 C 
ATOM      3  C   UNL     1      -6.747  12.770  19.732  0.00  0.00    +0.000 C 
ATOM      4  C   UNL     1      -6.147  14.142  19.406  0.00  0.00    +0.000 C 
ATOM      5  C   UNL     1      -4.859  14.442  20.168  0.00  0.00    +0.000 C 
ATOM      6  C   UNL     1      -5.002  14.251  21.689  0.00  0.00    +0.000 C 
ENDROOT
BRANCH   6   7
ATOM      7  C   UNL     1      -3.622  14.485  22.323  0.00  0.00    +0.000 C 
ATOM      8  O   UNL     1      -3.531  15.225  23.308  0.00  0.00    +0.000 OA
ATOM      9  N   UNL     1      -2.522  13.777  21.832  0.00  0.00    +0.000 N 
ATOM     10  C   UNL     1      -1.337  13.685  22.684  0.00  0.00    +0.000 C 
ATOM     11  C   UNL     1      -0.025  13.694  21.896  0.00  0.00    +0.000 C 
ATOM     12  C   UNL     1       0.002  12.669  20.746  0.00  0.00    +0.000 C 
ATOM     13  C   UNL     1      -1.254  12.906  19.884  0.00  0.00    +0.000 C 
ATOM     14  C   UNL     1      -2.547  12.848  20.700  0.00  0.00    +0.000 C 
BRANCH  12  15
ATOM     15  C   UNL     1       0.215  11.203  21.128  0.00  0.00    +0.000 A 
ATOM     16  C   UNL     1      -0.065  10.691  22.404  0.00  0.00    +0.000 A 
ATOM     17  C   UNL     1       0.169   9.348  22.717  0.00  0.00    +0.000 A 
ATOM     18  C   UNL     1       0.708   8.491  21.766  0.00  0.00    +0.000 A 
ATOM     19  C   UNL     1       1.021   8.981  20.504  0.00  0.00    +0.000 A 
ATOM     20  C   UNL     1       0.781  10.324  20.190  0.00  0.00    +0.000 A 
ENDBRANCH  12  15
ENDBRANCH   6   7
BRANCH   1  22
ATOM     21  O   UNL     1      -6.954  12.596  23.937  0.00  0.00    +0.000 OA
ATOM     22  C   UNL     1      -5.820  12.631  23.463  0.00  0.00    +0.000 C 
ATOM     23  N   UNL     1      -4.701  12.344  24.214  0.00  0.00    +0.000 N 
ATOM     24  H   UNL     1      -3.789  12.716  23.966  0.00  0.00    +0.000 HD
BRANCH  23  25
ATOM     25  O   UNL     1      -4.928  12.114  25.591  0.00  0.00    +0.000 OA
ATOM     26  H   UNL     1      -4.015  11.998  25.935  0.00  0.00    +0.000 HD
ENDBRANCH  23  25
ENDBRANCH   1  22
BRANCH   3  27
ATOM     27  O   UNL     1      -5.951  11.722  19.134  0.00  0.00    +0.000 OA
BRANCH  27  28
ATOM     28  C   UNL     1      -5.823  11.823  17.774  0.00  0.00    +0.000 C 
ATOM     29  O   UNL     1      -6.612  12.435  17.062  0.00  0.00    +0.000 OA
ATOM     30  N   UNL     1      -4.704  11.207  17.273  0.00  0.00    +0.000 N 
ATOM     31  C   UNL     1      -3.693  10.473  18.002  0.00  0.00    +0.000 C 
ATOM     32  C   UNL     1      -2.423  10.764  17.215  0.00  0.00    +0.000 C 
ATOM     33  C   UNL     1      -2.901  10.883  15.768  0.00  0.00    +0.000 C 
ATOM     34  C   UNL     1      -4.359  11.318  15.870  0.00  0.00    +0.000 C 
ENDBRANCH  27  28
ENDBRANCH   3  27
TORSDOF 6
ENDMDL
