MODEL 1
REMARK VINA RESULT:      -8.9      0.000      0.000
REMARK  Name = 
REMARK  11 active torsions:
REMARK  status: ('A' for Active; 'I' for Inactive)
REMARK    1  A    between atoms: C_1  and  O_2
REMARK    2  A    between atoms: O_2  and  C_3
REMARK    3  A    between atoms: C_6  and  C_7
REMARK    4  A    between atoms: C_7  and  N_8
REMARK    5  A    between atoms: C_11  and  N_12
REMARK    6  A    between atoms: C_16  and  N_17
REMARK    7  A    between atoms: C_18  and  C_20
REMARK    8  A    between atoms: C_20  and  C_21
REMARK    9  A    between atoms: C_21  and  O_22
REMARK   10  A    between atoms: O_22  and  C_23
REMARK   11  A    between atoms: C_32  and  C_33
REMARK                            x       y       z     vdW  Elec       q    Type
REMARK                         _______ _______ _______ _____ _____    ______ ____
ROOT
ATOM      1  N   UNL     1       5.904   4.159  16.957  0.00  0.00    +0.000 N 
ATOM      2  N   UNL     1       5.489   3.501  15.859  0.00  0.00    +0.000 NA
ATOM      3  C   UNL     1       6.254   3.964  14.875  0.00  0.00    +0.000 A 
ATOM      4  C   UNL     1       7.181   4.914  15.327  0.00  0.00    +0.000 A 
ATOM      5  C   UNL     1       6.950   5.026  16.679  0.00  0.00    +0.000 A 
ENDROOT
BRANCH   1   9
ATOM      6  N   UNL     1       3.091   6.089  18.538  0.00  0.00    +0.000 NA
ATOM      7  C   UNL     1       2.887   4.952  17.637  0.00  0.00    +0.000 C 
ATOM      8  C   UNL     1       3.686   3.711  18.037  0.00  0.00    +0.000 C 
ATOM      9  C   UNL     1       5.176   4.006  18.220  0.00  0.00    +0.000 C 
ATOM     10  C   UNL     1       5.340   5.184  19.194  0.00  0.00    +0.000 C 
ATOM     11  C   UNL     1       4.496   6.403  18.814  0.00  0.00    +0.000 C 
BRANCH   6  12
ATOM     12  C   UNL     1       2.334   7.290  18.090  0.00  0.00    +0.000 C 
BRANCH  12  16
ATOM     13  C   UNL     1       0.765   9.811  21.262  0.00  0.00    +0.000 A 
ATOM     14  C   UNL     1       1.128   8.488  21.516  0.00  0.00    +0.000 A 
ATOM     15  C   UNL     1       1.588   7.668  20.481  0.00  0.00    +0.000 A 
ATOM     16  C   UNL     1       1.716   8.156  19.178  0.00  0.00    +0.000 A 
ATOM     17  C   UNL     1       1.285   9.467  18.916  0.00  0.00    +0.000 A 
ATOM     18  C   UNL     1       0.802  10.297  19.945  0.00  0.00    +0.000 A 
ATOM     19  C   UNL     1       0.335  11.692  19.631  0.00  0.00    +0.000 C 
BRANCH  13  21
ATOM     20  C   UNL     1      -0.499  10.089  23.242  0.00  0.00    +0.000 C 
ATOM     21  O   UNL     1       0.323  10.673  22.235  0.00  0.00    +0.000 OA
ENDBRANCH  13  21
ENDBRANCH  12  16
ENDBRANCH   6  12
ENDBRANCH   1   9
BRANCH   5  22
ATOM     22  N   UNL     1       7.643   5.818  17.590  0.00  0.00    +0.000 N 
ATOM     23  C   UNL     1       7.647   7.269  17.563  0.00  0.00    +0.000 C 
ATOM     24  O   UNL     1       6.938   7.872  16.769  0.00  0.00    +0.000 OA
ATOM     25  H   UNL     1       8.157   5.310  18.293  0.00  0.00    +0.000 HD
BRANCH  23  26
ATOM     26  C   UNL     1       8.510   7.998  18.565  0.00  0.00    +0.000 C 
BRANCH  26  27
ATOM     27  C   UNL     1       8.572   9.476  18.270  0.00  0.00    +0.000 C 
BRANCH  27  28
ATOM     28  O   UNL     1       8.891  10.248  19.417  0.00  0.00    +0.000 OA
BRANCH  28  29
ATOM     29  C   UNL     1       9.969  11.074  19.208  0.00  0.00    +0.000 A 
ATOM     30  C   UNL     1      10.210  11.429  17.884  0.00  0.00    +0.000 A 
ATOM     31  C   UNL     1      11.296  12.243  17.564  0.00  0.00    +0.000 A 
ATOM     32  C   UNL     1      12.144  12.714  18.571  0.00  0.00    +0.000 A 
ATOM     33  C   UNL     1      11.895  12.382  19.896  0.00  0.00    +0.000 A 
ATOM     34  C   UNL     1      10.805  11.571  20.218  0.00  0.00    +0.000 A 
ENDBRANCH  28  29
ENDBRANCH  27  28
ENDBRANCH  26  27
ENDBRANCH  23  26
ENDBRANCH   5  22
TORSDOF 9
ENDMDL
MODEL 2
REMARK VINA RESULT:      -8.5      0.637      1.315
REMARK  Name = 
REMARK  11 active torsions:
REMARK  status: ('A' for Active; 'I' for Inactive)
REMARK    1  A    between atoms: C_1  and  O_2
REMARK    2  A    between atoms: O_2  and  C_3
REMARK    3  A    between atoms: C_6  and  C_7
REMARK    4  A    between atoms: C_7  and  N_8
REMARK    5  A    between atoms: C_11  and  N_12
REMARK    6  A    between atoms: C_16  and  N_17
REMARK    7  A    between atoms: C_18  and  C_20
REMARK    8  A    between atoms: C_20  and  C_21
REMARK    9  A    between atoms: C_21  and  O_22
REMARK   10  A    between atoms: O_22  and  C_23
REMARK   11  A    between atoms: C_32  and  C_33
REMARK                            x       y       z     vdW  Elec       q    Type
REMARK                         _______ _______ _______ _____ _____    ______ ____
ROOT
ATOM      1  N   UNL     1       5.863   4.233  17.005  0.00  0.00    +0.000 N 
ATOM      2  N   UNL     1       5.420   3.573  15.920  0.00  0.00    +0.000 NA
ATOM      3  C   UNL     1       6.196   3.995  14.926  0.00  0.00    +0.000 A 
ATOM      4  C   UNL     1       7.157   4.920  15.359  0.00  0.00    +0.000 A 
ATOM      5  C   UNL     1       6.937   5.060  16.710  0.00  0.00    +0.000 A 
ENDROOT
BRANCH   1   9
ATOM      6  N   UNL     1       2.808   5.956  18.360  0.00  0.00    +0.000 NA
ATOM      7  C   UNL     1       2.760   4.716  17.582  0.00  0.00    +0.000 C 
ATOM      8  C   UNL     1       3.696   3.631  18.115  0.00  0.00    +0.000 C 
ATOM      9  C   UNL     1       5.136   4.124  18.274  0.00  0.00    +0.000 C 
ATOM     10  C   UNL     1       5.139   5.407  19.119  0.00  0.00    +0.000 C 
ATOM     11  C   UNL     1       4.159   6.468  18.608  0.00  0.00    +0.000 C 
BRANCH   6  12
ATOM     12  C   UNL     1       1.919   7.003  17.784  0.00  0.00    +0.000 C 
BRANCH  12  16
ATOM     13  C   UNL     1       1.066  10.555  20.136  0.00  0.00    +0.000 A 
ATOM     14  C   UNL     1       1.336  10.652  18.771  0.00  0.00    +0.000 A 
ATOM     15  C   UNL     1       1.656   9.511  18.030  0.00  0.00    +0.000 A 
ATOM     16  C   UNL     1       1.691   8.248  18.628  0.00  0.00    +0.000 A 
ATOM     17  C   UNL     1       1.486   8.167  20.015  0.00  0.00    +0.000 A 
ATOM     18  C   UNL     1       1.181   9.311  20.777  0.00  0.00    +0.000 A 
ATOM     19  C   UNL     1       0.978   9.194  22.263  0.00  0.00    +0.000 C 
BRANCH  13  21
ATOM     20  C   UNL     1      -0.559  12.192  20.664  0.00  0.00    +0.000 C 
ATOM     21  O   UNL     1       0.728  11.632  20.917  0.00  0.00    +0.000 OA
ENDBRANCH  13  21
ENDBRANCH  12  16
ENDBRANCH   6  12
ENDBRANCH   1   9
BRANCH   5  22
ATOM     22  N   UNL     1       7.660   5.842  17.606  0.00  0.00    +0.000 N 
ATOM     23  C   UNL     1       7.643   7.293  17.611  0.00  0.00    +0.000 C 
ATOM     24  O   UNL     1       6.892   7.903  16.863  0.00  0.00    +0.000 OA
ATOM     25  H   UNL     1       8.212   5.326  18.273  0.00  0.00    +0.000 HD
BRANCH  23  26
ATOM     26  C   UNL     1       8.543   8.012  18.589  0.00  0.00    +0.000 C 
BRANCH  26  27
ATOM     27  C   UNL     1       8.572   9.496  18.323  0.00  0.00    +0.000 C 
BRANCH  27  28
ATOM     28  O   UNL     1       8.934  10.248  19.470  0.00  0.00    +0.000 OA
BRANCH  28  29
ATOM     29  C   UNL     1       9.996  11.088  19.232  0.00  0.00    +0.000 A 
ATOM     30  C   UNL     1      10.254  11.370  17.893  0.00  0.00    +0.000 A 
ATOM     31  C   UNL     1      11.326  12.190  17.545  0.00  0.00    +0.000 A 
ATOM     32  C   UNL     1      12.142  12.742  18.537  0.00  0.00    +0.000 A 
ATOM     33  C   UNL     1      11.876  12.483  19.875  0.00  0.00    +0.000 A 
ATOM     34  C   UNL     1      10.800  11.665  20.225  0.00  0.00    +0.000 A 
ENDBRANCH  28  29
ENDBRANCH  27  28
ENDBRANCH  26  27
ENDBRANCH  23  26
ENDBRANCH   5  22
TORSDOF 9
ENDMDL
MODEL 3
REMARK VINA RESULT:      -7.9      3.486      5.639
REMARK  Name = 
REMARK  11 active torsions:
REMARK  status: ('A' for Active; 'I' for Inactive)
REMARK    1  A    between atoms: C_1  and  O_2
REMARK    2  A    between atoms: O_2  and  C_3
REMARK    3  A    between atoms: C_6  and  C_7
REMARK    4  A    between atoms: C_7  and  N_8
REMARK    5  A    between atoms: C_11  and  N_12
REMARK    6  A    between atoms: C_16  and  N_17
REMARK    7  A    between atoms: C_18  and  C_20
REMARK    8  A    between atoms: C_20  and  C_21
REMARK    9  A    between atoms: C_21  and  O_22
REMARK   10  A    between atoms: O_22  and  C_23
REMARK   11  A    between atoms: C_32  and  C_33
REMARK                            x       y       z     vdW  Elec       q    Type
REMARK                         _______ _______ _______ _____ _____    ______ ____
ROOT
ATOM      1  N   UNL     1       3.461   3.503  19.335  0.00  0.00    +0.000 N 
ATOM      2  N   UNL     1       3.147   2.543  20.224  0.00  0.00    +0.000 NA
ATOM      3  C   UNL     1       4.313   2.005  20.569  0.00  0.00    +0.000 A 
ATOM      4  C   UNL     1       5.393   2.619  19.920  0.00  0.00    +0.000 A 
ATOM      5  C   UNL     1       4.829   3.594  19.129  0.00  0.00    +0.000 A 
ENDROOT
BRANCH   1   9
ATOM      6  N   UNL     1       1.616   6.703  20.032  0.00  0.00    +0.000 NA
ATOM      7  C   UNL     1       2.856   6.637  19.257  0.00  0.00    +0.000 C 
ATOM      8  C   UNL     1       2.811   5.604  18.130  0.00  0.00    +0.000 C 
ATOM      9  C   UNL     1       2.396   4.216  18.623  0.00  0.00    +0.000 C 
ATOM     10  C   UNL     1       1.078   4.332  19.404  0.00  0.00    +0.000 C 
ATOM     11  C   UNL     1       1.116   5.405  20.495  0.00  0.00    +0.000 C 
BRANCH   6  12
ATOM     12  C   UNL     1       1.715   7.686  21.147  0.00  0.00    +0.000 C 
BRANCH  12  16
ATOM     13  C   UNL     1      -0.727  11.245  20.646  0.00  0.00    +0.000 A 
ATOM     14  C   UNL     1       0.024  10.740  19.585  0.00  0.00    +0.000 A 
ATOM     15  C   UNL     1       0.844   9.622  19.765  0.00  0.00    +0.000 A 
ATOM     16  C   UNL     1       0.915   8.972  21.000  0.00  0.00    +0.000 A 
ATOM     17  C   UNL     1       0.210   9.526  22.081  0.00  0.00    +0.000 A 
ATOM     18  C   UNL     1      -0.604  10.662  21.918  0.00  0.00    +0.000 A 
ATOM     19  C   UNL     1      -1.337  11.239  23.099  0.00  0.00    +0.000 C 
BRANCH  13  21
ATOM     20  C   UNL     1      -2.639  12.174  19.608  0.00  0.00    +0.000 C 
ATOM     21  O   UNL     1      -1.564  12.326  20.532  0.00  0.00    +0.000 OA
ENDBRANCH  13  21
ENDBRANCH  12  16
ENDBRANCH   6  12
ENDBRANCH   1   9
BRANCH   5  22
ATOM     22  N   UNL     1       5.492   4.507  18.315  0.00  0.00    +0.000 N 
ATOM     23  C   UNL     1       6.512   5.424  18.790  0.00  0.00    +0.000 C 
ATOM     24  O   UNL     1       6.908   5.361  19.945  0.00  0.00    +0.000 OA
ATOM     25  H   UNL     1       5.217   4.494  17.346  0.00  0.00    +0.000 HD
BRANCH  23  26
ATOM     26  C   UNL     1       7.089   6.418  17.808  0.00  0.00    +0.000 C 
BRANCH  26  27
ATOM     27  C   UNL     1       6.714   6.075  16.389  0.00  0.00    +0.000 C 
BRANCH  27  28
ATOM     28  O   UNL     1       7.516   5.038  15.849  0.00  0.00    +0.000 OA
BRANCH  28  29
ATOM     29  C   UNL     1       7.129   4.684  14.578  0.00  0.00    +0.000 A 
ATOM     30  C   UNL     1       5.978   3.905  14.493  0.00  0.00    +0.000 A 
ATOM     31  C   UNL     1       5.517   3.471  13.250  0.00  0.00    +0.000 A 
ATOM     32  C   UNL     1       6.202   3.823  12.083  0.00  0.00    +0.000 A 
ATOM     33  C   UNL     1       7.337   4.620  12.160  0.00  0.00    +0.000 A 
ATOM     34  C   UNL     1       7.797   5.058  13.404  0.00  0.00    +0.000 A 
ENDBRANCH  28  29
ENDBRANCH  27  28
ENDBRANCH  26  27
ENDBRANCH  23  26
ENDBRANCH   5  22
TORSDOF 9
ENDMDL
MODEL 4
REMARK VINA RESULT:      -7.8      3.840      5.719
REMARK  Name = 
REMARK  11 active torsions:
REMARK  status: ('A' for Active; 'I' for Inactive)
REMARK    1  A    between atoms: C_1  and  O_2
REMARK    2  A    between atoms: O_2  and  C_3
REMARK    3  A    between atoms: C_6  and  C_7
REMARK    4  A    between atoms: C_7  and  N_8
REMARK    5  A    between atoms: C_11  and  N_12
REMARK    6  A    between atoms: C_16  and  N_17
REMARK    7  A    between atoms: C_18  and  C_20
REMARK    8  A    between atoms: C_20  and  C_21
REMARK    9  A    between atoms: C_21  and  O_22
REMARK   10  A    between atoms: O_22  and  C_23
REMARK   11  A    between atoms: C_32  and  C_33
REMARK                            x       y       z     vdW  Elec       q    Type
REMARK                         _______ _______ _______ _____ _____    ______ ____
ROOT
ATOM      1  N   UNL     1       3.349   3.463  19.550  0.00  0.00    +0.000 N 
ATOM      2  N   UNL     1       2.774   2.754  20.539  0.00  0.00    +0.000 NA
ATOM      3  C   UNL     1       3.745   1.974  21.006  0.00  0.00    +0.000 A 
ATOM      4  C   UNL     1       4.960   2.181  20.336  0.00  0.00    +0.000 A 
ATOM      5  C   UNL     1       4.692   3.153  19.400  0.00  0.00    +0.000 A 
ENDROOT
BRANCH   1   9
ATOM      6  N   UNL     1       1.751   6.819  20.114  0.00  0.00    +0.000 NA
ATOM      7  C   UNL     1       3.106   6.646  19.586  0.00  0.00    +0.000 C 
ATOM      8  C   UNL     1       3.175   5.684  18.399  0.00  0.00    +0.000 C 
ATOM      9  C   UNL     1       2.527   4.332  18.702  0.00  0.00    +0.000 C 
ATOM     10  C   UNL     1       1.100   4.562  19.224  0.00  0.00    +0.000 C 
ATOM     11  C   UNL     1       1.035   5.567  20.377  0.00  0.00    +0.000 C 
BRANCH   6  12
ATOM     12  C   UNL     1       1.731   7.725  21.296  0.00  0.00    +0.000 C 
BRANCH  12  16
ATOM     13  C   UNL     1      -0.791  11.259  21.125  0.00  0.00    +0.000 A 
ATOM     14  C   UNL     1      -0.403  10.719  22.351  0.00  0.00    +0.000 A 
ATOM     15  C   UNL     1       0.370   9.555  22.399  0.00  0.00    +0.000 A 
ATOM     16  C   UNL     1       0.789   8.918  21.228  0.00  0.00    +0.000 A 
ATOM     17  C   UNL     1       0.338   9.428  20.000  0.00  0.00    +0.000 A 
ATOM     18  C   UNL     1      -0.456  10.589  19.937  0.00  0.00    +0.000 A 
ATOM     19  C   UNL     1      -0.934  11.104  18.606  0.00  0.00    +0.000 C 
BRANCH  13  21
ATOM     20  C   UNL     1      -2.790  12.396  21.679  0.00  0.00    +0.000 C 
ATOM     21  O   UNL     1      -1.533  12.408  21.007  0.00  0.00    +0.000 OA
ENDBRANCH  13  21
ENDBRANCH  12  16
ENDBRANCH   6  12
ENDBRANCH   1   9
BRANCH   5  22
ATOM     22  N   UNL     1       5.589   3.734  18.508  0.00  0.00    +0.000 N 
ATOM     23  C   UNL     1       6.481   4.826  18.852  0.00  0.00    +0.000 C 
ATOM     24  O   UNL     1       6.549   5.226  20.006  0.00  0.00    +0.000 OA
ATOM     25  H   UNL     1       5.583   3.341  17.580  0.00  0.00    +0.000 HD
BRANCH  23  26
ATOM     26  C   UNL     1       7.343   5.413  17.759  0.00  0.00    +0.000 C 
BRANCH  26  27
ATOM     27  C   UNL     1       7.303   4.569  16.510  0.00  0.00    +0.000 C 
BRANCH  27  28
ATOM     28  O   UNL     1       6.223   4.911  15.656  0.00  0.00    +0.000 OA
BRANCH  28  29
ATOM     29  C   UNL     1       6.495   4.643  14.335  0.00  0.00    +0.000 A 
ATOM     30  C   UNL     1       5.664   3.707  13.726  0.00  0.00    +0.000 A 
ATOM     31  C   UNL     1       5.874   3.346  12.395  0.00  0.00    +0.000 A 
ATOM     32  C   UNL     1       6.913   3.928  11.664  0.00  0.00    +0.000 A 
ATOM     33  C   UNL     1       7.731   4.879  12.260  0.00  0.00    +0.000 A 
ATOM     34  C   UNL     1       7.520   5.244  13.590  0.00  0.00    +0.000 A 
ENDBRANCH  28  29
ENDBRANCH  27  28
ENDBRANCH  26  27
ENDBRANCH  23  26
ENDBRANCH   5  22
TORSDOF 9
ENDMDL
MODEL 5
REMARK VINA RESULT:      -7.5      5.672     10.549
REMARK  Name = 
REMARK  11 active torsions:
REMARK  status: ('A' for Active; 'I' for Inactive)
REMARK    1  A    between atoms: C_1  and  O_2
REMARK    2  A    between atoms: O_2  and  C_3
REMARK    3  A    between atoms: C_6  and  C_7
REMARK    4  A    between atoms: C_7  and  N_8
REMARK    5  A    between atoms: C_11  and  N_12
REMARK    6  A    between atoms: C_16  and  N_17
REMARK    7  A    between atoms: C_18  and  C_20
REMARK    8  A    between atoms: C_20  and  C_21
REMARK    9  A    between atoms: C_21  and  O_22
REMARK   10  A    between atoms: O_22  and  C_23
REMARK   11  A    between atoms: C_32  and  C_33
REMARK                            x       y       z     vdW  Elec       q    Type
REMARK                         _______ _______ _______ _____ _____    ______ ____
ROOT
ATOM      1  N   UNL     1       0.763  12.554  19.355  0.00  0.00    +0.000 N 
ATOM      2  N   UNL     1       1.816  12.373  18.537  0.00  0.00    +0.000 NA
ATOM      3  C   UNL     1       2.428  13.552  18.505  0.00  0.00    +0.000 A 
ATOM      4  C   UNL     1       1.788  14.504  19.312  0.00  0.00    +0.000 A 
ATOM      5  C   UNL     1       0.715  13.842  19.864  0.00  0.00    +0.000 A 
ENDROOT
BRANCH   1   9
ATOM      6  N   UNL     1       1.047   8.857  19.980  0.00  0.00    +0.000 NA
ATOM      7  C   UNL     1       0.967   9.855  21.049  0.00  0.00    +0.000 C 
ATOM      8  C   UNL     1      -0.207  10.822  20.887  0.00  0.00    +0.000 C 
ATOM      9  C   UNL     1      -0.233  11.489  19.511  0.00  0.00    +0.000 C 
ATOM     10  C   UNL     1      -0.176  10.403  18.424  0.00  0.00    +0.000 C 
ATOM     11  C   UNL     1       0.971   9.409  18.624  0.00  0.00    +0.000 C 
BRANCH   6  12
ATOM     12  C   UNL     1       2.228   7.965  20.147  0.00  0.00    +0.000 C 
BRANCH  12  16
ATOM     13  C   UNL     1       1.964   3.814  18.889  0.00  0.00    +0.000 A 
ATOM     14  C   UNL     1       2.270   4.819  17.971  0.00  0.00    +0.000 A 
ATOM     15  C   UNL     1       2.307   6.158  18.373  0.00  0.00    +0.000 A 
ATOM     16  C   UNL     1       2.062   6.520  19.700  0.00  0.00    +0.000 A 
ATOM     17  C   UNL     1       1.688   5.511  20.603  0.00  0.00    +0.000 A 
ATOM     18  C   UNL     1       1.629   4.161  20.208  0.00  0.00    +0.000 A 
ATOM     19  C   UNL     1       1.213   3.105  21.195  0.00  0.00    +0.000 C 
BRANCH  13  21
ATOM     20  C   UNL     1       3.080   1.986  17.884  0.00  0.00    +0.000 C 
ATOM     21  O   UNL     1       1.929   2.481  18.565  0.00  0.00    +0.000 OA
ENDBRANCH  13  21
ENDBRANCH  12  16
ENDBRANCH   6  12
ENDBRANCH   1   9
BRANCH   5  22
ATOM     22  N   UNL     1      -0.210  14.348  20.772  0.00  0.00    +0.000 N 
ATOM     23  C   UNL     1       0.135  14.835  22.095  0.00  0.00    +0.000 C 
ATOM     24  O   UNL     1       1.307  14.912  22.436  0.00  0.00    +0.000 OA
ATOM     25  H   UNL     1      -1.165  14.358  20.448  0.00  0.00    +0.000 HD
BRANCH  23  26
ATOM     26  C   UNL     1      -0.986  15.280  23.006  0.00  0.00    +0.000 C 
BRANCH  26  27
ATOM     27  C   UNL     1      -1.449  14.157  23.899  0.00  0.00    +0.000 C 
BRANCH  27  28
ATOM     28  O   UNL     1      -1.724  12.966  23.180  0.00  0.00    +0.000 OA
BRANCH  28  29
ATOM     29  C   UNL     1      -3.007  12.936  22.686  0.00  0.00    +0.000 A 
ATOM     30  C   UNL     1      -4.021  13.010  23.637  0.00  0.00    +0.000 A 
ATOM     31  C   UNL     1      -5.357  12.961  23.240  0.00  0.00    +0.000 A 
ATOM     32  C   UNL     1      -5.685  12.846  21.886  0.00  0.00    +0.000 A 
ATOM     33  C   UNL     1      -4.678  12.795  20.931  0.00  0.00    +0.000 A 
ATOM     34  C   UNL     1      -3.340  12.848  21.327  0.00  0.00    +0.000 A 
ENDBRANCH  28  29
ENDBRANCH  27  28
ENDBRANCH  26  27
ENDBRANCH  23  26
ENDBRANCH   5  22
TORSDOF 9
ENDMDL
MODEL 6
REMARK VINA RESULT:      -7.5      5.400      7.899
REMARK  Name = 
REMARK  11 active torsions:
REMARK  status: ('A' for Active; 'I' for Inactive)
REMARK    1  A    between atoms: C_1  and  O_2
REMARK    2  A    between atoms: O_2  and  C_3
REMARK    3  A    between atoms: C_6  and  C_7
REMARK    4  A    between atoms: C_7  and  N_8
REMARK    5  A    between atoms: C_11  and  N_12
REMARK    6  A    between atoms: C_16  and  N_17
REMARK    7  A    between atoms: C_18  and  C_20
REMARK    8  A    between atoms: C_20  and  C_21
REMARK    9  A    between atoms: C_21  and  O_22
REMARK   10  A    between atoms: O_22  and  C_23
REMARK   11  A    between atoms: C_32  and  C_33
REMARK                            x       y       z     vdW  Elec       q    Type
REMARK                         _______ _______ _______ _____ _____    ______ ____
ROOT
ATOM      1  N   UNL     1       1.691   8.141  20.030  0.00  0.00    +0.000 N 
ATOM      2  N   UNL     1       1.513   8.981  18.993  0.00  0.00    +0.000 NA
ATOM      3  C   UNL     1       2.138   8.399  17.974  0.00  0.00    +0.000 A 
ATOM      4  C   UNL     1       2.713   7.172  18.335  0.00  0.00    +0.000 A 
ATOM      5  C   UNL     1       2.409   7.012  19.668  0.00  0.00    +0.000 A 
ENDROOT
BRANCH   1   9
ATOM      6  N   UNL     1      -0.400  10.994  21.306  0.00  0.00    +0.000 NA
ATOM      7  C   UNL     1      -0.956   9.701  20.898  0.00  0.00    +0.000 C 
ATOM      8  C   UNL     1      -0.263   8.509  21.558  0.00  0.00    +0.000 C 
ATOM      9  C   UNL     1       1.255   8.536  21.373  0.00  0.00    +0.000 C 
ATOM     10  C   UNL     1       1.795   9.897  21.840  0.00  0.00    +0.000 C 
ATOM     11  C   UNL     1       1.060  11.085  21.214  0.00  0.00    +0.000 C 
BRANCH   6  12
ATOM     12  C   UNL     1      -1.069  12.126  20.608  0.00  0.00    +0.000 C 
BRANCH  12  16
ATOM     13  C   UNL     1      -5.168  12.885  21.834  0.00  0.00    +0.000 A 
ATOM     14  C   UNL     1      -4.811  12.911  20.486  0.00  0.00    +0.000 A 
ATOM     15  C   UNL     1      -3.482  12.712  20.101  0.00  0.00    +0.000 A 
ATOM     16  C   UNL     1      -2.486  12.462  21.050  0.00  0.00    +0.000 A 
ATOM     17  C   UNL     1      -2.840  12.506  22.408  0.00  0.00    +0.000 A 
ATOM     18  C   UNL     1      -4.171  12.724  22.810  0.00  0.00    +0.000 A 
ATOM     19  C   UNL     1      -4.517  12.777  24.274  0.00  0.00    +0.000 C 
BRANCH  13  21
ATOM     20  C   UNL     1      -6.960  14.386  22.198  0.00  0.00    +0.000 C 
ATOM     21  O   UNL     1      -6.456  13.055  22.277  0.00  0.00    +0.000 OA
ENDBRANCH  13  21
ENDBRANCH  12  16
ENDBRANCH   6  12
ENDBRANCH   1   9
BRANCH   5  22
ATOM     22  N   UNL     1       2.726   5.928  20.480  0.00  0.00    +0.000 N 
ATOM     23  C   UNL     1       1.841   4.801  20.709  0.00  0.00    +0.000 C 
ATOM     24  O   UNL     1       0.786   4.712  20.097  0.00  0.00    +0.000 OA
ATOM     25  H   UNL     1       3.635   5.970  20.914  0.00  0.00    +0.000 HD
BRANCH  23  26
ATOM     26  C   UNL     1       2.284   3.732  21.681  0.00  0.00    +0.000 C 
BRANCH  26  27
ATOM     27  C   UNL     1       2.533   2.419  20.984  0.00  0.00    +0.000 C 
BRANCH  27  28
ATOM     28  O   UNL     1       3.869   2.291  20.525  0.00  0.00    +0.000 OA
BRANCH  28  29
ATOM     29  C   UNL     1       4.076   2.939  19.330  0.00  0.00    +0.000 A 
ATOM     30  C   UNL     1       3.156   2.656  18.323  0.00  0.00    +0.000 A 
ATOM     31  C   UNL     1       3.295   3.242  17.065  0.00  0.00    +0.000 A 
ATOM     32  C   UNL     1       4.351   4.122  16.810  0.00  0.00    +0.000 A 
ATOM     33  C   UNL     1       5.258   4.425  17.818  0.00  0.00    +0.000 A 
ATOM     34  C   UNL     1       5.118   3.842  19.078  0.00  0.00    +0.000 A 
ENDBRANCH  28  29
ENDBRANCH  27  28
ENDBRANCH  26  27
ENDBRANCH  23  26
ENDBRANCH   5  22
TORSDOF 9
ENDMDL
MODEL 7
REMARK VINA RESULT:      -7.5      5.679      9.196
REMARK  Name = 
REMARK  11 active torsions:
REMARK  status: ('A' for Active; 'I' for Inactive)
REMARK    1  A    between atoms: C_1  and  O_2
REMARK    2  A    between atoms: O_2  and  C_3
REMARK    3  A    between atoms: C_6  and  C_7
REMARK    4  A    between atoms: C_7  and  N_8
REMARK    5  A    between atoms: C_11  and  N_12
REMARK    6  A    between atoms: C_16  and  N_17
REMARK    7  A    between atoms: C_18  and  C_20
REMARK    8  A    between atoms: C_20  and  C_21
REMARK    9  A    between atoms: C_21  and  O_22
REMARK   10  A    between atoms: O_22  and  C_23
REMARK   11  A    between atoms: C_32  and  C_33
REMARK                            x       y       z     vdW  Elec       q    Type
REMARK                         _______ _______ _______ _____ _____    ______ ____
ROOT
ATOM      1  N   UNL     1      -0.359  11.480  18.908  0.00  0.00    +0.000 N 
ATOM      2  N   UNL     1      -1.395  12.285  18.611  0.00  0.00    +0.000 NA
ATOM      3  C   UNL     1      -2.135  11.585  17.755  0.00  0.00    +0.000 A 
ATOM      4  C   UNL     1      -1.594  10.317  17.501  0.00  0.00    +0.000 A 
ATOM      5  C   UNL     1      -0.447  10.257  18.260  0.00  0.00    +0.000 A 
ENDROOT
BRANCH   1   9
ATOM      6  N   UNL     1      -0.207  13.793  21.868  0.00  0.00    +0.000 NA
ATOM      7  C   UNL     1      -0.364  12.342  21.982  0.00  0.00    +0.000 C 
ATOM      8  C   UNL     1       0.681  11.556  21.189  0.00  0.00    +0.000 C 
ATOM      9  C   UNL     1       0.750  11.986  19.722  0.00  0.00    +0.000 C 
ATOM     10  C   UNL     1       0.944  13.509  19.653  0.00  0.00    +0.000 C 
ATOM     11  C   UNL     1      -0.074  14.285  20.493  0.00  0.00    +0.000 C 
BRANCH   6  12
ATOM     12  C   UNL     1      -1.268  14.523  22.615  0.00  0.00    +0.000 C 
BRANCH  12  16
ATOM     13  C   UNL     1      -5.203  12.727  23.039  0.00  0.00    +0.000 A 
ATOM     14  C   UNL     1      -4.352  12.849  24.138  0.00  0.00    +0.000 A 
ATOM     15  C   UNL     1      -3.070  13.384  23.985  0.00  0.00    +0.000 A 
ATOM     16  C   UNL     1      -2.617  13.830  22.741  0.00  0.00    +0.000 A 
ATOM     17  C   UNL     1      -3.452  13.642  21.627  0.00  0.00    +0.000 A 
ATOM     18  C   UNL     1      -4.739  13.087  21.763  0.00  0.00    +0.000 A 
ATOM     19  C   UNL     1      -5.605  12.887  20.549  0.00  0.00    +0.000 C 
BRANCH  13  21
ATOM     20  C   UNL     1      -7.374  12.971  23.946  0.00  0.00    +0.000 C 
ATOM     21  O   UNL     1      -6.478  12.228  23.123  0.00  0.00    +0.000 OA
ENDBRANCH  13  21
ENDBRANCH  12  16
ENDBRANCH   6  12
ENDBRANCH   1   9
BRANCH   5  22
ATOM     22  N   UNL     1       0.428   9.182  18.381  0.00  0.00    +0.000 N 
ATOM     23  C   UNL     1       1.785   9.180  17.867  0.00  0.00    +0.000 C 
ATOM     24  O   UNL     1       2.259  10.195  17.376  0.00  0.00    +0.000 OA
ATOM     25  H   UNL     1       0.054   8.379  18.863  0.00  0.00    +0.000 HD
BRANCH  23  26
ATOM     26  C   UNL     1       2.596   7.912  17.999  0.00  0.00    +0.000 C 
BRANCH  26  27
ATOM     27  C   UNL     1       2.387   7.260  19.343  0.00  0.00    +0.000 C 
BRANCH  27  28
ATOM     28  O   UNL     1       3.351   6.256  19.617  0.00  0.00    +0.000 OA
BRANCH  28  29
ATOM     29  C   UNL     1       2.793   5.002  19.698  0.00  0.00    +0.000 A 
ATOM     30  C   UNL     1       1.615   4.913  20.436  0.00  0.00    +0.000 A 
ATOM     31  C   UNL     1       0.985   3.680  20.601  0.00  0.00    +0.000 A 
ATOM     32  C   UNL     1       1.526   2.529  20.020  0.00  0.00    +0.000 A 
ATOM     33  C   UNL     1       2.688   2.617  19.263  0.00  0.00    +0.000 A 
ATOM     34  C   UNL     1       3.317   3.851  19.094  0.00  0.00    +0.000 A 
ENDBRANCH  28  29
ENDBRANCH  27  28
ENDBRANCH  26  27
ENDBRANCH  23  26
ENDBRANCH   5  22
TORSDOF 9
ENDMDL
MODEL 8
REMARK VINA RESULT:      -7.4      6.084      9.529
REMARK  Name = 
REMARK  11 active torsions:
REMARK  status: ('A' for Active; 'I' for Inactive)
REMARK    1  A    between atoms: C_1  and  O_2
REMARK    2  A    between atoms: O_2  and  C_3
REMARK    3  A    between atoms: C_6  and  C_7
REMARK    4  A    between atoms: C_7  and  N_8
REMARK    5  A    between atoms: C_11  and  N_12
REMARK    6  A    between atoms: C_16  and  N_17
REMARK    7  A    between atoms: C_18  and  C_20
REMARK    8  A    between atoms: C_20  and  C_21
REMARK    9  A    between atoms: C_21  and  O_22
REMARK   10  A    between atoms: O_22  and  C_23
REMARK   11  A    between atoms: C_32  and  C_33
REMARK                            x       y       z     vdW  Elec       q    Type
REMARK                         _______ _______ _______ _____ _____    ______ ____
ROOT
ATOM      1  N   UNL     1      -0.258  11.880  18.621  0.00  0.00    +0.000 N 
ATOM      2  N   UNL     1      -1.299  12.371  17.925  0.00  0.00    +0.000 NA
ATOM      3  C   UNL     1      -1.981  11.299  17.533  0.00  0.00    +0.000 A 
ATOM      4  C   UNL     1      -1.398  10.106  17.982  0.00  0.00    +0.000 A 
ATOM      5  C   UNL     1      -0.286  10.496  18.693  0.00  0.00    +0.000 A 
ENDROOT
BRANCH   1   9
ATOM      6  N   UNL     1      -0.167  14.584  21.232  0.00  0.00    +0.000 NA
ATOM      7  C   UNL     1       0.137  13.179  21.511  0.00  0.00    +0.000 C 
ATOM      8  C   UNL     1       1.173  12.583  20.557  0.00  0.00    +0.000 C 
ATOM      9  C   UNL     1       0.800  12.782  19.087  0.00  0.00    +0.000 C 
ATOM     10  C   UNL     1       0.520  14.272  18.836  0.00  0.00    +0.000 C 
ATOM     11  C   UNL     1      -0.479  14.873  19.829  0.00  0.00    +0.000 C 
BRANCH   6  12
ATOM     12  C   UNL     1      -1.211  15.115  22.150  0.00  0.00    +0.000 C 
BRANCH  12  16
ATOM     13  C   UNL     1      -4.914  12.906  22.688  0.00  0.00    +0.000 A 
ATOM     14  C   UNL     1      -3.859  12.758  23.587  0.00  0.00    +0.000 A 
ATOM     15  C   UNL     1      -2.653  13.435  23.382  0.00  0.00    +0.000 A 
ATOM     16  C   UNL     1      -2.483  14.291  22.291  0.00  0.00    +0.000 A 
ATOM     17  C   UNL     1      -3.524  14.383  21.354  0.00  0.00    +0.000 A 
ATOM     18  C   UNL     1      -4.737  13.692  21.537  0.00  0.00    +0.000 A 
ATOM     19  C   UNL     1      -5.830  13.801  20.508  0.00  0.00    +0.000 C 
BRANCH  13  21
ATOM     20  C   UNL     1      -6.920  12.747  23.932  0.00  0.00    +0.000 C 
ATOM     21  O   UNL     1      -6.129  12.285  22.840  0.00  0.00    +0.000 OA
ENDBRANCH  13  21
ENDBRANCH  12  16
ENDBRANCH   6  12
ENDBRANCH   1   9
BRANCH   5  22
ATOM     22  N   UNL     1       0.609   9.676  19.374  0.00  0.00    +0.000 N 
ATOM     23  C   UNL     1       0.440   9.264  20.755  0.00  0.00    +0.000 C 
ATOM     24  O   UNL     1      -0.580   9.552  21.364  0.00  0.00    +0.000 OA
ATOM     25  H   UNL     1       1.406   9.375  18.836  0.00  0.00    +0.000 HD
BRANCH  23  26
ATOM     26  C   UNL     1       1.535   8.438  21.392  0.00  0.00    +0.000 C 
BRANCH  26  27
ATOM     27  C   UNL     1       1.435   6.987  20.994  0.00  0.00    +0.000 C 
BRANCH  27  28
ATOM     28  O   UNL     1       2.149   6.699  19.803  0.00  0.00    +0.000 OA
BRANCH  28  29
ATOM     29  C   UNL     1       1.905   5.427  19.341  0.00  0.00    +0.000 A 
ATOM     30  C   UNL     1       1.262   4.575  20.234  0.00  0.00    +0.000 A 
ATOM     31  C   UNL     1       0.993   3.255  19.870  0.00  0.00    +0.000 A 
ATOM     32  C   UNL     1       1.358   2.784  18.606  0.00  0.00    +0.000 A 
ATOM     33  C   UNL     1       1.980   3.637  17.703  0.00  0.00    +0.000 A 
ATOM     34  C   UNL     1       2.246   4.959  18.064  0.00  0.00    +0.000 A 
ENDBRANCH  28  29
ENDBRANCH  27  28
ENDBRANCH  26  27
ENDBRANCH  23  26
ENDBRANCH   5  22
TORSDOF 9
ENDMDL
MODEL 9
REMARK VINA RESULT:      -7.4      6.008     10.661
REMARK  Name = 
REMARK  11 active torsions:
REMARK  status: ('A' for Active; 'I' for Inactive)
REMARK    1  A    between atoms: C_1  and  O_2
REMARK    2  A    between atoms: O_2  and  C_3
REMARK    3  A    between atoms: C_6  and  C_7
REMARK    4  A    between atoms: C_7  and  N_8
REMARK    5  A    between atoms: C_11  and  N_12
REMARK    6  A    between atoms: C_16  and  N_17
REMARK    7  A    between atoms: C_18  and  C_20
REMARK    8  A    between atoms: C_20  and  C_21
REMARK    9  A    between atoms: C_21  and  O_22
REMARK   10  A    between atoms: O_22  and  C_23
REMARK   11  A    between atoms: C_32  and  C_33
REMARK                            x       y       z     vdW  Elec       q    Type
REMARK                         _______ _______ _______ _____ _____    ______ ____
ROOT
ATOM      1  N   UNL     1      -0.015  12.152  21.102  0.00  0.00    +0.000 N 
ATOM      2  N   UNL     1       1.286  12.315  21.404  0.00  0.00    +0.000 NA
ATOM      3  C   UNL     1       1.621  13.475  20.847  0.00  0.00    +0.000 A 
ATOM      4  C   UNL     1       0.539  14.082  20.193  0.00  0.00    +0.000 A 
ATOM      5  C   UNL     1      -0.518  13.219  20.373  0.00  0.00    +0.000 A 
ENDROOT
BRANCH   1   9
ATOM      6  N   UNL     1       0.988   8.544  20.764  0.00  0.00    +0.000 NA
ATOM      7  C   UNL     1       1.270   9.355  21.951  0.00  0.00    +0.000 C 
ATOM      8  C   UNL     1       0.036  10.072  22.501  0.00  0.00    +0.000 C 
ATOM      9  C   UNL     1      -0.690  10.894  21.435  0.00  0.00    +0.000 C 
ATOM     10  C   UNL     1      -0.990   9.996  20.224  0.00  0.00    +0.000 C 
ATOM     11  C   UNL     1       0.241   9.242  19.713  0.00  0.00    +0.000 C 
BRANCH   6  12
ATOM     12  C   UNL     1       2.220   7.901  20.231  0.00  0.00    +0.000 C 
BRANCH  12  16
ATOM     13  C   UNL     1       2.031   3.808  18.782  0.00  0.00    +0.000 A 
ATOM     14  C   UNL     1       2.328   4.859  17.914  0.00  0.00    +0.000 A 
ATOM     15  C   UNL     1       2.341   6.178  18.377  0.00  0.00    +0.000 A 
ATOM     16  C   UNL     1       2.081   6.475  19.717  0.00  0.00    +0.000 A 
ATOM     17  C   UNL     1       1.716   5.420  20.570  0.00  0.00    +0.000 A 
ATOM     18  C   UNL     1       1.681   4.089  20.113  0.00  0.00    +0.000 A 
ATOM     19  C   UNL     1       1.275   2.982  21.048  0.00  0.00    +0.000 C 
BRANCH  13  21
ATOM     20  C   UNL     1       3.296   1.928  18.102  0.00  0.00    +0.000 C 
ATOM     21  O   UNL     1       2.019   2.491  18.397  0.00  0.00    +0.000 OA
ENDBRANCH  13  21
ENDBRANCH  12  16
ENDBRANCH   6  12
ENDBRANCH   1   9
BRANCH   5  22
ATOM     22  N   UNL     1      -1.830  13.391  19.942  0.00  0.00    +0.000 N 
ATOM     23  C   UNL     1      -2.974  13.443  20.833  0.00  0.00    +0.000 C 
ATOM     24  O   UNL     1      -2.813  13.434  22.045  0.00  0.00    +0.000 OA
ATOM     25  H   UNL     1      -1.943  13.482  18.945  0.00  0.00    +0.000 HD
BRANCH  23  26
ATOM     26  C   UNL     1      -4.351  13.553  20.218  0.00  0.00    +0.000 C 
BRANCH  26  27
ATOM     27  C   UNL     1      -4.673  12.352  19.366  0.00  0.00    +0.000 C 
BRANCH  27  28
ATOM     28  O   UNL     1      -3.522  11.589  19.043  0.00  0.00    +0.000 OA
BRANCH  28  29
ATOM     29  C   UNL     1      -3.530  11.156  17.738  0.00  0.00    +0.000 A 
ATOM     30  C   UNL     1      -2.609  10.158  17.428  0.00  0.00    +0.000 A 
ATOM     31  C   UNL     1      -2.519   9.670  16.125  0.00  0.00    +0.000 A 
ATOM     32  C   UNL     1      -3.358  10.172  15.125  0.00  0.00    +0.000 A 
ATOM     33  C   UNL     1      -4.294  11.150  15.434  0.00  0.00    +0.000 A 
ATOM     34  C   UNL     1      -4.387  11.637  16.739  0.00  0.00    +0.000 A 
ENDBRANCH  28  29
ENDBRANCH  27  28
ENDBRANCH  26  27
ENDBRANCH  23  26
ENDBRANCH   5  22
TORSDOF 9
ENDMDL
