MODEL 1
REMARK VINA RESULT:      -9.3      0.000      0.000
REMARK  Name = 
REMARK  11 active torsions:
REMARK  status: ('A' for Active; 'I' for Inactive)
REMARK    1  A    between atoms: C_1  and  C_2
REMARK    2  A    between atoms: C_2  and  C_3
REMARK    3  A    between atoms: C_4  and  C_5
REMARK    4  A    between atoms: C_5  and  C_6
REMARK    5  A    between atoms: C_6  and  C_7
REMARK    6  A    between atoms: C_7  and  C_8
REMARK    7  A    between atoms: C_9  and  C_10
REMARK    8  A    between atoms: C_10  and  N_11
REMARK    9  A    between atoms: N_11  and  C_12
REMARK   10  A    between atoms: C_18  and  C_19
REMARK   11  A    between atoms: C_21  and  O_22
REMARK                            x       y       z     vdW  Elec       q    Type
REMARK                         _______ _______ _______ _____ _____    ______ ____
ROOT
ATOM      1  C   UNL     1       1.094   8.987  21.339  0.00  0.00    +0.000 C 
ATOM      2  C   UNL     1       0.599  10.315  21.255  0.00  0.00    +0.000 C 
ATOM      3  C   UNL     1       0.501   9.899  19.762  0.00  0.00    +0.000 C 
ATOM      4  O   UNL     1       1.431   9.725  18.973  0.00  0.00    +0.000 OA
ATOM      5  C   UNL     1      -0.832  10.164  19.226  0.00  0.00    +0.000 C 
ATOM      6  C   UNL     1      -0.354  11.491  18.662  0.00  0.00    +0.000 C 
ATOM      7  C   UNL     1      -0.755  12.500  19.686  0.00  0.00    +0.000 C 
ATOM      8  C   UNL     1      -0.510  13.840  18.893  0.00  0.00    +0.000 C 
ATOM      9  C   UNL     1       0.003  11.958  21.056  0.00  0.00    +0.000 C 
ATOM     10  C   UNL     1      -0.374  12.834  22.063  0.00  0.00    +0.000 C 
ATOM     11  C   UNL     1      -1.851  13.533  22.046  0.00  0.00    +0.000 C 
ATOM     12  O   UNL     1      -2.170  14.426  22.826  0.00  0.00    +0.000 OA
ATOM     13  C   UNL     1      -2.845  13.100  21.011  0.00  0.00    +0.000 A 
ATOM     14  C   UNL     1      -4.273  13.255  21.045  0.00  0.00    +0.000 A 
ATOM     15  C   UNL     1      -5.072  12.637  20.041  0.00  0.00    +0.000 A 
ATOM     16  C   UNL     1      -4.431  11.965  19.013  0.00  0.00    +0.000 A 
ATOM     17  C   UNL     1      -3.074  12.033  18.873  0.00  0.00    +0.000 A 
ATOM     18  C   UNL     1      -2.265  12.537  19.885  0.00  0.00    +0.000 A 
ATOM     19  C   UNL     1      -5.123  11.056  18.089  0.00  0.00    +0.000 C 
ATOM     20  O   UNL     1      -4.570  10.540  17.130  0.00  0.00    +0.000 OA
ATOM     21  C   UNL     1      -6.510  10.725  18.458  0.00  0.00    +0.000 C 
ATOM     22  C   UNL     1      -7.155  11.858  18.770  0.00  0.00    +0.000 C 
ATOM     23  C   UNL     1      -6.570  12.616  19.941  0.00  0.00    +0.000 C 
ATOM     24  O   UNL     1      -7.309  13.155  20.748  0.00  0.00    +0.000 OA
ENDROOT
BRANCH   1  25
ATOM     25  N   UNL     1       1.826   7.911  20.496  0.00  0.00    +0.000 N 
ATOM     26  H   UNL     1       2.451   8.315  19.798  0.00  0.00    +0.000 HD
BRANCH  25  27
ATOM     27  C   UNL     1       1.825   6.374  20.311  0.00  0.00    +0.000 C 
BRANCH  27  30
ATOM     28  C   UNL     1       2.778   4.912  18.178  0.00  0.00    +0.000 C 
ATOM     29  C   UNL     1       1.747   3.784  18.158  0.00  0.00    +0.000 C 
ATOM     30  C   UNL     1       2.749   5.949  19.083  0.00  0.00    +0.000 C 
BRANCH  28  31
ATOM     31  C   UNL     1       3.893   4.773  17.053  0.00  0.00    +0.000 C 
BRANCH  31  32
ATOM     32  C   UNL     1       5.397   4.906  17.461  0.00  0.00    +0.000 C 
BRANCH  32  36
ATOM     33  C   UNL     1       7.822   8.022  17.613  0.00  0.00    +0.000 C 
ATOM     34  C   UNL     1       7.163   6.697  17.914  0.00  0.00    +0.000 C 
ATOM     35  C   UNL     1       7.766   5.914  19.052  0.00  0.00    +0.000 C 
ATOM     36  C   UNL     1       6.092   6.247  17.215  0.00  0.00    +0.000 C 
ENDBRANCH  32  36
ENDBRANCH  31  32
ENDBRANCH  28  31
ENDBRANCH  27  30
ENDBRANCH  25  27
ENDBRANCH   1  25
BRANCH  10  37
ATOM     37  O   UNL     1       0.545  13.829  22.477  0.00  0.00    +0.000 OA
ATOM     38  H   UNL     1       0.416  14.076  23.408  0.00  0.00    +0.000 HD
ENDBRANCH  10  37
TORSDOF 7
ENDMDL
MODEL 2
REMARK VINA RESULT:      -9.2      1.369      1.951
REMARK  Name = 
REMARK  11 active torsions:
REMARK  status: ('A' for Active; 'I' for Inactive)
REMARK    1  A    between atoms: C_1  and  C_2
REMARK    2  A    between atoms: C_2  and  C_3
REMARK    3  A    between atoms: C_4  and  C_5
REMARK    4  A    between atoms: C_5  and  C_6
REMARK    5  A    between atoms: C_6  and  C_7
REMARK    6  A    between atoms: C_7  and  C_8
REMARK    7  A    between atoms: C_9  and  C_10
REMARK    8  A    between atoms: C_10  and  N_11
REMARK    9  A    between atoms: N_11  and  C_12
REMARK   10  A    between atoms: C_18  and  C_19
REMARK   11  A    between atoms: C_21  and  O_22
REMARK                            x       y       z     vdW  Elec       q    Type
REMARK                         _______ _______ _______ _____ _____    ______ ____
ROOT
ATOM      1  C   UNL     1       0.855   8.820  21.548  0.00  0.00    +0.000 C 
ATOM      2  C   UNL     1       0.457  10.170  21.361  0.00  0.00    +0.000 C 
ATOM      3  C   UNL     1       0.354   9.657  19.898  0.00  0.00    +0.000 C 
ATOM      4  O   UNL     1       1.283   9.363  19.145  0.00  0.00    +0.000 OA
ATOM      5  C   UNL     1      -0.947   9.973  19.316  0.00  0.00    +0.000 C 
ATOM      6  C   UNL     1      -0.368  11.221  18.672  0.00  0.00    +0.000 C 
ATOM      7  C   UNL     1      -0.713  12.326  19.614  0.00  0.00    +0.000 C 
ATOM      8  C   UNL     1      -0.362  13.586  18.735  0.00  0.00    +0.000 C 
ATOM      9  C   UNL     1      -0.019  11.831  21.035  0.00  0.00    +0.000 C 
ATOM     10  C   UNL     1      -0.350  12.801  21.970  0.00  0.00    +0.000 C 
ATOM     11  C   UNL     1      -1.774  13.597  21.872  0.00  0.00    +0.000 C 
ATOM     12  O   UNL     1      -2.043  14.563  22.580  0.00  0.00    +0.000 OA
ATOM     13  C   UNL     1      -2.778  13.161  20.848  0.00  0.00    +0.000 A 
ATOM     14  C   UNL     1      -4.192  13.416  20.840  0.00  0.00    +0.000 A 
ATOM     15  C   UNL     1      -5.016  12.785  19.863  0.00  0.00    +0.000 A 
ATOM     16  C   UNL     1      -4.407  12.000  18.899  0.00  0.00    +0.000 A 
ATOM     17  C   UNL     1      -3.046  11.964  18.785  0.00  0.00    +0.000 A 
ATOM     18  C   UNL     1      -2.221  12.481  19.777  0.00  0.00    +0.000 A 
ATOM     19  C   UNL     1      -5.145  11.077  18.026  0.00  0.00    +0.000 C 
ATOM     20  O   UNL     1      -4.613  10.457  17.117  0.00  0.00    +0.000 OA
ATOM     21  C   UNL     1      -6.558  10.869  18.386  0.00  0.00    +0.000 C 
ATOM     22  C   UNL     1      -7.127  12.064  18.605  0.00  0.00    +0.000 C 
ATOM     23  C   UNL     1      -6.510  12.860  19.732  0.00  0.00    +0.000 C 
ATOM     24  O   UNL     1      -7.223  13.505  20.484  0.00  0.00    +0.000 OA
ENDROOT
BRANCH   1  25
ATOM     25  N   UNL     1       1.524   7.638  20.798  0.00  0.00    +0.000 N 
ATOM     26  H   UNL     1       1.440   7.717  19.784  0.00  0.00    +0.000 HD
BRANCH  25  27
ATOM     27  C   UNL     1       2.208   6.289  21.124  0.00  0.00    +0.000 C 
BRANCH  27  30
ATOM     28  C   UNL     1       1.403   3.798  20.263  0.00  0.00    +0.000 C 
ATOM     29  C   UNL     1       1.535   3.019  21.573  0.00  0.00    +0.000 C 
ATOM     30  C   UNL     1       1.688   5.139  20.148  0.00  0.00    +0.000 C 
BRANCH  28  31
ATOM     31  C   UNL     1       0.907   2.908  19.042  0.00  0.00    +0.000 C 
BRANCH  31  32
ATOM     32  C   UNL     1       1.970   2.301  18.071  0.00  0.00    +0.000 C 
BRANCH  32  36
ATOM     33  C   UNL     1       4.714   4.698  16.539  0.00  0.00    +0.000 C 
ATOM     34  C   UNL     1       3.976   3.768  17.474  0.00  0.00    +0.000 C 
ATOM     35  C   UNL     1       4.682   3.452  18.767  0.00  0.00    +0.000 C 
ATOM     36  C   UNL     1       2.755   3.261  17.174  0.00  0.00    +0.000 C 
ENDBRANCH  32  36
ENDBRANCH  31  32
ENDBRANCH  28  31
ENDBRANCH  27  30
ENDBRANCH  25  27
ENDBRANCH   1  25
BRANCH  10  37
ATOM     37  O   UNL     1       0.629  13.757  22.334  0.00  0.00    +0.000 OA
ATOM     38  H   UNL     1       0.287  14.398  22.979  0.00  0.00    +0.000 HD
ENDBRANCH  10  37
TORSDOF 7
ENDMDL
MODEL 3
REMARK VINA RESULT:      -9.1      0.980      1.147
REMARK  Name = 
REMARK  11 active torsions:
REMARK  status: ('A' for Active; 'I' for Inactive)
REMARK    1  A    between atoms: C_1  and  C_2
REMARK    2  A    between atoms: C_2  and  C_3
REMARK    3  A    between atoms: C_4  and  C_5
REMARK    4  A    between atoms: C_5  and  C_6
REMARK    5  A    between atoms: C_6  and  C_7
REMARK    6  A    between atoms: C_7  and  C_8
REMARK    7  A    between atoms: C_9  and  C_10
REMARK    8  A    between atoms: C_10  and  N_11
REMARK    9  A    between atoms: N_11  and  C_12
REMARK   10  A    between atoms: C_18  and  C_19
REMARK   11  A    between atoms: C_21  and  O_22
REMARK                            x       y       z     vdW  Elec       q    Type
REMARK                         _______ _______ _______ _____ _____    ______ ____
ROOT
ATOM      1  C   UNL     1       1.020   8.978  21.642  0.00  0.00    +0.000 C 
ATOM      2  C   UNL     1       0.590  10.313  21.420  0.00  0.00    +0.000 C 
ATOM      3  C   UNL     1       0.489   9.756  19.973  0.00  0.00    +0.000 C 
ATOM      4  O   UNL     1       1.419   9.462  19.221  0.00  0.00    +0.000 OA
ATOM      5  C   UNL     1      -0.824  10.026  19.393  0.00  0.00    +0.000 C 
ATOM      6  C   UNL     1      -0.278  11.268  18.709  0.00  0.00    +0.000 C 
ATOM      7  C   UNL     1      -0.642  12.391  19.622  0.00  0.00    +0.000 C 
ATOM      8  C   UNL     1      -0.326  13.633  18.705  0.00  0.00    +0.000 C 
ATOM      9  C   UNL     1       0.074  11.953  21.051  0.00  0.00    +0.000 C 
ATOM     10  C   UNL     1      -0.273  12.941  21.960  0.00  0.00    +0.000 C 
ATOM     11  C   UNL     1      -1.716  13.701  21.851  0.00  0.00    +0.000 C 
ATOM     12  O   UNL     1      -2.002  14.681  22.534  0.00  0.00    +0.000 OA
ATOM     13  C   UNL     1      -2.717  13.214  20.848  0.00  0.00    +0.000 A 
ATOM     14  C   UNL     1      -4.136  13.436  20.844  0.00  0.00    +0.000 A 
ATOM     15  C   UNL     1      -4.952  12.759  19.892  0.00  0.00    +0.000 A 
ATOM     16  C   UNL     1      -4.332  11.960  18.945  0.00  0.00    +0.000 A 
ATOM     17  C   UNL     1      -2.971  11.952  18.822  0.00  0.00    +0.000 A 
ATOM     18  C   UNL     1      -2.152  12.516  19.792  0.00  0.00    +0.000 A 
ATOM     19  C   UNL     1      -5.055  10.997  18.105  0.00  0.00    +0.000 C 
ATOM     20  O   UNL     1      -4.516  10.363  17.210  0.00  0.00    +0.000 OA
ATOM     21  C   UNL     1      -6.460  10.767  18.482  0.00  0.00    +0.000 C 
ATOM     22  C   UNL     1      -7.055  11.954  18.671  0.00  0.00    +0.000 C 
ATOM     23  C   UNL     1      -6.448  12.796  19.771  0.00  0.00    +0.000 C 
ATOM     24  O   UNL     1      -7.170  13.445  20.509  0.00  0.00    +0.000 OA
ENDROOT
BRANCH   1  25
ATOM     25  N   UNL     1       1.711   7.791  20.920  0.00  0.00    +0.000 N 
ATOM     26  H   UNL     1       2.427   8.095  20.260  0.00  0.00    +0.000 HD
BRANCH  25  27
ATOM     27  C   UNL     1       1.575   6.253  20.813  0.00  0.00    +0.000 C 
BRANCH  27  30
ATOM     28  C   UNL     1       2.213   4.572  18.725  0.00  0.00    +0.000 C 
ATOM     29  C   UNL     1       1.258   3.416  19.024  0.00  0.00    +0.000 C 
ATOM     30  C   UNL     1       2.289   5.711  19.494  0.00  0.00    +0.000 C 
BRANCH  28  31
ATOM     31  C   UNL     1       3.117   4.332  17.439  0.00  0.00    +0.000 C 
BRANCH  31  32
ATOM     32  C   UNL     1       4.394   5.211  17.239  0.00  0.00    +0.000 C 
BRANCH  32  36
ATOM     33  C   UNL     1       7.074   4.771  14.368  0.00  0.00    +0.000 C 
ATOM     34  C   UNL     1       6.424   4.846  15.730  0.00  0.00    +0.000 C 
ATOM     35  C   UNL     1       7.336   4.583  16.901  0.00  0.00    +0.000 C 
ATOM     36  C   UNL     1       5.110   5.141  15.889  0.00  0.00    +0.000 C 
ENDBRANCH  32  36
ENDBRANCH  31  32
ENDBRANCH  28  31
ENDBRANCH  27  30
ENDBRANCH  25  27
ENDBRANCH   1  25
BRANCH  10  37
ATOM     37  O   UNL     1       0.687  13.929  22.289  0.00  0.00    +0.000 OA
ATOM     38  H   UNL     1       0.521  14.317  23.165  0.00  0.00    +0.000 HD
ENDBRANCH  10  37
TORSDOF 7
ENDMDL
MODEL 4
REMARK VINA RESULT:      -9.1      1.394      2.765
REMARK  Name = 
REMARK  11 active torsions:
REMARK  status: ('A' for Active; 'I' for Inactive)
REMARK    1  A    between atoms: C_1  and  C_2
REMARK    2  A    between atoms: C_2  and  C_3
REMARK    3  A    between atoms: C_4  and  C_5
REMARK    4  A    between atoms: C_5  and  C_6
REMARK    5  A    between atoms: C_6  and  C_7
REMARK    6  A    between atoms: C_7  and  C_8
REMARK    7  A    between atoms: C_9  and  C_10
REMARK    8  A    between atoms: C_10  and  N_11
REMARK    9  A    between atoms: N_11  and  C_12
REMARK   10  A    between atoms: C_18  and  C_19
REMARK   11  A    between atoms: C_21  and  O_22
REMARK                            x       y       z     vdW  Elec       q    Type
REMARK                         _______ _______ _______ _____ _____    ______ ____
ROOT
ATOM      1  C   UNL     1       1.188   8.841  20.102  0.00  0.00    +0.000 C 
ATOM      2  C   UNL     1       0.677  10.141  20.359  0.00  0.00    +0.000 C 
ATOM      3  C   UNL     1       0.345  10.017  18.847  0.00  0.00    +0.000 C 
ATOM      4  O   UNL     1       1.139  10.035  17.905  0.00  0.00    +0.000 OA
ATOM      5  C   UNL     1      -1.059  10.329  18.587  0.00  0.00    +0.000 C 
ATOM      6  C   UNL     1      -0.686  11.757  18.228  0.00  0.00    +0.000 C 
ATOM      7  C   UNL     1      -0.925  12.534  19.480  0.00  0.00    +0.000 C 
ATOM      8  C   UNL     1      -0.820  14.010  18.938  0.00  0.00    +0.000 C 
ATOM      9  C   UNL     1       0.045  11.767  20.582  0.00  0.00    +0.000 C 
ATOM     10  C   UNL     1      -0.173  12.417  21.787  0.00  0.00    +0.000 C 
ATOM     11  C   UNL     1      -1.639  13.048  22.138  0.00  0.00    +0.000 C 
ATOM     12  O   UNL     1      -1.836  13.762  23.118  0.00  0.00    +0.000 OA
ATOM     13  C   UNL     1      -2.782  12.786  21.204  0.00  0.00    +0.000 A 
ATOM     14  C   UNL     1      -4.187  12.876  21.489  0.00  0.00    +0.000 A 
ATOM     15  C   UNL     1      -5.132  12.434  20.519  0.00  0.00    +0.000 A 
ATOM     16  C   UNL     1      -4.659  11.998  19.292  0.00  0.00    +0.000 A 
ATOM     17  C   UNL     1      -3.341  12.144  18.960  0.00  0.00    +0.000 A 
ATOM     18  C   UNL     1      -2.385  12.473  19.914  0.00  0.00    +0.000 A 
ATOM     19  C   UNL     1      -5.482  11.259  18.327  0.00  0.00    +0.000 C 
ATOM     20  O   UNL     1      -5.085  10.959  17.210  0.00  0.00    +0.000 OA
ATOM     21  C   UNL     1      -6.790  10.809  18.833  0.00  0.00    +0.000 C 
ATOM     22  C   UNL     1      -7.386  11.836  19.459  0.00  0.00    +0.000 C 
ATOM     23  C   UNL     1      -6.626  12.375  20.650  0.00  0.00    +0.000 C 
ATOM     24  O   UNL     1      -7.231  12.719  21.653  0.00  0.00    +0.000 OA
ENDROOT
BRANCH   1  25
ATOM     25  N   UNL     1       1.785   7.977  18.961  0.00  0.00    +0.000 N 
ATOM     26  H   UNL     1       1.069   7.584  18.349  0.00  0.00    +0.000 HD
BRANCH  25  27
ATOM     27  C   UNL     1       3.161   7.428  18.511  0.00  0.00    +0.000 C 
BRANCH  27  30
ATOM     28  C   UNL     1       3.766   4.792  17.986  0.00  0.00    +0.000 C 
ATOM     29  C   UNL     1       5.090   4.676  18.743  0.00  0.00    +0.000 C 
ATOM     30  C   UNL     1       3.020   5.947  17.937  0.00  0.00    +0.000 C 
BRANCH  28  31
ATOM     31  C   UNL     1       3.333   3.446  17.257  0.00  0.00    +0.000 C 
BRANCH  31  32
ATOM     32  C   UNL     1       2.211   2.568  17.900  0.00  0.00    +0.000 C 
BRANCH  32  36
ATOM     33  C   UNL     1       1.845   2.480  21.834  0.00  0.00    +0.000 C 
ATOM     34  C   UNL     1       1.703   2.883  20.385  0.00  0.00    +0.000 C 
ATOM     35  C   UNL     1       0.823   4.078  20.126  0.00  0.00    +0.000 C 
ATOM     36  C   UNL     1       2.334   2.219  19.385  0.00  0.00    +0.000 C 
ENDBRANCH  32  36
ENDBRANCH  31  32
ENDBRANCH  28  31
ENDBRANCH  27  30
ENDBRANCH  25  27
ENDBRANCH   1  25
BRANCH  10  37
ATOM     37  O   UNL     1       0.793  13.348  22.242  0.00  0.00    +0.000 OA
ATOM     38  H   UNL     1       0.664  13.575  23.178  0.00  0.00    +0.000 HD
ENDBRANCH  10  37
TORSDOF 7
ENDMDL
MODEL 5
REMARK VINA RESULT:      -9.0      1.291      1.692
REMARK  Name = 
REMARK  11 active torsions:
REMARK  status: ('A' for Active; 'I' for Inactive)
REMARK    1  A    between atoms: C_1  and  C_2
REMARK    2  A    between atoms: C_2  and  C_3
REMARK    3  A    between atoms: C_4  and  C_5
REMARK    4  A    between atoms: C_5  and  C_6
REMARK    5  A    between atoms: C_6  and  C_7
REMARK    6  A    between atoms: C_7  and  C_8
REMARK    7  A    between atoms: C_9  and  C_10
REMARK    8  A    between atoms: C_10  and  N_11
REMARK    9  A    between atoms: N_11  and  C_12
REMARK   10  A    between atoms: C_18  and  C_19
REMARK   11  A    between atoms: C_21  and  O_22
REMARK                            x       y       z     vdW  Elec       q    Type
REMARK                         _______ _______ _______ _____ _____    ______ ____
ROOT
ATOM      1  C   UNL     1       0.785   9.017  21.630  0.00  0.00    +0.000 C 
ATOM      2  C   UNL     1       0.226  10.322  21.675  0.00  0.00    +0.000 C 
ATOM      3  C   UNL     1       0.283  10.109  20.137  0.00  0.00    +0.000 C 
ATOM      4  O   UNL     1       1.287  10.084  19.425  0.00  0.00    +0.000 OA
ATOM      5  C   UNL     1      -1.011  10.385  19.517  0.00  0.00    +0.000 C 
ATOM      6  C   UNL     1      -0.560  11.796  19.180  0.00  0.00    +0.000 C 
ATOM      7  C   UNL     1      -1.105  12.638  20.286  0.00  0.00    +0.000 C 
ATOM      8  C   UNL     1      -0.867  14.083  19.702  0.00  0.00    +0.000 C 
ATOM      9  C   UNL     1      -0.441  11.949  21.638  0.00  0.00    +0.000 C 
ATOM     10  C   UNL     1      -0.954  12.662  22.711  0.00  0.00    +0.000 C 
ATOM     11  C   UNL     1      -2.461  13.291  22.647  0.00  0.00    +0.000 C 
ATOM     12  O   UNL     1      -2.897  14.056  23.503  0.00  0.00    +0.000 OA
ATOM     13  C   UNL     1      -3.334  12.961  21.474  0.00  0.00    +0.000 A 
ATOM     14  C   UNL     1      -4.765  13.047  21.393  0.00  0.00    +0.000 A 
ATOM     15  C   UNL     1      -5.438  12.537  20.245  0.00  0.00    +0.000 A 
ATOM     16  C   UNL     1      -4.672  12.040  19.203  0.00  0.00    +0.000 A 
ATOM     17  C   UNL     1      -3.314  12.186  19.203  0.00  0.00    +0.000 A 
ATOM     18  C   UNL     1      -2.627  12.582  20.344  0.00  0.00    +0.000 A 
ATOM     19  C   UNL     1      -5.229  11.235  18.107  0.00  0.00    +0.000 C 
ATOM     20  O   UNL     1      -4.565  10.879  17.144  0.00  0.00    +0.000 OA
ATOM     21  C   UNL     1      -6.622  10.797  18.295  0.00  0.00    +0.000 C 
ATOM     22  C   UNL     1      -7.354  11.848  18.692  0.00  0.00    +0.000 C 
ATOM     23  C   UNL     1      -6.917  12.464  20.002  0.00  0.00    +0.000 C 
ATOM     24  O   UNL     1      -7.754  12.855  20.799  0.00  0.00    +0.000 OA
ENDROOT
BRANCH   1  25
ATOM     25  N   UNL     1       1.648   8.098  20.726  0.00  0.00    +0.000 N 
ATOM     26  H   UNL     1       2.239   8.624  20.082  0.00  0.00    +0.000 HD
BRANCH  25  27
ATOM     27  C   UNL     1       1.818   6.591  20.420  0.00  0.00    +0.000 C 
BRANCH  27  30
ATOM     28  C   UNL     1       2.975   5.532  18.154  0.00  0.00    +0.000 C 
ATOM     29  C   UNL     1       1.914   4.495  17.784  0.00  0.00    +0.000 C 
ATOM     30  C   UNL     1       2.871   6.366  19.244  0.00  0.00    +0.000 C 
BRANCH  28  31
ATOM     31  C   UNL     1       4.215   5.554  17.159  0.00  0.00    +0.000 C 
BRANCH  31  32
ATOM     32  C   UNL     1       4.943   4.210  16.831  0.00  0.00    +0.000 C 
BRANCH  32  36
ATOM     33  C   UNL     1       6.116   3.664  13.096  0.00  0.00    +0.000 C 
ATOM     34  C   UNL     1       6.059   4.128  14.533  0.00  0.00    +0.000 C 
ATOM     35  C   UNL     1       7.200   5.006  14.977  0.00  0.00    +0.000 C 
ATOM     36  C   UNL     1       5.043   3.787  15.363  0.00  0.00    +0.000 C 
ENDBRANCH  32  36
ENDBRANCH  31  32
ENDBRANCH  28  31
ENDBRANCH  27  30
ENDBRANCH  25  27
ENDBRANCH   1  25
BRANCH  10  37
ATOM     37  O   UNL     1      -0.132  13.631  23.338  0.00  0.00    +0.000 OA
ATOM     38  H   UNL     1       0.762  13.647  22.958  0.00  0.00    +0.000 HD
ENDBRANCH  10  37
TORSDOF 7
ENDMDL
MODEL 6
REMARK VINA RESULT:      -8.9      1.329      2.172
REMARK  Name = 
REMARK  11 active torsions:
REMARK  status: ('A' for Active; 'I' for Inactive)
REMARK    1  A    between atoms: C_1  and  C_2
REMARK    2  A    between atoms: C_2  and  C_3
REMARK    3  A    between atoms: C_4  and  C_5
REMARK    4  A    between atoms: C_5  and  C_6
REMARK    5  A    between atoms: C_6  and  C_7
REMARK    6  A    between atoms: C_7  and  C_8
REMARK    7  A    between atoms: C_9  and  C_10
REMARK    8  A    between atoms: C_10  and  N_11
REMARK    9  A    between atoms: N_11  and  C_12
REMARK   10  A    between atoms: C_18  and  C_19
REMARK   11  A    between atoms: C_21  and  O_22
REMARK                            x       y       z     vdW  Elec       q    Type
REMARK                         _______ _______ _______ _____ _____    ______ ____
ROOT
ATOM      1  C   UNL     1       0.638   9.123  21.932  0.00  0.00    +0.000 C 
ATOM      2  C   UNL     1       0.055  10.417  21.981  0.00  0.00    +0.000 C 
ATOM      3  C   UNL     1       0.190  10.245  20.444  0.00  0.00    +0.000 C 
ATOM      4  O   UNL     1       1.228  10.255  19.780  0.00  0.00    +0.000 OA
ATOM      5  C   UNL     1      -1.077  10.516  19.768  0.00  0.00    +0.000 C 
ATOM      6  C   UNL     1      -0.634  11.943  19.489  0.00  0.00    +0.000 C 
ATOM      7  C   UNL     1      -1.246  12.747  20.587  0.00  0.00    +0.000 C 
ATOM      8  C   UNL     1      -1.005  14.211  20.052  0.00  0.00    +0.000 C 
ATOM      9  C   UNL     1      -0.637  12.034  21.952  0.00  0.00    +0.000 C 
ATOM     10  C   UNL     1      -1.213  12.712  23.016  0.00  0.00    +0.000 C 
ATOM     11  C   UNL     1      -2.726  13.318  22.894  0.00  0.00    +0.000 C 
ATOM     12  O   UNL     1      -3.216  14.054  23.747  0.00  0.00    +0.000 OA
ATOM     13  C   UNL     1      -3.535  13.004  21.673  0.00  0.00    +0.000 A 
ATOM     14  C   UNL     1      -4.962  13.070  21.524  0.00  0.00    +0.000 A 
ATOM     15  C   UNL     1      -5.570  12.579  20.332  0.00  0.00    +0.000 A 
ATOM     16  C   UNL     1      -4.746  12.121  19.316  0.00  0.00    +0.000 A 
ATOM     17  C   UNL     1      -3.392  12.288  19.386  0.00  0.00    +0.000 A 
ATOM     18  C   UNL     1      -2.768  12.665  20.569  0.00  0.00    +0.000 A 
ATOM     19  C   UNL     1      -5.235  11.336  18.175  0.00  0.00    +0.000 C 
ATOM     20  O   UNL     1      -4.520  11.015  17.237  0.00  0.00    +0.000 OA
ATOM     21  C   UNL     1      -6.628  10.871  18.284  0.00  0.00    +0.000 C 
ATOM     22  C   UNL     1      -7.397  11.900  18.670  0.00  0.00    +0.000 C 
ATOM     23  C   UNL     1      -7.034  12.489  20.015  0.00  0.00    +0.000 C 
ATOM     24  O   UNL     1      -7.915  12.846  20.780  0.00  0.00    +0.000 OA
ENDROOT
BRANCH   1  25
ATOM     25  N   UNL     1       1.559   8.242  21.048  0.00  0.00    +0.000 N 
ATOM     26  H   UNL     1       2.271   8.785  20.558  0.00  0.00    +0.000 HD
BRANCH  25  27
ATOM     27  C   UNL     1       1.671   6.769  20.587  0.00  0.00    +0.000 C 
BRANCH  27  30
ATOM     28  C   UNL     1       3.033   7.166  18.226  0.00  0.00    +0.000 C 
ATOM     29  C   UNL     1       2.146   8.240  17.594  0.00  0.00    +0.000 C 
ATOM     30  C   UNL     1       2.787   6.610  19.460  0.00  0.00    +0.000 C 
BRANCH  28  31
ATOM     31  C   UNL     1       4.271   6.751  17.317  0.00  0.00    +0.000 C 
BRANCH  31  32
ATOM     32  C   UNL     1       4.836   5.298  17.432  0.00  0.00    +0.000 C 
BRANCH  32  36
ATOM     33  C   UNL     1       2.635   2.036  17.800  0.00  0.00    +0.000 C 
ATOM     34  C   UNL     1       3.610   3.153  18.088  0.00  0.00    +0.000 C 
ATOM     35  C   UNL     1       4.280   3.100  19.437  0.00  0.00    +0.000 C 
ATOM     36  C   UNL     1       3.875   4.132  17.188  0.00  0.00    +0.000 C 
ENDBRANCH  32  36
ENDBRANCH  31  32
ENDBRANCH  28  31
ENDBRANCH  27  30
ENDBRANCH  25  27
ENDBRANCH   1  25
BRANCH  10  37
ATOM     37  O   UNL     1      -0.439  13.677  23.706  0.00  0.00    +0.000 OA
ATOM     38  H   UNL     1       0.370  13.906  23.221  0.00  0.00    +0.000 HD
ENDBRANCH  10  37
TORSDOF 7
ENDMDL
MODEL 7
REMARK VINA RESULT:      -8.6      1.422      2.666
REMARK  Name = 
REMARK  11 active torsions:
REMARK  status: ('A' for Active; 'I' for Inactive)
REMARK    1  A    between atoms: C_1  and  C_2
REMARK    2  A    between atoms: C_2  and  C_3
REMARK    3  A    between atoms: C_4  and  C_5
REMARK    4  A    between atoms: C_5  and  C_6
REMARK    5  A    between atoms: C_6  and  C_7
REMARK    6  A    between atoms: C_7  and  C_8
REMARK    7  A    between atoms: C_9  and  C_10
REMARK    8  A    between atoms: C_10  and  N_11
REMARK    9  A    between atoms: N_11  and  C_12
REMARK   10  A    between atoms: C_18  and  C_19
REMARK   11  A    between atoms: C_21  and  O_22
REMARK                            x       y       z     vdW  Elec       q    Type
REMARK                         _______ _______ _______ _____ _____    ______ ____
ROOT
ATOM      1  C   UNL     1       1.103   9.230  20.285  0.00  0.00    +0.000 C 
ATOM      2  C   UNL     1       0.458  10.424  20.703  0.00  0.00    +0.000 C 
ATOM      3  C   UNL     1       0.352  10.589  19.162  0.00  0.00    +0.000 C 
ATOM      4  O   UNL     1       1.266  10.835  18.373  0.00  0.00    +0.000 OA
ATOM      5  C   UNL     1      -1.022  10.874  18.754  0.00  0.00    +0.000 C 
ATOM      6  C   UNL     1      -0.719  12.362  18.735  0.00  0.00    +0.000 C 
ATOM      7  C   UNL     1      -1.193  12.859  20.060  0.00  0.00    +0.000 C 
ATOM      8  C   UNL     1      -1.132  14.418  19.831  0.00  0.00    +0.000 C 
ATOM      9  C   UNL     1      -0.328  11.938  21.131  0.00  0.00    +0.000 C 
ATOM     10  C   UNL     1      -0.764  12.322  22.390  0.00  0.00    +0.000 C 
ATOM     11  C   UNL     1      -2.310  12.794  22.626  0.00  0.00    +0.000 C 
ATOM     12  O   UNL     1      -2.700  13.287  23.682  0.00  0.00    +0.000 OA
ATOM     13  C   UNL     1      -3.287  12.666  21.496  0.00  0.00    +0.000 A 
ATOM     14  C   UNL     1      -4.720  12.625  21.574  0.00  0.00    +0.000 A 
ATOM     15  C   UNL     1      -5.482  12.337  20.404  0.00  0.00    +0.000 A 
ATOM     16  C   UNL     1      -4.808  12.181  19.205  0.00  0.00    +0.000 A 
ATOM     17  C   UNL     1      -3.473  12.458  19.112  0.00  0.00    +0.000 A 
ATOM     18  C   UNL     1      -2.689  12.638  20.245  0.00  0.00    +0.000 A 
ATOM     19  C   UNL     1      -5.426  11.608  18.002  0.00  0.00    +0.000 C 
ATOM     20  O   UNL     1      -4.854  11.558  16.923  0.00  0.00    +0.000 OA
ATOM     21  C   UNL     1      -6.751  11.000  18.207  0.00  0.00    +0.000 C 
ATOM     22  C   UNL     1      -7.509  11.848  18.918  0.00  0.00    +0.000 C 
ATOM     23  C   UNL     1      -6.970  12.177  20.292  0.00  0.00    +0.000 C 
ATOM     24  O   UNL     1      -7.735  12.282  21.237  0.00  0.00    +0.000 OA
ENDROOT
BRANCH   1  25
ATOM     25  N   UNL     1       1.921   8.643  19.105  0.00  0.00    +0.000 N 
ATOM     26  H   UNL     1       2.568   9.321  18.699  0.00  0.00    +0.000 HD
BRANCH  25  27
ATOM     27  C   UNL     1       1.988   7.346  18.264  0.00  0.00    +0.000 C 
BRANCH  27  30
ATOM     28  C   UNL     1       4.097   5.576  18.369  0.00  0.00    +0.000 C 
ATOM     29  C   UNL     1       4.500   5.568  16.894  0.00  0.00    +0.000 C 
ATOM     30  C   UNL     1       3.062   6.333  18.867  0.00  0.00    +0.000 C 
BRANCH  28  31
ATOM     31  C   UNL     1       4.988   4.620  19.276  0.00  0.00    +0.000 C 
BRANCH  31  32
ATOM     32  C   UNL     1       4.492   3.163  19.550  0.00  0.00    +0.000 C 
BRANCH  32  36
ATOM     33  C   UNL     1       0.692   2.341  18.837  0.00  0.00    +0.000 C 
ATOM     34  C   UNL     1       1.966   2.772  19.526  0.00  0.00    +0.000 C 
ATOM     35  C   UNL     1       1.807   3.252  20.946  0.00  0.00    +0.000 C 
ATOM     36  C   UNL     1       3.173   2.721  18.911  0.00  0.00    +0.000 C 
ENDBRANCH  32  36
ENDBRANCH  31  32
ENDBRANCH  28  31
ENDBRANCH  27  30
ENDBRANCH  25  27
ENDBRANCH   1  25
BRANCH  10  37
ATOM     37  O   UNL     1       0.051  13.192  23.156  0.00  0.00    +0.000 OA
ATOM     38  H   UNL     1       0.679  13.682  22.601  0.00  0.00    +0.000 HD
ENDBRANCH  10  37
TORSDOF 7
ENDMDL
MODEL 8
REMARK VINA RESULT:      -8.6      1.886      2.562
REMARK  Name = 
REMARK  11 active torsions:
REMARK  status: ('A' for Active; 'I' for Inactive)
REMARK    1  A    between atoms: C_1  and  C_2
REMARK    2  A    between atoms: C_2  and  C_3
REMARK    3  A    between atoms: C_4  and  C_5
REMARK    4  A    between atoms: C_5  and  C_6
REMARK    5  A    between atoms: C_6  and  C_7
REMARK    6  A    between atoms: C_7  and  C_8
REMARK    7  A    between atoms: C_9  and  C_10
REMARK    8  A    between atoms: C_10  and  N_11
REMARK    9  A    between atoms: N_11  and  C_12
REMARK   10  A    between atoms: C_18  and  C_19
REMARK   11  A    between atoms: C_21  and  O_22
REMARK                            x       y       z     vdW  Elec       q    Type
REMARK                         _______ _______ _______ _____ _____    ______ ____
ROOT
ATOM      1  C   UNL     1       1.511   8.555  19.876  0.00  0.00    +0.000 C 
ATOM      2  C   UNL     1       1.042   9.882  20.063  0.00  0.00    +0.000 C 
ATOM      3  C   UNL     1       0.717   9.695  18.556  0.00  0.00    +0.000 C 
ATOM      4  O   UNL     1       1.519   9.640  17.622  0.00  0.00    +0.000 OA
ATOM      5  C   UNL     1      -0.673  10.040  18.268  0.00  0.00    +0.000 C 
ATOM      6  C   UNL     1      -0.250  11.435  17.842  0.00  0.00    +0.000 C 
ATOM      7  C   UNL     1      -0.473  12.280  19.052  0.00  0.00    +0.000 C 
ATOM      8  C   UNL     1      -0.314  13.724  18.439  0.00  0.00    +0.000 C 
ATOM      9  C   UNL     1       0.463  11.538  20.200  0.00  0.00    +0.000 C 
ATOM     10  C   UNL     1       0.257  12.253  21.370  0.00  0.00    +0.000 C 
ATOM     11  C   UNL     1      -1.190  12.949  21.675  0.00  0.00    +0.000 C 
ATOM     12  O   UNL     1      -1.371  13.717  22.616  0.00  0.00    +0.000 OA
ATOM     13  C   UNL     1      -2.333  12.679  20.744  0.00  0.00    +0.000 A 
ATOM     14  C   UNL     1      -3.737  12.830  21.011  0.00  0.00    +0.000 A 
ATOM     15  C   UNL     1      -4.689  12.371  20.055  0.00  0.00    +0.000 A 
ATOM     16  C   UNL     1      -4.220  11.860  18.856  0.00  0.00    +0.000 A 
ATOM     17  C   UNL     1      -2.896  11.946  18.529  0.00  0.00    +0.000 A 
ATOM     18  C   UNL     1      -1.937  12.290  19.475  0.00  0.00    +0.000 A 
ATOM     19  C   UNL     1      -5.061  11.101  17.920  0.00  0.00    +0.000 C 
ATOM     20  O   UNL     1      -4.665  10.733  16.824  0.00  0.00    +0.000 OA
ATOM     21  C   UNL     1      -6.387  10.721  18.435  0.00  0.00    +0.000 C 
ATOM     22  C   UNL     1      -6.952  11.796  19.004  0.00  0.00    +0.000 C 
ATOM     23  C   UNL     1      -6.185  12.368  20.175  0.00  0.00    +0.000 C 
ATOM     24  O   UNL     1      -6.786  12.781  21.153  0.00  0.00    +0.000 OA
ENDROOT
BRANCH   1  25
ATOM     25  N   UNL     1       2.088   7.616  18.784  0.00  0.00    +0.000 N 
ATOM     26  H   UNL     1       1.877   7.937  17.839  0.00  0.00    +0.000 HD
BRANCH  25  27
ATOM     27  C   UNL     1       2.814   6.253  18.684  0.00  0.00    +0.000 C 
BRANCH  27  30
ATOM     28  C   UNL     1       5.116   5.764  17.252  0.00  0.00    +0.000 C 
ATOM     29  C   UNL     1       5.912   4.987  18.301  0.00  0.00    +0.000 C 
ATOM     30  C   UNL     1       3.848   6.250  17.469  0.00  0.00    +0.000 C 
BRANCH  28  31
ATOM     31  C   UNL     1       5.898   5.962  15.881  0.00  0.00    +0.000 C 
BRANCH  31  32
ATOM     32  C   UNL     1       6.402   4.698  15.112  0.00  0.00    +0.000 C 
BRANCH  32  36
ATOM     33  C   UNL     1       4.838   3.143  11.832  0.00  0.00    +0.000 C 
ATOM     34  C   UNL     1       5.800   3.793  12.798  0.00  0.00    +0.000 C 
ATOM     35  C   UNL     1       7.155   4.137  12.234  0.00  0.00    +0.000 C 
ATOM     36  C   UNL     1       5.464   4.060  14.084  0.00  0.00    +0.000 C 
ENDBRANCH  32  36
ENDBRANCH  31  32
ENDBRANCH  28  31
ENDBRANCH  27  30
ENDBRANCH  25  27
ENDBRANCH   1  25
BRANCH  10  37
ATOM     37  O   UNL     1       1.250  13.174  21.787  0.00  0.00    +0.000 OA
ATOM     38  H   UNL     1       1.227  13.992  21.265  0.00  0.00    +0.000 HD
ENDBRANCH  10  37
TORSDOF 7
ENDMDL
MODEL 9
REMARK VINA RESULT:      -8.6      1.132      1.625
REMARK  Name = 
REMARK  11 active torsions:
REMARK  status: ('A' for Active; 'I' for Inactive)
REMARK    1  A    between atoms: C_1  and  C_2
REMARK    2  A    between atoms: C_2  and  C_3
REMARK    3  A    between atoms: C_4  and  C_5
REMARK    4  A    between atoms: C_5  and  C_6
REMARK    5  A    between atoms: C_6  and  C_7
REMARK    6  A    between atoms: C_7  and  C_8
REMARK    7  A    between atoms: C_9  and  C_10
REMARK    8  A    between atoms: C_10  and  N_11
REMARK    9  A    between atoms: N_11  and  C_12
REMARK   10  A    between atoms: C_18  and  C_19
REMARK   11  A    between atoms: C_21  and  O_22
REMARK                            x       y       z     vdW  Elec       q    Type
REMARK                         _______ _______ _______ _____ _____    ______ ____
ROOT
ATOM      1  C   UNL     1       1.084   9.074  20.511  0.00  0.00    +0.000 C 
ATOM      2  C   UNL     1       0.459  10.305  20.845  0.00  0.00    +0.000 C 
ATOM      3  C   UNL     1       0.386  10.382  19.296  0.00  0.00    +0.000 C 
ATOM      4  O   UNL     1       1.321  10.562  18.514  0.00  0.00    +0.000 OA
ATOM      5  C   UNL     1      -0.972  10.672  18.844  0.00  0.00    +0.000 C 
ATOM      6  C   UNL     1      -0.635  12.150  18.745  0.00  0.00    +0.000 C 
ATOM      7  C   UNL     1      -1.123  12.733  20.029  0.00  0.00    +0.000 C 
ATOM      8  C   UNL     1      -1.022  14.274  19.712  0.00  0.00    +0.000 C 
ATOM      9  C   UNL     1      -0.301  11.858  21.170  0.00  0.00    +0.000 C 
ATOM     10  C   UNL     1      -0.752  12.323  22.395  0.00  0.00    +0.000 C 
ATOM     11  C   UNL     1      -2.292  12.842  22.571  0.00  0.00    +0.000 C 
ATOM     12  O   UNL     1      -2.691  13.403  23.588  0.00  0.00    +0.000 OA
ATOM     13  C   UNL     1      -3.249  12.669  21.430  0.00  0.00    +0.000 A 
ATOM     14  C   UNL     1      -4.684  12.664  21.480  0.00  0.00    +0.000 A 
ATOM     15  C   UNL     1      -5.429  12.326  20.313  0.00  0.00    +0.000 A 
ATOM     16  C   UNL     1      -4.735  12.085  19.139  0.00  0.00    +0.000 A 
ATOM     17  C   UNL     1      -3.393  12.327  19.058  0.00  0.00    +0.000 A 
ATOM     18  C   UNL     1      -2.628  12.556  20.196  0.00  0.00    +0.000 A 
ATOM     19  C   UNL     1      -5.343  11.457  17.958  0.00  0.00    +0.000 C 
ATOM     20  O   UNL     1      -4.751  11.333  16.896  0.00  0.00    +0.000 OA
ATOM     21  C   UNL     1      -6.686  10.891  18.171  0.00  0.00    +0.000 C 
ATOM     22  C   UNL     1      -7.438  11.796  18.815  0.00  0.00    +0.000 C 
ATOM     23  C   UNL     1      -6.918  12.191  20.179  0.00  0.00    +0.000 C 
ATOM     24  O   UNL     1      -7.699  12.368  21.100  0.00  0.00    +0.000 OA
ENDROOT
BRANCH   1  25
ATOM     25  N   UNL     1       1.911   8.403  19.384  0.00  0.00    +0.000 N 
ATOM     26  H   UNL     1       2.541   9.055  18.916  0.00  0.00    +0.000 HD
BRANCH  25  27
ATOM     27  C   UNL     1       2.005   7.037  18.662  0.00  0.00    +0.000 C 
BRANCH  27  30
ATOM     28  C   UNL     1       3.976   5.118  18.820  0.00  0.00    +0.000 C 
ATOM     29  C   UNL     1       3.147   3.871  18.509  0.00  0.00    +0.000 C 
ATOM     30  C   UNL     1       3.448   6.388  18.860  0.00  0.00    +0.000 C 
BRANCH  28  31
ATOM     31  C   UNL     1       5.510   4.806  19.098  0.00  0.00    +0.000 C 
BRANCH  31  32
ATOM     32  C   UNL     1       6.561   5.149  17.992  0.00  0.00    +0.000 C 
BRANCH  32  36
ATOM     33  C   UNL     1       5.834   4.164  14.235  0.00  0.00    +0.000 C 
ATOM     34  C   UNL     1       5.886   4.928  15.537  0.00  0.00    +0.000 C 
ATOM     35  C   UNL     1       5.248   6.293  15.516  0.00  0.00    +0.000 C 
ATOM     36  C   UNL     1       6.460   4.415  16.653  0.00  0.00    +0.000 C 
ENDBRANCH  32  36
ENDBRANCH  31  32
ENDBRANCH  28  31
ENDBRANCH  27  30
ENDBRANCH  25  27
ENDBRANCH   1  25
BRANCH  10  37
ATOM     37  O   UNL     1       0.067  13.218  23.127  0.00  0.00    +0.000 OA
ATOM     38  H   UNL     1      -0.456  13.907  23.570  0.00  0.00    +0.000 HD
ENDBRANCH  10  37
TORSDOF 7
ENDMDL
