MODEL 1
REMARK VINA RESULT:      -9.1      0.000      0.000
REMARK  Name = 
REMARK  6 active torsions:
REMARK  status: ('A' for Active; 'I' for Inactive)
REMARK    1  A    between atoms: C_5  and  C_6
REMARK    2  A    between atoms: C_9  and  C_10
REMARK    3  A    between atoms: C_15  and  S_16
REMARK    4  A    between atoms: S_16  and  N_19
REMARK    5  A    between atoms: C_23  and  C_24
REMARK    6  A    between atoms: C_24  and  O_25
REMARK                            x       y       z     vdW  Elec       q    Type
REMARK                         _______ _______ _______ _____ _____    ______ ____
ROOT
ATOM      1  C   UNL     1       2.360   5.129  19.935  0.00  0.00    +0.000 A 
ATOM      2  C   UNL     1       1.204   4.442  20.424  0.00  0.00    +0.000 A 
ATOM      3  C   UNL     1       1.193   3.111  20.847  0.00  0.00    +0.000 A 
ATOM      4  C   UNL     1       2.349   2.364  20.762  0.00  0.00    +0.000 A 
ATOM      5  C   UNL     1       3.497   2.943  20.222  0.00  0.00    +0.000 A 
ATOM      6  C   UNL     1       3.528   4.301  19.806  0.00  0.00    +0.000 A 
ENDROOT
BRANCH   1  10
ATOM      7  C   UNL     1       1.305   9.410  19.178  0.00  0.00    +0.000 A 
ATOM      8  C   UNL     1       1.873   8.598  18.172  0.00  0.00    +0.000 A 
ATOM      9  C   UNL     1       2.252   7.235  18.388  0.00  0.00    +0.000 A 
ATOM     10  C   UNL     1       2.122   6.607  19.631  0.00  0.00    +0.000 A 
ATOM     11  C   UNL     1       1.599   7.460  20.643  0.00  0.00    +0.000 A 
ATOM     12  C   UNL     1       1.178   8.787  20.417  0.00  0.00    +0.000 A 
ATOM     13  F   UNL     1       0.627   9.448  21.450  0.00  0.00    +0.000 F 
BRANCH   7  18
ATOM     14  N   UNL     1      -0.384  14.730  18.422  0.00  0.00    +0.000 N 
ATOM     15  C   UNL     1       0.039  13.425  18.562  0.00  0.00    +0.000 A 
ATOM     16  N   UNL     1       1.351  13.184  18.586  0.00  0.00    +0.000 NA
ATOM     17  C   UNL     1       1.733  11.892  18.773  0.00  0.00    +0.000 A 
ATOM     18  C   UNL     1       0.875  10.811  18.938  0.00  0.00    +0.000 A 
ATOM     19  C   UNL     1      -0.450  11.202  18.841  0.00  0.00    +0.000 A 
ATOM     20  N   UNL     1      -0.891  12.473  18.654  0.00  0.00    +0.000 NA
ATOM     21  H   UNL     1       0.323  15.306  17.993  0.00  0.00    +0.000 HD
ATOM     22  H   UNL     1      -1.319  14.768  18.042  0.00  0.00    +0.000 HD
ENDBRANCH   7  18
ENDBRANCH   1  10
BRANCH   6  23
ATOM     23  S   UNL     1       5.043   4.810  18.963  0.00  0.00    +0.000 S 
ATOM     24  O   UNL     1       5.399   6.059  19.616  0.00  0.00    +0.000 OA
ATOM     25  O   UNL     1       5.942   3.688  18.930  0.00  0.00    +0.000 OA
BRANCH  23  26
ATOM     26  N   UNL     1       4.672   5.218  17.303  0.00  0.00    +0.000 NA
ATOM     27  C   UNL     1       4.414   4.060  16.382  0.00  0.00    +0.000 C 
ATOM     28  C   UNL     1       5.756   3.738  15.731  0.00  0.00    +0.000 C 
ATOM     29  C   UNL     1       6.543   5.037  15.727  0.00  0.00    +0.000 C 
ATOM     30  C   UNL     1       5.675   6.039  16.480  0.00  0.00    +0.000 C 
BRANCH  30  31
ATOM     31  C   UNL     1       6.446   7.144  17.194  0.00  0.00    +0.000 C 
BRANCH  31  32
ATOM     32  O   UNL     1       7.804   7.115  16.756  0.00  0.00    +0.000 OA
ATOM     33  H   UNL     1       8.269   7.804  17.267  0.00  0.00    +0.000 HD
ENDBRANCH  31  32
ENDBRANCH  30  31
ENDBRANCH  23  26
ENDBRANCH   6  23
TORSDOF 6
ENDMDL
MODEL 2
REMARK VINA RESULT:      -9.1      0.611      1.044
REMARK  Name = 
REMARK  6 active torsions:
REMARK  status: ('A' for Active; 'I' for Inactive)
REMARK    1  A    between atoms: C_5  and  C_6
REMARK    2  A    between atoms: C_9  and  C_10
REMARK    3  A    between atoms: C_15  and  S_16
REMARK    4  A    between atoms: S_16  and  N_19
REMARK    5  A    between atoms: C_23  and  C_24
REMARK    6  A    between atoms: C_24  and  O_25
REMARK                            x       y       z     vdW  Elec       q    Type
REMARK                         _______ _______ _______ _____ _____    ______ ____
ROOT
ATOM      1  C   UNL     1       2.464   4.941  19.277  0.00  0.00    +0.000 A 
ATOM      2  C   UNL     1       1.279   4.153  19.438  0.00  0.00    +0.000 A 
ATOM      3  C   UNL     1       1.269   2.777  19.675  0.00  0.00    +0.000 A 
ATOM      4  C   UNL     1       2.463   2.089  19.722  0.00  0.00    +0.000 A 
ATOM      5  C   UNL     1       3.656   2.776  19.495  0.00  0.00    +0.000 A 
ATOM      6  C   UNL     1       3.682   4.179  19.272  0.00  0.00    +0.000 A 
ENDROOT
BRANCH   1  10
ATOM      7  C   UNL     1       1.342   9.262  18.995  0.00  0.00    +0.000 A 
ATOM      8  C   UNL     1       1.819   8.546  17.875  0.00  0.00    +0.000 A 
ATOM      9  C   UNL     1       2.217   7.173  17.936  0.00  0.00    +0.000 A 
ATOM     10  C   UNL     1       2.198   6.437  19.126  0.00  0.00    +0.000 A 
ATOM     11  C   UNL     1       1.767   7.195  20.251  0.00  0.00    +0.000 A 
ATOM     12  C   UNL     1       1.326   8.533  20.181  0.00  0.00    +0.000 A 
ATOM     13  F   UNL     1       0.870   9.096  21.313  0.00  0.00    +0.000 F 
BRANCH   7  18
ATOM     14  N   UNL     1      -0.326  14.623  18.540  0.00  0.00    +0.000 N 
ATOM     15  C   UNL     1       0.076  13.314  18.697  0.00  0.00    +0.000 A 
ATOM     16  N   UNL     1      -0.857  12.385  18.914  0.00  0.00    +0.000 NA
ATOM     17  C   UNL     1      -0.429  11.098  19.016  0.00  0.00    +0.000 A 
ATOM     18  C   UNL     1       0.892  10.675  18.917  0.00  0.00    +0.000 A 
ATOM     19  C   UNL     1       1.751  11.747  18.744  0.00  0.00    +0.000 A 
ATOM     20  N   UNL     1       1.383  13.050  18.636  0.00  0.00    +0.000 NA
ATOM     21  H   UNL     1      -1.227  14.788  18.962  0.00  0.00    +0.000 HD
ATOM     22  H   UNL     1       0.424  15.261  18.763  0.00  0.00    +0.000 HD
ENDBRANCH   7  18
ENDBRANCH   1  10
BRANCH   6  23
ATOM     23  S   UNL     1       5.296   4.851  18.813  0.00  0.00    +0.000 S 
ATOM     24  O   UNL     1       5.471   5.976  19.718  0.00  0.00    +0.000 OA
ATOM     25  O   UNL     1       6.239   3.768  18.758  0.00  0.00    +0.000 OA
BRANCH  23  26
ATOM     26  N   UNL     1       5.203   5.531  17.204  0.00  0.00    +0.000 NA
ATOM     27  C   UNL     1       4.636   4.634  16.142  0.00  0.00    +0.000 C 
ATOM     28  C   UNL     1       5.834   3.941  15.499  0.00  0.00    +0.000 C 
ATOM     29  C   UNL     1       7.010   4.885  15.677  0.00  0.00    +0.000 C 
ATOM     30  C   UNL     1       6.479   6.040  16.519  0.00  0.00    +0.000 C 
BRANCH  30  31
ATOM     31  C   UNL     1       7.524   6.733  17.387  0.00  0.00    +0.000 C 
BRANCH  31  32
ATOM     32  O   UNL     1       7.539   8.125  17.067  0.00  0.00    +0.000 OA
ATOM     33  H   UNL     1       7.761   8.182  16.119  0.00  0.00    +0.000 HD
ENDBRANCH  31  32
ENDBRANCH  30  31
ENDBRANCH  23  26
ENDBRANCH   6  23
TORSDOF 6
ENDMDL
MODEL 3
REMARK VINA RESULT:      -8.8      2.274      4.505
REMARK  Name = 
REMARK  6 active torsions:
REMARK  status: ('A' for Active; 'I' for Inactive)
REMARK    1  A    between atoms: C_5  and  C_6
REMARK    2  A    between atoms: C_9  and  C_10
REMARK    3  A    between atoms: C_15  and  S_16
REMARK    4  A    between atoms: S_16  and  N_19
REMARK    5  A    between atoms: C_23  and  C_24
REMARK    6  A    between atoms: C_24  and  O_25
REMARK                            x       y       z     vdW  Elec       q    Type
REMARK                         _______ _______ _______ _____ _____    ______ ____
ROOT
ATOM      1  C   UNL     1       3.918   6.213  17.578  0.00  0.00    +0.000 A 
ATOM      2  C   UNL     1       4.403   6.911  16.426  0.00  0.00    +0.000 A 
ATOM      3  C   UNL     1       5.258   6.363  15.469  0.00  0.00    +0.000 A 
ATOM      4  C   UNL     1       5.721   5.074  15.633  0.00  0.00    +0.000 A 
ATOM      5  C   UNL     1       5.355   4.358  16.773  0.00  0.00    +0.000 A 
ATOM      6  C   UNL     1       4.471   4.896  17.745  0.00  0.00    +0.000 A 
ENDROOT
BRANCH   1  10
ATOM      7  C   UNL     1       1.229   8.850  19.992  0.00  0.00    +0.000 A 
ATOM      8  C   UNL     1       1.637   7.581  20.459  0.00  0.00    +0.000 A 
ATOM      9  C   UNL     1       2.470   6.699  19.701  0.00  0.00    +0.000 A 
ATOM     10  C   UNL     1       2.919   7.010  18.413  0.00  0.00    +0.000 A 
ATOM     11  C   UNL     1       2.450   8.269  17.941  0.00  0.00    +0.000 A 
ATOM     12  C   UNL     1       1.672   9.161  18.708  0.00  0.00    +0.000 A 
ATOM     13  F   UNL     1       1.371  10.351  18.161  0.00  0.00    +0.000 F 
BRANCH   7  18
ATOM     14  N   UNL     1      -1.782  12.462  23.091  0.00  0.00    +0.000 N 
ATOM     15  C   UNL     1      -1.083  11.551  22.328  0.00  0.00    +0.000 A 
ATOM     16  N   UNL     1      -1.280  11.545  21.009  0.00  0.00    +0.000 NA
ATOM     17  C   UNL     1      -0.537  10.667  20.283  0.00  0.00    +0.000 A 
ATOM     18  C   UNL     1       0.399   9.779  20.799  0.00  0.00    +0.000 A 
ATOM     19  C   UNL     1       0.460   9.861  22.181  0.00  0.00    +0.000 A 
ATOM     20  N   UNL     1      -0.255  10.716  22.958  0.00  0.00    +0.000 NA
ATOM     21  H   UNL     1      -2.622  12.771  22.625  0.00  0.00    +0.000 HD
ATOM     22  H   UNL     1      -1.862  12.148  24.048  0.00  0.00    +0.000 HD
ENDBRANCH   7  18
ENDBRANCH   1  10
BRANCH   6  23
ATOM     23  S   UNL     1       4.267   3.894  19.234  0.00  0.00    +0.000 S 
ATOM     24  O   UNL     1       5.532   3.185  19.349  0.00  0.00    +0.000 OA
ATOM     25  O   UNL     1       3.774   4.740  20.286  0.00  0.00    +0.000 OA
BRANCH  23  26
ATOM     26  N   UNL     1       3.049   2.671  18.947  0.00  0.00    +0.000 NA
ATOM     27  C   UNL     1       2.109   2.934  17.807  0.00  0.00    +0.000 C 
ATOM     28  C   UNL     1       0.896   3.628  18.418  0.00  0.00    +0.000 C 
ATOM     29  C   UNL     1       0.826   3.159  19.861  0.00  0.00    +0.000 C 
ATOM     30  C   UNL     1       2.068   2.298  20.067  0.00  0.00    +0.000 C 
BRANCH  30  31
ATOM     31  C   UNL     1       2.597   2.271  21.497  0.00  0.00    +0.000 C 
BRANCH  31  32
ATOM     32  O   UNL     1       2.096   3.410  22.196  0.00  0.00    +0.000 OA
ATOM     33  H   UNL     1       1.412   3.075  22.805  0.00  0.00    +0.000 HD
ENDBRANCH  31  32
ENDBRANCH  30  31
ENDBRANCH  23  26
ENDBRANCH   6  23
TORSDOF 6
ENDMDL
MODEL 4
REMARK VINA RESULT:      -8.7      1.267      1.776
REMARK  Name = 
REMARK  6 active torsions:
REMARK  status: ('A' for Active; 'I' for Inactive)
REMARK    1  A    between atoms: C_5  and  C_6
REMARK    2  A    between atoms: C_9  and  C_10
REMARK    3  A    between atoms: C_15  and  S_16
REMARK    4  A    between atoms: S_16  and  N_19
REMARK    5  A    between atoms: C_23  and  C_24
REMARK    6  A    between atoms: C_24  and  O_25
REMARK                            x       y       z     vdW  Elec       q    Type
REMARK                         _______ _______ _______ _____ _____    ______ ____
ROOT
ATOM      1  C   UNL     1       2.520   5.418  19.715  0.00  0.00    +0.000 A 
ATOM      2  C   UNL     1       1.727   4.851  20.762  0.00  0.00    +0.000 A 
ATOM      3  C   UNL     1       1.874   3.552  21.253  0.00  0.00    +0.000 A 
ATOM      4  C   UNL     1       2.812   2.716  20.683  0.00  0.00    +0.000 A 
ATOM      5  C   UNL     1       3.569   3.173  19.605  0.00  0.00    +0.000 A 
ATOM      6  C   UNL     1       3.443   4.498  19.109  0.00  0.00    +0.000 A 
ENDROOT
BRANCH   1  10
ATOM      7  C   UNL     1       1.299   9.674  19.072  0.00  0.00    +0.000 A 
ATOM      8  C   UNL     1       1.764   8.868  18.009  0.00  0.00    +0.000 A 
ATOM      9  C   UNL     1       2.192   7.514  18.184  0.00  0.00    +0.000 A 
ATOM     10  C   UNL     1       2.219   6.890  19.436  0.00  0.00    +0.000 A 
ATOM     11  C   UNL     1       1.799   7.738  20.499  0.00  0.00    +0.000 A 
ATOM     12  C   UNL     1       1.328   9.055  20.320  0.00  0.00    +0.000 A 
ATOM     13  F   UNL     1       0.887   9.711  21.407  0.00  0.00    +0.000 F 
BRANCH   7  18
ATOM     14  N   UNL     1      -0.605  14.942  18.488  0.00  0.00    +0.000 N 
ATOM     15  C   UNL     1      -0.124  13.654  18.586  0.00  0.00    +0.000 A 
ATOM     16  N   UNL     1       1.191  13.476  18.721  0.00  0.00    +0.000 NA
ATOM     17  C   UNL     1       1.625  12.195  18.865  0.00  0.00    +0.000 A 
ATOM     18  C   UNL     1       0.816  11.064  18.879  0.00  0.00    +0.000 A 
ATOM     19  C   UNL     1      -0.514  11.396  18.679  0.00  0.00    +0.000 A 
ATOM     20  N   UNL     1      -1.005  12.654  18.529  0.00  0.00    +0.000 NA
ATOM     21  H   UNL     1       0.107  15.581  18.165  0.00  0.00    +0.000 HD
ATOM     22  H   UNL     1      -1.501  14.960  18.023  0.00  0.00    +0.000 HD
ENDBRANCH   7  18
ENDBRANCH   1  10
BRANCH   6  23
ATOM     23  S   UNL     1       4.368   4.840  17.595  0.00  0.00    +0.000 S 
ATOM     24  O   UNL     1       3.899   3.824  16.666  0.00  0.00    +0.000 OA
ATOM     25  O   UNL     1       4.257   6.244  17.303  0.00  0.00    +0.000 OA
BRANCH  23  26
ATOM     26  N   UNL     1       6.064   4.506  17.865  0.00  0.00    +0.000 NA
ATOM     27  C   UNL     1       6.676   5.148  19.077  0.00  0.00    +0.000 C 
ATOM     28  C   UNL     1       7.279   6.463  18.593  0.00  0.00    +0.000 C 
ATOM     29  C   UNL     1       7.616   6.255  17.127  0.00  0.00    +0.000 C 
ATOM     30  C   UNL     1       7.091   4.866  16.782  0.00  0.00    +0.000 C 
BRANCH  30  31
ATOM     31  C   UNL     1       6.684   4.679  15.325  0.00  0.00    +0.000 C 
BRANCH  31  32
ATOM     32  O   UNL     1       7.604   5.388  14.495  0.00  0.00    +0.000 OA
ATOM     33  H   UNL     1       7.114   5.618  13.683  0.00  0.00    +0.000 HD
ENDBRANCH  31  32
ENDBRANCH  30  31
ENDBRANCH  23  26
ENDBRANCH   6  23
TORSDOF 6
ENDMDL
MODEL 5
REMARK VINA RESULT:      -8.6      1.546      1.825
REMARK  Name = 
REMARK  6 active torsions:
REMARK  status: ('A' for Active; 'I' for Inactive)
REMARK    1  A    between atoms: C_5  and  C_6
REMARK    2  A    between atoms: C_9  and  C_10
REMARK    3  A    between atoms: C_15  and  S_16
REMARK    4  A    between atoms: S_16  and  N_19
REMARK    5  A    between atoms: C_23  and  C_24
REMARK    6  A    between atoms: C_24  and  O_25
REMARK                            x       y       z     vdW  Elec       q    Type
REMARK                         _______ _______ _______ _____ _____    ______ ____
ROOT
ATOM      1  C   UNL     1       2.473   4.437  19.022  0.00  0.00    +0.000 A 
ATOM      2  C   UNL     1       1.395   3.505  18.892  0.00  0.00    +0.000 A 
ATOM      3  C   UNL     1       1.554   2.128  18.727  0.00  0.00    +0.000 A 
ATOM      4  C   UNL     1       2.825   1.599  18.638  0.00  0.00    +0.000 A 
ATOM      5  C   UNL     1       3.925   2.455  18.677  0.00  0.00    +0.000 A 
ATOM      6  C   UNL     1       3.778   3.856  18.863  0.00  0.00    +0.000 A 
ENDROOT
BRANCH   1  10
ATOM      7  C   UNL     1       1.498   8.756  19.664  0.00  0.00    +0.000 A 
ATOM      8  C   UNL     1       1.363   7.804  20.698  0.00  0.00    +0.000 A 
ATOM      9  C   UNL     1       1.635   6.411  20.520  0.00  0.00    +0.000 A 
ATOM     10  C   UNL     1       2.024   5.873  19.289  0.00  0.00    +0.000 A 
ATOM     11  C   UNL     1       2.101   6.841  18.248  0.00  0.00    +0.000 A 
ATOM     12  C   UNL     1       1.882   8.222  18.436  0.00  0.00    +0.000 A 
ATOM     13  F   UNL     1       2.069   9.029  17.378  0.00  0.00    +0.000 F 
BRANCH   7  18
ATOM     14  N   UNL     1       0.715  14.269  20.513  0.00  0.00    +0.000 N 
ATOM     15  C   UNL     1       0.864  12.917  20.286  0.00  0.00    +0.000 A 
ATOM     16  N   UNL     1       1.130  12.508  19.044  0.00  0.00    +0.000 NA
ATOM     17  C   UNL     1       1.319  11.172  18.867  0.00  0.00    +0.000 A 
ATOM     18  C   UNL     1       1.255  10.207  19.865  0.00  0.00    +0.000 A 
ATOM     19  C   UNL     1       0.923  10.769  21.087  0.00  0.00    +0.000 A 
ATOM     20  N   UNL     1       0.722  12.091  21.324  0.00  0.00    +0.000 NA
ATOM     21  H   UNL     1       0.463  14.761  19.670  0.00  0.00    +0.000 HD
ATOM     22  H   UNL     1       0.163  14.438  21.341  0.00  0.00    +0.000 HD
ENDBRANCH   7  18
ENDBRANCH   1  10
BRANCH   6  23
ATOM     23  S   UNL     1       5.301   4.814  18.697  0.00  0.00    +0.000 S 
ATOM     24  O   UNL     1       5.162   5.859  19.699  0.00  0.00    +0.000 OA
ATOM     25  O   UNL     1       6.413   3.903  18.701  0.00  0.00    +0.000 OA
BRANCH  23  26
ATOM     26  N   UNL     1       5.309   5.625  17.147  0.00  0.00    +0.000 NA
ATOM     27  C   UNL     1       4.828   4.814  15.978  0.00  0.00    +0.000 C 
ATOM     28  C   UNL     1       6.077   4.188  15.365  0.00  0.00    +0.000 C 
ATOM     29  C   UNL     1       7.225   5.123  15.701  0.00  0.00    +0.000 C 
ATOM     30  C   UNL     1       6.622   6.200  16.596  0.00  0.00    +0.000 C 
BRANCH  30  31
ATOM     31  C   UNL     1       7.596   6.827  17.589  0.00  0.00    +0.000 C 
BRANCH  31  32
ATOM     32  O   UNL     1       7.834   8.181  17.206  0.00  0.00    +0.000 OA
ATOM     33  H   UNL     1       8.649   8.453  17.668  0.00  0.00    +0.000 HD
ENDBRANCH  31  32
ENDBRANCH  30  31
ENDBRANCH  23  26
ENDBRANCH   6  23
TORSDOF 6
ENDMDL
MODEL 6
REMARK VINA RESULT:      -8.3      1.034      1.767
REMARK  Name = 
REMARK  6 active torsions:
REMARK  status: ('A' for Active; 'I' for Inactive)
REMARK    1  A    between atoms: C_5  and  C_6
REMARK    2  A    between atoms: C_9  and  C_10
REMARK    3  A    between atoms: C_15  and  S_16
REMARK    4  A    between atoms: S_16  and  N_19
REMARK    5  A    between atoms: C_23  and  C_24
REMARK    6  A    between atoms: C_24  and  O_25
REMARK                            x       y       z     vdW  Elec       q    Type
REMARK                         _______ _______ _______ _____ _____    ______ ____
ROOT
ATOM      1  C   UNL     1       2.563   5.444  19.908  0.00  0.00    +0.000 A 
ATOM      2  C   UNL     1       1.447   4.694  20.399  0.00  0.00    +0.000 A 
ATOM      3  C   UNL     1       1.510   3.364  20.819  0.00  0.00    +0.000 A 
ATOM      4  C   UNL     1       2.704   2.681  20.730  0.00  0.00    +0.000 A 
ATOM      5  C   UNL     1       3.818   3.322  20.187  0.00  0.00    +0.000 A 
ATOM      6  C   UNL     1       3.774   4.680  19.774  0.00  0.00    +0.000 A 
ENDROOT
BRANCH   1  10
ATOM      7  C   UNL     1       1.283   9.669  19.184  0.00  0.00    +0.000 A 
ATOM      8  C   UNL     1       1.819   8.870  18.150  0.00  0.00    +0.000 A 
ATOM      9  C   UNL     1       2.268   7.526  18.353  0.00  0.00    +0.000 A 
ATOM     10  C   UNL     1       2.245   6.907  19.607  0.00  0.00    +0.000 A 
ATOM     11  C   UNL     1       1.752   7.750  20.643  0.00  0.00    +0.000 A 
ATOM     12  C   UNL     1       1.262   9.056  20.434  0.00  0.00    +0.000 A 
ATOM     13  F   UNL     1       0.752   9.705  21.495  0.00  0.00    +0.000 F 
BRANCH   7  18
ATOM     14  N   UNL     1      -0.684  14.901  18.489  0.00  0.00    +0.000 N 
ATOM     15  C   UNL     1      -0.191  13.619  18.614  0.00  0.00    +0.000 A 
ATOM     16  N   UNL     1       1.131  13.450  18.658  0.00  0.00    +0.000 NA
ATOM     17  C   UNL     1       1.580  12.178  18.830  0.00  0.00    +0.000 A 
ATOM     18  C   UNL     1       0.781  11.048  18.960  0.00  0.00    +0.000 A 
ATOM     19  C   UNL     1      -0.562  11.368  18.846  0.00  0.00    +0.000 A 
ATOM     20  N   UNL     1      -1.069  12.616  18.673  0.00  0.00    +0.000 NA
ATOM     21  H   UNL     1      -0.002  15.523  18.083  0.00  0.00    +0.000 HD
ATOM     22  H   UNL     1      -1.613  14.894  18.093  0.00  0.00    +0.000 HD
ENDBRANCH   7  18
ENDBRANCH   1  10
BRANCH   6  23
ATOM     23  S   UNL     1       5.257   5.272  18.927  0.00  0.00    +0.000 S 
ATOM     24  O   UNL     1       4.797   6.450  18.209  0.00  0.00    +0.000 OA
ATOM     25  O   UNL     1       6.329   5.336  19.883  0.00  0.00    +0.000 OA
BRANCH  23  26
ATOM     26  N   UNL     1       5.728   4.111  17.707  0.00  0.00    +0.000 NA
ATOM     27  C   UNL     1       7.060   4.344  17.055  0.00  0.00    +0.000 C 
ATOM     28  C   UNL     1       6.773   5.159  15.798  0.00  0.00    +0.000 C 
ATOM     29  C   UNL     1       5.355   4.807  15.385  0.00  0.00    +0.000 C 
ATOM     30  C   UNL     1       4.829   3.888  16.482  0.00  0.00    +0.000 C 
BRANCH  30  31
ATOM     31  C   UNL     1       3.319   3.938  16.689  0.00  0.00    +0.000 C 
BRANCH  31  32
ATOM     32  O   UNL     1       2.865   2.642  17.079  0.00  0.00    +0.000 OA
ATOM     33  H   UNL     1       1.921   2.601  16.836  0.00  0.00    +0.000 HD
ENDBRANCH  31  32
ENDBRANCH  30  31
ENDBRANCH  23  26
ENDBRANCH   6  23
TORSDOF 6
ENDMDL
MODEL 7
REMARK VINA RESULT:      -8.3      1.254      1.577
REMARK  Name = 
REMARK  6 active torsions:
REMARK  status: ('A' for Active; 'I' for Inactive)
REMARK    1  A    between atoms: C_5  and  C_6
REMARK    2  A    between atoms: C_9  and  C_10
REMARK    3  A    between atoms: C_15  and  S_16
REMARK    4  A    between atoms: S_16  and  N_19
REMARK    5  A    between atoms: C_23  and  C_24
REMARK    6  A    between atoms: C_24  and  O_25
REMARK                            x       y       z     vdW  Elec       q    Type
REMARK                         _______ _______ _______ _____ _____    ______ ____
ROOT
ATOM      1  C   UNL     1       2.547   5.115  20.009  0.00  0.00    +0.000 A 
ATOM      2  C   UNL     1       1.920   4.657  21.212  0.00  0.00    +0.000 A 
ATOM      3  C   UNL     1       2.101   3.388  21.766  0.00  0.00    +0.000 A 
ATOM      4  C   UNL     1       2.899   2.472  21.114  0.00  0.00    +0.000 A 
ATOM      5  C   UNL     1       3.481   2.819  19.894  0.00  0.00    +0.000 A 
ATOM      6  C   UNL     1       3.321   4.112  19.329  0.00  0.00    +0.000 A 
ENDROOT
BRANCH   1  10
ATOM      7  C   UNL     1       1.344   9.343  19.178  0.00  0.00    +0.000 A 
ATOM      8  C   UNL     1       1.902   8.521  18.175  0.00  0.00    +0.000 A 
ATOM      9  C   UNL     1       2.327   7.175  18.413  0.00  0.00    +0.000 A 
ATOM     10  C   UNL     1       2.256   6.577  19.675  0.00  0.00    +0.000 A 
ATOM     11  C   UNL     1       1.742   7.442  20.682  0.00  0.00    +0.000 A 
ATOM     12  C   UNL     1       1.276   8.750  20.437  0.00  0.00    +0.000 A 
ATOM     13  F   UNL     1       0.742   9.423  21.471  0.00  0.00    +0.000 F 
BRANCH   7  18
ATOM     14  N   UNL     1      -0.538  14.584  18.337  0.00  0.00    +0.000 N 
ATOM     15  C   UNL     1      -0.063  13.300  18.498  0.00  0.00    +0.000 A 
ATOM     16  N   UNL     1       1.253  13.121  18.623  0.00  0.00    +0.000 NA
ATOM     17  C   UNL     1       1.681  11.847  18.830  0.00  0.00    +0.000 A 
ATOM     18  C   UNL     1       0.866  10.724  18.917  0.00  0.00    +0.000 A 
ATOM     19  C   UNL     1      -0.465  11.053  18.719  0.00  0.00    +0.000 A 
ATOM     20  N   UNL     1      -0.950  12.303  18.509  0.00  0.00    +0.000 NA
ATOM     21  H   UNL     1       0.172  15.199  17.969  0.00  0.00    +0.000 HD
ATOM     22  H   UNL     1      -1.441  14.582  17.885  0.00  0.00    +0.000 HD
ENDBRANCH   7  18
ENDBRANCH   1  10
BRANCH   6  23
ATOM     23  S   UNL     1       3.991   4.308  17.663  0.00  0.00    +0.000 S 
ATOM     24  O   UNL     1       4.967   3.236  17.555  0.00  0.00    +0.000 OA
ATOM     25  O   UNL     1       2.893   4.429  16.743  0.00  0.00    +0.000 OA
BRANCH  23  26
ATOM     26  N   UNL     1       4.899   5.801  17.576  0.00  0.00    +0.000 NA
ATOM     27  C   UNL     1       5.188   6.317  16.195  0.00  0.00    +0.000 C 
ATOM     28  C   UNL     1       6.560   5.765  15.823  0.00  0.00    +0.000 C 
ATOM     29  C   UNL     1       7.299   5.556  17.133  0.00  0.00    +0.000 C 
ATOM     30  C   UNL     1       6.288   5.886  18.226  0.00  0.00    +0.000 C 
BRANCH  30  31
ATOM     31  C   UNL     1       6.503   5.147  19.542  0.00  0.00    +0.000 C 
BRANCH  31  32
ATOM     32  O   UNL     1       7.730   5.589  20.123  0.00  0.00    +0.000 OA
ATOM     33  H   UNL     1       8.253   4.783  20.294  0.00  0.00    +0.000 HD
ENDBRANCH  31  32
ENDBRANCH  30  31
ENDBRANCH  23  26
ENDBRANCH   6  23
TORSDOF 6
ENDMDL
MODEL 8
REMARK VINA RESULT:      -8.2      2.166      4.369
REMARK  Name = 
REMARK  6 active torsions:
REMARK  status: ('A' for Active; 'I' for Inactive)
REMARK    1  A    between atoms: C_5  and  C_6
REMARK    2  A    between atoms: C_9  and  C_10
REMARK    3  A    between atoms: C_15  and  S_16
REMARK    4  A    between atoms: S_16  and  N_19
REMARK    5  A    between atoms: C_23  and  C_24
REMARK    6  A    between atoms: C_24  and  O_25
REMARK                            x       y       z     vdW  Elec       q    Type
REMARK                         _______ _______ _______ _____ _____    ______ ____
ROOT
ATOM      1  C   UNL     1       4.326   5.912  17.198  0.00  0.00    +0.000 A 
ATOM      2  C   UNL     1       4.906   6.356  15.967  0.00  0.00    +0.000 A 
ATOM      3  C   UNL     1       5.624   5.541  15.090  0.00  0.00    +0.000 A 
ATOM      4  C   UNL     1       5.846   4.221  15.420  0.00  0.00    +0.000 A 
ATOM      5  C   UNL     1       5.379   3.735  16.642  0.00  0.00    +0.000 A 
ATOM      6  C   UNL     1       4.630   4.547  17.534  0.00  0.00    +0.000 A 
ENDROOT
BRANCH   1  10
ATOM      7  C   UNL     1       1.647   8.785  19.338  0.00  0.00    +0.000 A 
ATOM      8  C   UNL     1       2.291   9.132  18.130  0.00  0.00    +0.000 A 
ATOM      9  C   UNL     1       3.179   8.250  17.435  0.00  0.00    +0.000 A 
ATOM     10  C   UNL     1       3.509   6.980  17.921  0.00  0.00    +0.000 A 
ATOM     11  C   UNL     1       2.892   6.674  19.166  0.00  0.00    +0.000 A 
ATOM     12  C   UNL     1       1.977   7.523  19.825  0.00  0.00    +0.000 A 
ATOM     13  F   UNL     1       1.410   7.067  20.955  0.00  0.00    +0.000 F 
BRANCH   7  18
ATOM     14  N   UNL     1      -1.849  12.328  21.973  0.00  0.00    +0.000 N 
ATOM     15  C   UNL     1      -1.025  11.427  21.334  0.00  0.00    +0.000 A 
ATOM     16  N   UNL     1      -1.320  11.074  20.082  0.00  0.00    +0.000 NA
ATOM     17  C   UNL     1      -0.457  10.220  19.467  0.00  0.00    +0.000 A 
ATOM     18  C   UNL     1       0.695   9.688  20.033  0.00  0.00    +0.000 A 
ATOM     19  C   UNL     1       0.846  10.100  21.347  0.00  0.00    +0.000 A 
ATOM     20  N   UNL     1       0.020  10.948  22.012  0.00  0.00    +0.000 NA
ATOM     21  H   UNL     1      -2.772  12.342  21.565  0.00  0.00    +0.000 HD
ATOM     22  H   UNL     1      -1.779  12.236  22.976  0.00  0.00    +0.000 HD
ENDBRANCH   7  18
ENDBRANCH   1  10
BRANCH   6  23
ATOM     23  S   UNL     1       4.278   3.798  19.140  0.00  0.00    +0.000 S 
ATOM     24  O   UNL     1       5.471   3.017  19.426  0.00  0.00    +0.000 OA
ATOM     25  O   UNL     1       3.815   4.828  20.030  0.00  0.00    +0.000 OA
BRANCH  23  26
ATOM     26  N   UNL     1       2.973   2.646  18.967  0.00  0.00    +0.000 NA
ATOM     27  C   UNL     1       2.004   2.911  17.851  0.00  0.00    +0.000 C 
ATOM     28  C   UNL     1       0.865   3.716  18.470  0.00  0.00    +0.000 C 
ATOM     29  C   UNL     1       0.826   3.328  19.937  0.00  0.00    +0.000 C 
ATOM     30  C   UNL     1       2.017   2.398  20.143  0.00  0.00    +0.000 C 
BRANCH  30  31
ATOM     31  C   UNL     1       2.603   2.411  21.551  0.00  0.00    +0.000 C 
BRANCH  31  32
ATOM     32  O   UNL     1       2.226   3.627  22.196  0.00  0.00    +0.000 OA
ATOM     33  H   UNL     1       2.845   3.741  22.941  0.00  0.00    +0.000 HD
ENDBRANCH  31  32
ENDBRANCH  30  31
ENDBRANCH  23  26
ENDBRANCH   6  23
TORSDOF 6
ENDMDL
MODEL 9
REMARK VINA RESULT:      -8.1      4.808      7.106
REMARK  Name = 
REMARK  6 active torsions:
REMARK  status: ('A' for Active; 'I' for Inactive)
REMARK    1  A    between atoms: C_5  and  C_6
REMARK    2  A    between atoms: C_9  and  C_10
REMARK    3  A    between atoms: C_15  and  S_16
REMARK    4  A    between atoms: S_16  and  N_19
REMARK    5  A    between atoms: C_23  and  C_24
REMARK    6  A    between atoms: C_24  and  O_25
REMARK                            x       y       z     vdW  Elec       q    Type
REMARK                         _______ _______ _______ _____ _____    ______ ____
ROOT
ATOM      1  C   UNL     1       6.440   5.723  16.882  0.00  0.00    +0.000 A 
ATOM      2  C   UNL     1       7.066   5.329  15.656  0.00  0.00    +0.000 A 
ATOM      3  C   UNL     1       6.571   4.350  14.793  0.00  0.00    +0.000 A 
ATOM      4  C   UNL     1       5.424   3.665  15.133  0.00  0.00    +0.000 A 
ATOM      5  C   UNL     1       4.801   3.939  16.350  0.00  0.00    +0.000 A 
ATOM      6  C   UNL     1       5.282   4.946  17.229  0.00  0.00    +0.000 A 
ENDROOT
BRANCH   1  10
ATOM      7  C   UNL     1       8.606   9.237  18.607  0.00  0.00    +0.000 A 
ATOM      8  C   UNL     1       8.783   7.933  19.119  0.00  0.00    +0.000 A 
ATOM      9  C   UNL     1       8.084   6.792  18.613  0.00  0.00    +0.000 A 
ATOM     10  C   UNL     1       7.136   6.885  17.589  0.00  0.00    +0.000 A 
ATOM     11  C   UNL     1       6.933   8.216  17.126  0.00  0.00    +0.000 A 
ATOM     12  C   UNL     1       7.660   9.333  17.589  0.00  0.00    +0.000 A 
ATOM     13  F   UNL     1       7.418  10.517  17.002  0.00  0.00    +0.000 F 
BRANCH   7  18
ATOM     14  N   UNL     1      11.382  13.790  20.419  0.00  0.00    +0.000 N 
ATOM     15  C   UNL     1      10.736  12.649  19.995  0.00  0.00    +0.000 A 
ATOM     16  N   UNL     1      10.026  11.954  20.886  0.00  0.00    +0.000 NA
ATOM     17  C   UNL     1       9.362  10.861  20.422  0.00  0.00    +0.000 A 
ATOM     18  C   UNL     1       9.365  10.411  19.107  0.00  0.00    +0.000 A 
ATOM     19  C   UNL     1      10.179  11.197  18.309  0.00  0.00    +0.000 A 
ATOM     20  N   UNL     1      10.866  12.297  18.715  0.00  0.00    +0.000 NA
ATOM     21  H   UNL     1      11.549  13.775  21.414  0.00  0.00    +0.000 HD
ATOM     22  H   UNL     1      12.160  14.012  19.814  0.00  0.00    +0.000 HD
ENDBRANCH   7  18
ENDBRANCH   1  10
BRANCH   6  23
ATOM     23  S   UNL     1       4.455   5.022  18.834  0.00  0.00    +0.000 S 
ATOM     24  O   UNL     1       5.399   4.386  19.739  0.00  0.00    +0.000 OA
ATOM     25  O   UNL     1       3.993   6.367  19.042  0.00  0.00    +0.000 OA
BRANCH  23  26
ATOM     26  N   UNL     1       3.041   3.992  18.805  0.00  0.00    +0.000 NA
ATOM     27  C   UNL     1       1.817   4.537  19.482  0.00  0.00    +0.000 C 
ATOM     28  C   UNL     1       1.857   4.001  20.910  0.00  0.00    +0.000 C 
ATOM     29  C   UNL     1       2.634   2.698  20.848  0.00  0.00    +0.000 C 
ATOM     30  C   UNL     1       3.115   2.581  19.406  0.00  0.00    +0.000 C 
BRANCH  30  31
ATOM     31  C   UNL     1       4.412   1.798  19.225  0.00  0.00    +0.000 C 
BRANCH  31  32
ATOM     32  O   UNL     1       5.116   1.781  20.467  0.00  0.00    +0.000 OA
ATOM     33  H   UNL     1       6.059   1.890  20.244  0.00  0.00    +0.000 HD
ENDBRANCH  31  32
ENDBRANCH  30  31
ENDBRANCH  23  26
ENDBRANCH   6  23
TORSDOF 6
ENDMDL
