MODEL 1
REMARK VINA RESULT:      -7.8      0.000      0.000
REMARK  Name = 
REMARK  5 active torsions:
REMARK  status: ('A' for Active; 'I' for Inactive)
REMARK    1  A    between atoms: C_2  and  C_10
REMARK    2  A    between atoms: N_3  and  C_4
REMARK    3  A    between atoms: C_12  and  O_13
REMARK    4  A    between atoms: C_16  and  C_18
REMARK    5  A    between atoms: C_18  and  C_19
REMARK                            x       y       z     vdW  Elec       q    Type
REMARK                         _______ _______ _______ _____ _____    ______ ____
ROOT
ATOM      1  C   UNL     1       5.547   5.199  18.477  0.00  0.00    +0.000 C 
ATOM      2  C   UNL     1       6.951   4.781  17.967  0.00  0.00    +0.000 C 
ATOM      3  C   UNL     1       7.672   6.100  17.778  0.00  0.00    +0.000 C 
ATOM      4  C   UNL     1       6.568   7.025  17.273  0.00  0.00    +0.000 C 
ATOM      5  N   UNL     1       5.292   6.392  17.637  0.00  0.00    +0.000 N 
ATOM      6  C   UNL     1       4.171   7.177  17.457  0.00  0.00    +0.000 C 
ATOM      7  O   UNL     1       4.264   8.281  16.906  0.00  0.00    +0.000 OA
ENDROOT
BRANCH   1   9
ATOM      8  O   UNL     1       4.643   3.100  17.569  0.00  0.00    +0.000 OA
ATOM      9  C   UNL     1       4.691   3.902  18.499  0.00  0.00    +0.000 C 
ATOM     10  N   UNL     1       4.032   3.695  19.696  0.00  0.00    +0.000 N 
ATOM     11  H   UNL     1       3.910   4.483  20.316  0.00  0.00    +0.000 HD
BRANCH  10  12
ATOM     12  C   UNL     1       3.307   2.464  20.046  0.00  0.00    +0.000 C 
ATOM     13  C   UNL     1       2.591   2.546  21.416  0.00  0.00    +0.000 C 
ATOM     14  C   UNL     1       1.373   3.432  21.384  0.00  0.00    +0.000 C 
ATOM     15  C   UNL     1       0.740   3.756  20.248  0.00  0.00    +0.000 C 
ATOM     16  C   UNL     1       1.156   3.229  18.902  0.00  0.00    +0.000 C 
ATOM     17  C   UNL     1       2.247   2.149  18.978  0.00  0.00    +0.000 C 
ENDBRANCH  10  12
ENDBRANCH   1   9
BRANCH   3  18
ATOM     18  O   UNL     1       8.222   6.528  19.024  0.00  0.00    +0.000 OA
ATOM     19  H   UNL     1       8.617   5.765  19.480  0.00  0.00    +0.000 HD
ENDBRANCH   3  18
BRANCH   6  20
ATOM     20  C   UNL     1       2.805   6.707  17.900  0.00  0.00    +0.000 C 
BRANCH  20  21
ATOM     21  C   UNL     1       2.140   7.537  18.975  0.00  0.00    +0.000 A 
ATOM     22  C   UNL     1       1.993   7.090  20.296  0.00  0.00    +0.000 A 
ATOM     23  C   UNL     1       1.283   7.857  21.232  0.00  0.00    +0.000 A 
ATOM     24  C   UNL     1       0.698   9.063  20.854  0.00  0.00    +0.000 A 
ATOM     25  C   UNL     1       0.821   9.508  19.544  0.00  0.00    +0.000 A 
ATOM     26  C   UNL     1       1.520   8.735  18.617  0.00  0.00    +0.000 A 
ATOM     27  F   UNL     1       1.562   9.150  17.344  0.00  0.00    +0.000 F 
ENDBRANCH  20  21
ENDBRANCH   6  20
TORSDOF 5
ENDMDL
MODEL 2
REMARK VINA RESULT:      -7.8      2.169      5.031
REMARK  Name = 
REMARK  5 active torsions:
REMARK  status: ('A' for Active; 'I' for Inactive)
REMARK    1  A    between atoms: C_2  and  C_10
REMARK    2  A    between atoms: N_3  and  C_4
REMARK    3  A    between atoms: C_12  and  O_13
REMARK    4  A    between atoms: C_16  and  C_18
REMARK    5  A    between atoms: C_18  and  C_19
REMARK                            x       y       z     vdW  Elec       q    Type
REMARK                         _______ _______ _______ _____ _____    ______ ____
ROOT
ATOM      1  C   UNL     1       3.138   3.632  18.921  0.00  0.00    +0.000 C 
ATOM      2  C   UNL     1       3.079   2.105  19.185  0.00  0.00    +0.000 C 
ATOM      3  C   UNL     1       1.609   1.837  19.429  0.00  0.00    +0.000 C 
ATOM      4  C   UNL     1       1.155   3.085  20.184  0.00  0.00    +0.000 C 
ATOM      5  N   UNL     1       2.163   4.123  19.922  0.00  0.00    +0.000 N 
ATOM      6  C   UNL     1       1.824   5.394  20.341  0.00  0.00    +0.000 C 
ATOM      7  O   UNL     1       0.794   5.579  21.001  0.00  0.00    +0.000 OA
ENDROOT
BRANCH   1   9
ATOM      8  O   UNL     1       5.520   3.413  19.491  0.00  0.00    +0.000 OA
ATOM      9  C   UNL     1       4.645   4.004  18.861  0.00  0.00    +0.000 C 
ATOM     10  N   UNL     1       4.927   5.027  17.976  0.00  0.00    +0.000 N 
ATOM     11  H   UNL     1       4.169   5.625  17.680  0.00  0.00    +0.000 HD
BRANCH  10  12
ATOM     12  C   UNL     1       6.284   5.448  17.593  0.00  0.00    +0.000 C 
ATOM     13  C   UNL     1       7.038   4.390  16.752  0.00  0.00    +0.000 C 
ATOM     14  C   UNL     1       6.512   4.284  15.345  0.00  0.00    +0.000 C 
ATOM     15  C   UNL     1       5.797   5.255  14.761  0.00  0.00    +0.000 C 
ATOM     16  C   UNL     1       5.490   6.562  15.437  0.00  0.00    +0.000 C 
ATOM     17  C   UNL     1       6.226   6.748  16.774  0.00  0.00    +0.000 C 
ENDBRANCH  10  12
ENDBRANCH   1   9
BRANCH   3  18
ATOM     18  O   UNL     1       0.937   1.674  18.180  0.00  0.00    +0.000 OA
ATOM     19  H   UNL     1      -0.023   1.669  18.329  0.00  0.00    +0.000 HD
ENDBRANCH   3  18
BRANCH   6  20
ATOM     20  C   UNL     1       2.705   6.582  20.034  0.00  0.00    +0.000 C 
BRANCH  20  21
ATOM     21  C   UNL     1       1.995   7.808  19.504  0.00  0.00    +0.000 A 
ATOM     22  C   UNL     1       2.031   8.180  18.152  0.00  0.00    +0.000 A 
ATOM     23  C   UNL     1       1.438   9.378  17.728  0.00  0.00    +0.000 A 
ATOM     24  C   UNL     1       0.821  10.222  18.648  0.00  0.00    +0.000 A 
ATOM     25  C   UNL     1       0.795   9.873  19.993  0.00  0.00    +0.000 A 
ATOM     26  C   UNL     1       1.396   8.685  20.408  0.00  0.00    +0.000 A 
ATOM     27  F   UNL     1       1.420   8.407  21.718  0.00  0.00    +0.000 F 
ENDBRANCH  20  21
ENDBRANCH   6  20
TORSDOF 5
ENDMDL
MODEL 3
REMARK VINA RESULT:      -7.8      0.942      1.343
REMARK  Name = 
REMARK  5 active torsions:
REMARK  status: ('A' for Active; 'I' for Inactive)
REMARK    1  A    between atoms: C_2  and  C_10
REMARK    2  A    between atoms: N_3  and  C_4
REMARK    3  A    between atoms: C_12  and  O_13
REMARK    4  A    between atoms: C_16  and  C_18
REMARK    5  A    between atoms: C_18  and  C_19
REMARK                            x       y       z     vdW  Elec       q    Type
REMARK                         _______ _______ _______ _____ _____    ______ ____
ROOT
ATOM      1  C   UNL     1       5.599   5.058  18.568  0.00  0.00    +0.000 C 
ATOM      2  C   UNL     1       7.033   4.597  18.201  0.00  0.00    +0.000 C 
ATOM      3  C   UNL     1       7.796   5.894  18.027  0.00  0.00    +0.000 C 
ATOM      4  C   UNL     1       6.759   6.817  17.391  0.00  0.00    +0.000 C 
ATOM      5  N   UNL     1       5.443   6.221  17.664  0.00  0.00    +0.000 N 
ATOM      6  C   UNL     1       4.359   7.017  17.356  0.00  0.00    +0.000 C 
ATOM      7  O   UNL     1       4.523   8.097  16.774  0.00  0.00    +0.000 OA
ENDROOT
BRANCH   1   9
ATOM      8  O   UNL     1       4.672   2.985  17.625  0.00  0.00    +0.000 OA
ATOM      9  C   UNL     1       4.718   3.778  18.563  0.00  0.00    +0.000 C 
ATOM     10  N   UNL     1       4.033   3.574  19.746  0.00  0.00    +0.000 N 
ATOM     11  H   UNL     1       3.915   4.359  20.370  0.00  0.00    +0.000 HD
BRANCH  10  12
ATOM     12  C   UNL     1       3.278   2.354  20.073  0.00  0.00    +0.000 C 
ATOM     13  C   UNL     1       2.528   2.444  21.424  0.00  0.00    +0.000 C 
ATOM     14  C   UNL     1       1.327   3.351  21.363  0.00  0.00    +0.000 C 
ATOM     15  C   UNL     1       0.730   3.689  20.212  0.00  0.00    +0.000 C 
ATOM     16  C   UNL     1       1.171   3.160  18.876  0.00  0.00    +0.000 C 
ATOM     17  C   UNL     1       2.242   2.061  18.976  0.00  0.00    +0.000 C 
ENDBRANCH  10  12
ENDBRANCH   1   9
BRANCH   3  18
ATOM     18  O   UNL     1       8.243   6.362  19.300  0.00  0.00    +0.000 OA
ATOM     19  H   UNL     1       7.501   6.342  19.928  0.00  0.00    +0.000 HD
ENDBRANCH   3  18
BRANCH   6  20
ATOM     20  C   UNL     1       2.950   6.589  17.693  0.00  0.00    +0.000 C 
BRANCH  20  21
ATOM     21  C   UNL     1       2.149   7.561  18.531  0.00  0.00    +0.000 A 
ATOM     22  C   UNL     1       1.606   8.743  18.010  0.00  0.00    +0.000 A 
ATOM     23  C   UNL     1       0.954   9.658  18.850  0.00  0.00    +0.000 A 
ATOM     24  C   UNL     1       0.857   9.411  20.217  0.00  0.00    +0.000 A 
ATOM     25  C   UNL     1       1.407   8.251  20.749  0.00  0.00    +0.000 A 
ATOM     26  C   UNL     1       2.062   7.352  19.908  0.00  0.00    +0.000 A 
ATOM     27  F   UNL     1       2.647   6.278  20.455  0.00  0.00    +0.000 F 
ENDBRANCH  20  21
ENDBRANCH   6  20
TORSDOF 5
ENDMDL
MODEL 4
REMARK VINA RESULT:      -7.7      2.027      4.912
REMARK  Name = 
REMARK  5 active torsions:
REMARK  status: ('A' for Active; 'I' for Inactive)
REMARK    1  A    between atoms: C_2  and  C_10
REMARK    2  A    between atoms: N_3  and  C_4
REMARK    3  A    between atoms: C_12  and  O_13
REMARK    4  A    between atoms: C_16  and  C_18
REMARK    5  A    between atoms: C_18  and  C_19
REMARK                            x       y       z     vdW  Elec       q    Type
REMARK                         _______ _______ _______ _____ _____    ______ ____
ROOT
ATOM      1  C   UNL     1       3.086   3.663  18.942  0.00  0.00    +0.000 C 
ATOM      2  C   UNL     1       2.995   2.145  19.243  0.00  0.00    +0.000 C 
ATOM      3  C   UNL     1       1.521   1.916  19.501  0.00  0.00    +0.000 C 
ATOM      4  C   UNL     1       1.099   3.191  20.228  0.00  0.00    +0.000 C 
ATOM      5  N   UNL     1       2.128   4.199  19.936  0.00  0.00    +0.000 N 
ATOM      6  C   UNL     1       1.820   5.487  20.327  0.00  0.00    +0.000 C 
ATOM      7  O   UNL     1       0.798   5.711  20.988  0.00  0.00    +0.000 OA
ENDROOT
BRANCH   1   9
ATOM      8  O   UNL     1       5.470   3.378  19.473  0.00  0.00    +0.000 OA
ATOM      9  C   UNL     1       4.601   4.000  18.865  0.00  0.00    +0.000 C 
ATOM     10  N   UNL     1       4.895   5.031  17.993  0.00  0.00    +0.000 N 
ATOM     11  H   UNL     1       4.147   5.652  17.719  0.00  0.00    +0.000 HD
BRANCH  10  12
ATOM     12  C   UNL     1       6.255   5.426  17.597  0.00  0.00    +0.000 C 
ATOM     13  C   UNL     1       6.979   4.355  16.745  0.00  0.00    +0.000 C 
ATOM     14  C   UNL     1       6.436   4.262  15.343  0.00  0.00    +0.000 C 
ATOM     15  C   UNL     1       5.734   5.249  14.769  0.00  0.00    +0.000 C 
ATOM     16  C   UNL     1       5.461   6.561  15.452  0.00  0.00    +0.000 C 
ATOM     17  C   UNL     1       6.214   6.728  16.781  0.00  0.00    +0.000 C 
ENDBRANCH  10  12
ENDBRANCH   1   9
BRANCH   3  18
ATOM     18  O   UNL     1       0.838   1.738  18.259  0.00  0.00    +0.000 OA
ATOM     19  H   UNL     1       0.211   1.000  18.340  0.00  0.00    +0.000 HD
ENDBRANCH   3  18
BRANCH   6  20
ATOM     20  C   UNL     1       2.725   6.648  19.987  0.00  0.00    +0.000 C 
BRANCH  20  21
ATOM     21  C   UNL     1       2.029   7.929  19.585  0.00  0.00    +0.000 A 
ATOM     22  C   UNL     1       1.177   8.632  20.449  0.00  0.00    +0.000 A 
ATOM     23  C   UNL     1       0.480   9.762  19.997  0.00  0.00    +0.000 A 
ATOM     24  C   UNL     1       0.612  10.188  18.678  0.00  0.00    +0.000 A 
ATOM     25  C   UNL     1       1.439   9.489  17.807  0.00  0.00    +0.000 A 
ATOM     26  C   UNL     1       2.121   8.360  18.262  0.00  0.00    +0.000 A 
ATOM     27  F   UNL     1       2.854   7.663  17.385  0.00  0.00    +0.000 F 
ENDBRANCH  20  21
ENDBRANCH   6  20
TORSDOF 5
ENDMDL
MODEL 5
REMARK VINA RESULT:      -7.6      1.590      1.912
REMARK  Name = 
REMARK  5 active torsions:
REMARK  status: ('A' for Active; 'I' for Inactive)
REMARK    1  A    between atoms: C_2  and  C_10
REMARK    2  A    between atoms: N_3  and  C_4
REMARK    3  A    between atoms: C_12  and  O_13
REMARK    4  A    between atoms: C_16  and  C_18
REMARK    5  A    between atoms: C_18  and  C_19
REMARK                            x       y       z     vdW  Elec       q    Type
REMARK                         _______ _______ _______ _____ _____    ______ ____
ROOT
ATOM      1  C   UNL     1       5.071   4.163  17.258  0.00  0.00    +0.000 C 
ATOM      2  C   UNL     1       5.709   3.530  15.994  0.00  0.00    +0.000 C 
ATOM      3  C   UNL     1       6.620   4.620  15.466  0.00  0.00    +0.000 C 
ATOM      4  C   UNL     1       5.832   5.895  15.760  0.00  0.00    +0.000 C 
ATOM      5  N   UNL     1       4.840   5.548  16.787  0.00  0.00    +0.000 N 
ATOM      6  C   UNL     1       4.169   6.617  17.345  0.00  0.00    +0.000 C 
ATOM      7  O   UNL     1       4.329   7.758  16.894  0.00  0.00    +0.000 OA
ENDROOT
BRANCH   1   9
ATOM      8  O   UNL     1       3.345   2.434  16.976  0.00  0.00    +0.000 OA
ATOM      9  C   UNL     1       3.975   3.169  17.734  0.00  0.00    +0.000 C 
ATOM     10  N   UNL     1       3.816   3.136  19.106  0.00  0.00    +0.000 N 
ATOM     11  H   UNL     1       4.171   3.912  19.646  0.00  0.00    +0.000 HD
BRANCH  10  12
ATOM     12  C   UNL     1       2.983   2.160  19.826  0.00  0.00    +0.000 C 
ATOM     13  C   UNL     1       2.826   2.485  21.331  0.00  0.00    +0.000 C 
ATOM     14  C   UNL     1       1.923   3.664  21.580  0.00  0.00    +0.000 C 
ATOM     15  C   UNL     1       1.034   4.103  20.678  0.00  0.00    +0.000 C 
ATOM     16  C   UNL     1       0.821   3.432  19.350  0.00  0.00    +0.000 C 
ATOM     17  C   UNL     1       1.578   2.101  19.206  0.00  0.00    +0.000 C 
ENDBRANCH  10  12
ENDBRANCH   1   9
BRANCH   3  18
ATOM     18  O   UNL     1       7.870   4.574  16.154  0.00  0.00    +0.000 OA
ATOM     19  H   UNL     1       7.920   3.756  16.677  0.00  0.00    +0.000 HD
ENDBRANCH   3  18
BRANCH   6  20
ATOM     20  C   UNL     1       3.209   6.427  18.496  0.00  0.00    +0.000 C 
BRANCH  20  21
ATOM     21  C   UNL     1       2.269   7.581  18.767  0.00  0.00    +0.000 A 
ATOM     22  C   UNL     1       1.925   8.524  17.788  0.00  0.00    +0.000 A 
ATOM     23  C   UNL     1       1.126   9.630  18.115  0.00  0.00    +0.000 A 
ATOM     24  C   UNL     1       0.681   9.814  19.422  0.00  0.00    +0.000 A 
ATOM     25  C   UNL     1       1.031   8.896  20.405  0.00  0.00    +0.000 A 
ATOM     26  C   UNL     1       1.833   7.804  20.073  0.00  0.00    +0.000 A 
ATOM     27  F   UNL     1       2.216   6.974  21.052  0.00  0.00    +0.000 F 
ENDBRANCH  20  21
ENDBRANCH   6  20
TORSDOF 5
ENDMDL
MODEL 6
REMARK VINA RESULT:      -7.5      2.683      6.364
REMARK  Name = 
REMARK  5 active torsions:
REMARK  status: ('A' for Active; 'I' for Inactive)
REMARK    1  A    between atoms: C_2  and  C_10
REMARK    2  A    between atoms: N_3  and  C_4
REMARK    3  A    between atoms: C_12  and  O_13
REMARK    4  A    between atoms: C_16  and  C_18
REMARK    5  A    between atoms: C_18  and  C_19
REMARK                            x       y       z     vdW  Elec       q    Type
REMARK                         _______ _______ _______ _____ _____    ______ ____
ROOT
ATOM      1  C   UNL     1       2.472   4.927  20.506  0.00  0.00    +0.000 C 
ATOM      2  C   UNL     1       1.062   4.289  20.608  0.00  0.00    +0.000 C 
ATOM      3  C   UNL     1       1.342   2.861  21.028  0.00  0.00    +0.000 C 
ATOM      4  C   UNL     1       2.628   2.529  20.276  0.00  0.00    +0.000 C 
ATOM      5  N   UNL     1       3.235   3.814  19.896  0.00  0.00    +0.000 N 
ATOM      6  C   UNL     1       4.517   3.734  19.392  0.00  0.00    +0.000 C 
ATOM      7  O   UNL     1       5.035   2.632  19.173  0.00  0.00    +0.000 OA
ENDROOT
BRANCH   1   9
ATOM      8  O   UNL     1       2.366   6.573  18.682  0.00  0.00    +0.000 OA
ATOM      9  C   UNL     1       2.266   6.336  19.884  0.00  0.00    +0.000 C 
ATOM     10  N   UNL     1       1.893   7.297  20.804  0.00  0.00    +0.000 N 
ATOM     11  H   UNL     1       2.062   7.112  21.783  0.00  0.00    +0.000 HD
BRANCH  10  12
ATOM     12  C   UNL     1       1.460   8.660  20.458  0.00  0.00    +0.000 C 
ATOM     13  C   UNL     1      -0.071   8.784  20.265  0.00  0.00    +0.000 C 
ATOM     14  C   UNL     1      -0.829   8.713  21.564  0.00  0.00    +0.000 C 
ATOM     15  C   UNL     1      -0.257   8.949  22.753  0.00  0.00    +0.000 C 
ATOM     16  C   UNL     1       1.184   9.352  22.900  0.00  0.00    +0.000 C 
ATOM     17  C   UNL     1       1.878   9.646  21.560  0.00  0.00    +0.000 C 
ENDBRANCH  10  12
ENDBRANCH   1   9
BRANCH   3  18
ATOM     18  O   UNL     1       1.501   2.801  22.446  0.00  0.00    +0.000 OA
ATOM     19  H   UNL     1       0.653   2.562  22.855  0.00  0.00    +0.000 HD
ENDBRANCH   3  18
BRANCH   6  20
ATOM     20  C   UNL     1       5.313   4.978  19.073  0.00  0.00    +0.000 C 
BRANCH  20  21
ATOM     21  C   UNL     1       5.734   5.138  17.629  0.00  0.00    +0.000 A 
ATOM     22  C   UNL     1       4.839   5.514  16.616  0.00  0.00    +0.000 A 
ATOM     23  C   UNL     1       5.257   5.554  15.277  0.00  0.00    +0.000 A 
ATOM     24  C   UNL     1       6.561   5.203  14.937  0.00  0.00    +0.000 A 
ATOM     25  C   UNL     1       7.451   4.812  15.929  0.00  0.00    +0.000 A 
ATOM     26  C   UNL     1       7.025   4.765  17.256  0.00  0.00    +0.000 A 
ATOM     27  F   UNL     1       7.880   4.315  18.184  0.00  0.00    +0.000 F 
ENDBRANCH  20  21
ENDBRANCH   6  20
TORSDOF 5
ENDMDL
MODEL 7
REMARK VINA RESULT:      -7.4      1.598      1.885
REMARK  Name = 
REMARK  5 active torsions:
REMARK  status: ('A' for Active; 'I' for Inactive)
REMARK    1  A    between atoms: C_2  and  C_10
REMARK    2  A    between atoms: N_3  and  C_4
REMARK    3  A    between atoms: C_12  and  O_13
REMARK    4  A    between atoms: C_16  and  C_18
REMARK    5  A    between atoms: C_18  and  C_19
REMARK                            x       y       z     vdW  Elec       q    Type
REMARK                         _______ _______ _______ _____ _____    ______ ____
ROOT
ATOM      1  C   UNL     1       5.494   5.160  17.923  0.00  0.00    +0.000 C 
ATOM      2  C   UNL     1       6.146   4.375  16.757  0.00  0.00    +0.000 C 
ATOM      3  C   UNL     1       6.357   5.427  15.687  0.00  0.00    +0.000 C 
ATOM      4  C   UNL     1       5.126   6.318  15.838  0.00  0.00    +0.000 C 
ATOM      5  N   UNL     1       4.579   6.055  17.177  0.00  0.00    +0.000 N 
ATOM      6  C   UNL     1       3.586   6.920  17.589  0.00  0.00    +0.000 C 
ATOM      7  O   UNL     1       3.129   7.764  16.807  0.00  0.00    +0.000 OA
ENDROOT
BRANCH   1   9
ATOM      8  O   UNL     1       5.562   4.016  20.099  0.00  0.00    +0.000 OA
ATOM      9  C   UNL     1       5.069   4.099  18.976  0.00  0.00    +0.000 C 
ATOM     10  N   UNL     1       4.029   3.291  18.557  0.00  0.00    +0.000 N 
ATOM     11  H   UNL     1       3.834   3.238  17.568  0.00  0.00    +0.000 HD
BRANCH  10  12
ATOM     12  C   UNL     1       3.318   2.334  19.419  0.00  0.00    +0.000 C 
ATOM     13  C   UNL     1       2.965   2.911  20.812  0.00  0.00    +0.000 C 
ATOM     14  C   UNL     1       1.849   3.921  20.757  0.00  0.00    +0.000 C 
ATOM     15  C   UNL     1       0.985   3.995  19.734  0.00  0.00    +0.000 C 
ATOM     16  C   UNL     1       1.019   3.048  18.567  0.00  0.00    +0.000 C 
ATOM     17  C   UNL     1       2.009   1.886  18.749  0.00  0.00    +0.000 C 
ENDBRANCH  10  12
ENDBRANCH   1   9
BRANCH   3  18
ATOM     18  O   UNL     1       7.577   6.125  15.936  0.00  0.00    +0.000 OA
ATOM     19  H   UNL     1       7.434   6.784  16.635  0.00  0.00    +0.000 HD
ENDBRANCH   3  18
BRANCH   6  20
ATOM     20  C   UNL     1       3.014   6.850  18.985  0.00  0.00    +0.000 C 
BRANCH  20  21
ATOM     21  C   UNL     1       2.016   7.928  19.343  0.00  0.00    +0.000 A 
ATOM     22  C   UNL     1       1.745   9.019  18.505  0.00  0.00    +0.000 A 
ATOM     23  C   UNL     1       0.883  10.043  18.925  0.00  0.00    +0.000 A 
ATOM     24  C   UNL     1       0.301   9.997  20.189  0.00  0.00    +0.000 A 
ATOM     25  C   UNL     1       0.576   8.930  21.037  0.00  0.00    +0.000 A 
ATOM     26  C   UNL     1       1.442   7.922  20.615  0.00  0.00    +0.000 A 
ATOM     27  F   UNL     1       1.748   6.943  21.476  0.00  0.00    +0.000 F 
ENDBRANCH  20  21
ENDBRANCH   6  20
TORSDOF 5
ENDMDL
MODEL 8
REMARK VINA RESULT:      -7.3      2.143      5.846
REMARK  Name = 
REMARK  5 active torsions:
REMARK  status: ('A' for Active; 'I' for Inactive)
REMARK    1  A    between atoms: C_2  and  C_10
REMARK    2  A    between atoms: N_3  and  C_4
REMARK    3  A    between atoms: C_12  and  O_13
REMARK    4  A    between atoms: C_16  and  C_18
REMARK    5  A    between atoms: C_18  and  C_19
REMARK                            x       y       z     vdW  Elec       q    Type
REMARK                         _______ _______ _______ _____ _____    ______ ____
ROOT
ATOM      1  C   UNL     1       2.577   5.332  19.948  0.00  0.00    +0.000 C 
ATOM      2  C   UNL     1       1.378   4.870  20.816  0.00  0.00    +0.000 C 
ATOM      3  C   UNL     1       1.655   3.401  21.061  0.00  0.00    +0.000 C 
ATOM      4  C   UNL     1       2.276   2.946  19.742  0.00  0.00    +0.000 C 
ATOM      5  N   UNL     1       2.739   4.161  19.056  0.00  0.00    +0.000 N 
ATOM      6  C   UNL     1       3.523   3.946  17.941  0.00  0.00    +0.000 C 
ATOM      7  O   UNL     1       3.694   2.799  17.509  0.00  0.00    +0.000 OA
ENDROOT
BRANCH   1   9
ATOM      8  O   UNL     1       2.236   7.143  18.320  0.00  0.00    +0.000 OA
ATOM      9  C   UNL     1       2.251   6.782  19.495  0.00  0.00    +0.000 C 
ATOM     10  N   UNL     1       1.910   7.624  20.537  0.00  0.00    +0.000 N 
ATOM     11  H   UNL     1       2.171   7.353  21.474  0.00  0.00    +0.000 HD
BRANCH  10  12
ATOM     12  C   UNL     1       1.383   8.987  20.369  0.00  0.00    +0.000 C 
ATOM     13  C   UNL     1      -0.155   9.031  20.200  0.00  0.00    +0.000 C 
ATOM     14  C   UNL     1      -0.890   8.744  21.482  0.00  0.00    +0.000 C 
ATOM     15  C   UNL     1      -0.320   8.864  22.689  0.00  0.00    +0.000 C 
ATOM     16  C   UNL     1       1.092   9.342  22.881  0.00  0.00    +0.000 C 
ATOM     17  C   UNL     1       1.748   9.851  21.588  0.00  0.00    +0.000 C 
ENDBRANCH  10  12
ENDBRANCH   1   9
BRANCH   3  18
ATOM     18  O   UNL     1       2.547   3.259  22.167  0.00  0.00    +0.000 OA
ATOM     19  H   UNL     1       3.464   3.314  21.850  0.00  0.00    +0.000 HD
ENDBRANCH   3  18
BRANCH   6  20
ATOM     20  C   UNL     1       4.172   5.095  17.204  0.00  0.00    +0.000 C 
BRANCH  20  21
ATOM     21  C   UNL     1       5.525   5.529  17.720  0.00  0.00    +0.000 A 
ATOM     22  C   UNL     1       6.072   5.041  18.916  0.00  0.00    +0.000 A 
ATOM     23  C   UNL     1       7.287   5.548  19.402  0.00  0.00    +0.000 A 
ATOM     24  C   UNL     1       7.955   6.555  18.710  0.00  0.00    +0.000 A 
ATOM     25  C   UNL     1       7.414   7.059  17.533  0.00  0.00    +0.000 A 
ATOM     26  C   UNL     1       6.201   6.557  17.063  0.00  0.00    +0.000 A 
ATOM     27  F   UNL     1       5.665   7.110  15.967  0.00  0.00    +0.000 F 
ENDBRANCH  20  21
ENDBRANCH   6  20
TORSDOF 5
ENDMDL
MODEL 9
REMARK VINA RESULT:      -7.3      3.218      5.570
REMARK  Name = 
REMARK  5 active torsions:
REMARK  status: ('A' for Active; 'I' for Inactive)
REMARK    1  A    between atoms: C_2  and  C_10
REMARK    2  A    between atoms: N_3  and  C_4
REMARK    3  A    between atoms: C_12  and  O_13
REMARK    4  A    between atoms: C_16  and  C_18
REMARK    5  A    between atoms: C_18  and  C_19
REMARK                            x       y       z     vdW  Elec       q    Type
REMARK                         _______ _______ _______ _____ _____    ______ ____
ROOT
ATOM      1  C   UNL     1       4.184   5.443  17.104  0.00  0.00    +0.000 C 
ATOM      2  C   UNL     1       3.391   6.226  18.182  0.00  0.00    +0.000 C 
ATOM      3  C   UNL     1       3.758   7.672  17.920  0.00  0.00    +0.000 C 
ATOM      4  C   UNL     1       5.225   7.583  17.507  0.00  0.00    +0.000 C 
ATOM      5  N   UNL     1       5.464   6.188  17.107  0.00  0.00    +0.000 N 
ATOM      6  C   UNL     1       6.678   5.949  16.496  0.00  0.00    +0.000 C 
ATOM      7  O   UNL     1       7.528   6.845  16.424  0.00  0.00    +0.000 OA
ENDROOT
BRANCH   1   9
ATOM      8  O   UNL     1       4.403   3.023  16.725  0.00  0.00    +0.000 OA
ATOM      9  C   UNL     1       4.008   3.937  17.446  0.00  0.00    +0.000 C 
ATOM     10  N   UNL     1       3.422   3.714  18.677  0.00  0.00    +0.000 N 
ATOM     11  H   UNL     1       2.907   4.471  19.105  0.00  0.00    +0.000 HD
BRANCH  10  12
ATOM     12  C   UNL     1       3.307   2.395  19.320  0.00  0.00    +0.000 C 
ATOM     13  C   UNL     1       3.457   2.451  20.859  0.00  0.00    +0.000 C 
ATOM     14  C   UNL     1       2.255   3.054  21.540  0.00  0.00    +0.000 C 
ATOM     15  C   UNL     1       1.052   3.131  20.955  0.00  0.00    +0.000 C 
ATOM     16  C   UNL     1       0.773   2.581  19.584  0.00  0.00    +0.000 C 
ATOM     17  C   UNL     1       1.940   1.767  19.001  0.00  0.00    +0.000 C 
ENDBRANCH  10  12
ENDBRANCH   1   9
BRANCH   3  18
ATOM     18  O   UNL     1       2.925   8.198  16.886  0.00  0.00    +0.000 OA
ATOM     19  H   UNL     1       2.689   9.116  17.099  0.00  0.00    +0.000 HD
ENDBRANCH   3  18
BRANCH   6  20
ATOM     20  C   UNL     1       7.014   4.592  15.923  0.00  0.00    +0.000 C 
BRANCH  20  21
ATOM     21  C   UNL     1       6.725   4.409  14.450  0.00  0.00    +0.000 A 
ATOM     22  C   UNL     1       5.683   3.599  13.977  0.00  0.00    +0.000 A 
ATOM     23  C   UNL     1       5.517   3.385  12.600  0.00  0.00    +0.000 A 
ATOM     24  C   UNL     1       6.398   3.961  11.688  0.00  0.00    +0.000 A 
ATOM     25  C   UNL     1       7.445   4.751  12.145  0.00  0.00    +0.000 A 
ATOM     26  C   UNL     1       7.609   4.951  13.516  0.00  0.00    +0.000 A 
ATOM     27  F   UNL     1       8.668   5.656  13.935  0.00  0.00    +0.000 F 
ENDBRANCH  20  21
ENDBRANCH   6  20
TORSDOF 5
ENDMDL
