MODEL 1
REMARK VINA RESULT:      -6.7      0.000      0.000
REMARK  Name = 
REMARK  4 active torsions:
REMARK  status: ('A' for Active; 'I' for Inactive)
REMARK    1  A    between atoms: C_1  and  C_2
REMARK    2  A    between atoms: C_7  and  C_8
REMARK    3  A    between atoms: C_16  and  C_17
REMARK    4  A    between atoms: C_18  and  C_19
REMARK                            x       y       z     vdW  Elec       q    Type
REMARK                         _______ _______ _______ _____ _____    ______ ____
ROOT
ATOM      1  C   UNL     1      -5.368  12.280  18.737  0.00  0.00    +0.000 C 
ATOM      2  C   UNL     1      -5.308  12.128  17.198  0.00  0.00    +0.000 C 
ATOM      3  C   UNL     1      -4.237  11.178  16.664  0.00  0.00    +0.000 C 
ATOM      4  O   UNL     1      -4.351  10.620  15.574  0.00  0.00    +0.000 OA
ATOM      5  N   UNL     1      -3.076  11.058  17.381  0.00  0.00    +0.000 N 
ATOM      6  C   UNL     1      -2.977  11.616  18.619  0.00  0.00    +0.000 A 
ATOM      7  S   UNL     1      -1.471  11.638  19.341  0.00  0.00    +0.000 S 
ATOM      8  C   UNL     1      -2.062  12.612  20.643  0.00  0.00    +0.000 A 
ATOM      9  C   UNL     1      -1.329  13.226  21.683  0.00  0.00    +0.000 A 
ATOM     10  C   UNL     1       0.177  13.200  21.765  0.00  0.00    +0.000 C 
ATOM     11  C   UNL     1      -2.095  13.908  22.648  0.00  0.00    +0.000 A 
ATOM     12  C   UNL     1      -3.487  13.961  22.524  0.00  0.00    +0.000 A 
ATOM     13  N   UNL     1      -4.276  14.653  23.450  0.00  0.00    +0.000 N 
ATOM     14  N   UNL     1      -4.170  13.441  21.488  0.00  0.00    +0.000 NA
ATOM     15  C   UNL     1      -3.457  12.764  20.550  0.00  0.00    +0.000 A 
ATOM     16  C   UNL     1      -3.987  12.198  19.333  0.00  0.00    +0.000 A 
ATOM     17  H   UNL     1      -2.298  10.555  16.975  0.00  0.00    +0.000 HD
ATOM     18  H   UNL     1      -4.073  14.417  24.418  0.00  0.00    +0.000 HD
ATOM     19  H   UNL     1      -5.252  14.500  23.215  0.00  0.00    +0.000 HD
ENDROOT
BRANCH   1  26
ATOM     20  C   UNL     1      -7.364  12.998  20.953  0.00  0.00    +0.000 C 
ATOM     21  C   UNL     1      -7.160  11.588  20.461  0.00  0.00    +0.000 A 
ATOM     22  C   UNL     1      -7.915  10.581  21.097  0.00  0.00    +0.000 A 
ATOM     23  C   UNL     1      -7.847   9.256  20.681  0.00  0.00    +0.000 A 
ATOM     24  C   UNL     1      -7.032   8.918  19.612  0.00  0.00    +0.000 A 
ATOM     25  C   UNL     1      -6.245   9.895  18.996  0.00  0.00    +0.000 A 
ATOM     26  C   UNL     1      -6.258  11.241  19.423  0.00  0.00    +0.000 A 
ENDBRANCH   1  26
BRANCH  11  27
ATOM     27  C   UNL     1      -1.452  14.556  23.759  0.00  0.00    +0.000 C 
ATOM     28  N   UNL     1      -0.966  15.085  24.669  0.00  0.00    +0.000 NA
ENDBRANCH  11  27
TORSDOF 2
ENDMDL
MODEL 2
REMARK VINA RESULT:      -6.4      2.725      5.382
REMARK  Name = 
REMARK  4 active torsions:
REMARK  status: ('A' for Active; 'I' for Inactive)
REMARK    1  A    between atoms: C_1  and  C_2
REMARK    2  A    between atoms: C_7  and  C_8
REMARK    3  A    between atoms: C_16  and  C_17
REMARK    4  A    between atoms: C_18  and  C_19
REMARK                            x       y       z     vdW  Elec       q    Type
REMARK                         _______ _______ _______ _____ _____    ______ ____
ROOT
ATOM      1  C   UNL     1      -2.501  10.663  18.513  0.00  0.00    +0.000 C 
ATOM      2  C   UNL     1      -2.457   9.756  17.260  0.00  0.00    +0.000 C 
ATOM      3  C   UNL     1      -2.971  10.385  15.965  0.00  0.00    +0.000 C 
ATOM      4  O   UNL     1      -2.595   9.993  14.861  0.00  0.00    +0.000 OA
ATOM      5  N   UNL     1      -3.963  11.324  16.061  0.00  0.00    +0.000 N 
ATOM      6  C   UNL     1      -4.327  11.811  17.279  0.00  0.00    +0.000 A 
ATOM      7  S   UNL     1      -5.691  12.771  17.354  0.00  0.00    +0.000 S 
ATOM      8  C   UNL     1      -5.631  12.796  19.083  0.00  0.00    +0.000 A 
ATOM      9  C   UNL     1      -6.582  13.320  19.988  0.00  0.00    +0.000 A 
ATOM     10  C   UNL     1      -7.913  13.885  19.559  0.00  0.00    +0.000 C 
ATOM     11  C   UNL     1      -6.227  13.259  21.349  0.00  0.00    +0.000 A 
ATOM     12  C   UNL     1      -5.009  12.685  21.727  0.00  0.00    +0.000 A 
ATOM     13  N   UNL     1      -4.637  12.584  23.072  0.00  0.00    +0.000 N 
ATOM     14  N   UNL     1      -4.145  12.118  20.866  0.00  0.00    +0.000 NA
ATOM     15  C   UNL     1      -4.456  12.176  19.544  0.00  0.00    +0.000 A 
ATOM     16  C   UNL     1      -3.704  11.569  18.473  0.00  0.00    +0.000 A 
ATOM     17  H   UNL     1      -4.420  11.643  15.218  0.00  0.00    +0.000 HD
ATOM     18  H   UNL     1      -4.728  13.454  23.589  0.00  0.00    +0.000 HD
ATOM     19  H   UNL     1      -3.694  12.210  23.116  0.00  0.00    +0.000 HD
ENDROOT
BRANCH   1  26
ATOM     20  C   UNL     1      -0.067   9.750  20.142  0.00  0.00    +0.000 C 
ATOM     21  C   UNL     1      -0.141  11.095  19.467  0.00  0.00    +0.000 A 
ATOM     22  C   UNL     1       0.964  11.954  19.644  0.00  0.00    +0.000 A 
ATOM     23  C   UNL     1       1.022  13.193  19.016  0.00  0.00    +0.000 A 
ATOM     24  C   UNL     1      -0.017  13.589  18.189  0.00  0.00    +0.000 A 
ATOM     25  C   UNL     1      -1.138  12.770  18.034  0.00  0.00    +0.000 A 
ATOM     26  C   UNL     1      -1.249  11.525  18.692  0.00  0.00    +0.000 A 
ENDBRANCH   1  26
BRANCH  11  27
ATOM     27  C   UNL     1      -7.114  13.778  22.354  0.00  0.00    +0.000 C 
ATOM     28  N   UNL     1      -7.803  14.193  23.189  0.00  0.00    +0.000 NA
ENDBRANCH  11  27
TORSDOF 2
ENDMDL
MODEL 3
REMARK VINA RESULT:      -6.4      4.264      6.645
REMARK  Name = 
REMARK  4 active torsions:
REMARK  status: ('A' for Active; 'I' for Inactive)
REMARK    1  A    between atoms: C_1  and  C_2
REMARK    2  A    between atoms: C_7  and  C_8
REMARK    3  A    between atoms: C_16  and  C_17
REMARK    4  A    between atoms: C_18  and  C_19
REMARK                            x       y       z     vdW  Elec       q    Type
REMARK                         _______ _______ _______ _____ _____    ______ ____
ROOT
ATOM      1  C   UNL     1       0.222  11.318  20.796  0.00  0.00    +0.000 C 
ATOM      2  C   UNL     1      -0.363  10.707  22.091  0.00  0.00    +0.000 C 
ATOM      3  C   UNL     1      -1.308  11.608  22.886  0.00  0.00    +0.000 C 
ATOM      4  O   UNL     1      -2.168  11.146  23.634  0.00  0.00    +0.000 OA
ATOM      5  N   UNL     1      -1.091  12.959  22.838  0.00  0.00    +0.000 N 
ATOM      6  C   UNL     1      -0.190  13.476  21.958  0.00  0.00    +0.000 A 
ATOM      7  S   UNL     1       0.200  15.092  22.107  0.00  0.00    +0.000 S 
ATOM      8  C   UNL     1       1.443  14.947  20.911  0.00  0.00    +0.000 A 
ATOM      9  C   UNL     1       2.407  15.905  20.525  0.00  0.00    +0.000 A 
ATOM     10  C   UNL     1       2.566  17.243  21.204  0.00  0.00    +0.000 C 
ATOM     11  C   UNL     1       3.254  15.525  19.467  0.00  0.00    +0.000 A 
ATOM     12  C   UNL     1       3.121  14.260  18.886  0.00  0.00    +0.000 A 
ATOM     13  N   UNL     1       3.964  13.841  17.851  0.00  0.00    +0.000 N 
ATOM     14  N   UNL     1       2.253  13.325  19.312  0.00  0.00    +0.000 NA
ATOM     15  C   UNL     1       1.412  13.671  20.323  0.00  0.00    +0.000 A 
ATOM     16  C   UNL     1       0.464  12.796  20.968  0.00  0.00    +0.000 A 
ATOM     17  H   UNL     1      -1.604  13.561  23.468  0.00  0.00    +0.000 HD
ATOM     18  H   UNL     1       4.042  14.510  17.090  0.00  0.00    +0.000 HD
ATOM     19  H   UNL     1       3.647  12.931  17.530  0.00  0.00    +0.000 HD
ENDROOT
BRANCH   1  26
ATOM     20  C   UNL     1       0.989   9.439  18.495  0.00  0.00    +0.000 C 
ATOM     21  C   UNL     1      -0.281  10.252  18.499  0.00  0.00    +0.000 A 
ATOM     22  C   UNL     1      -1.107  10.140  17.362  0.00  0.00    +0.000 A 
ATOM     23  C   UNL     1      -2.328  10.802  17.289  0.00  0.00    +0.000 A 
ATOM     24  C   UNL     1      -2.750  11.576  18.359  0.00  0.00    +0.000 A 
ATOM     25  C   UNL     1      -1.926  11.732  19.477  0.00  0.00    +0.000 A 
ATOM     26  C   UNL     1      -0.661  11.109  19.564  0.00  0.00    +0.000 A 
ENDBRANCH   1  26
BRANCH  11  27
ATOM     27  C   UNL     1       4.262  16.430  18.984  0.00  0.00    +0.000 C 
ATOM     28  N   UNL     1       5.093  17.153  18.625  0.00  0.00    +0.000 NA
ENDBRANCH  11  27
TORSDOF 2
ENDMDL
MODEL 4
REMARK VINA RESULT:      -6.4      3.645      6.969
REMARK  Name = 
REMARK  4 active torsions:
REMARK  status: ('A' for Active; 'I' for Inactive)
REMARK    1  A    between atoms: C_1  and  C_2
REMARK    2  A    between atoms: C_7  and  C_8
REMARK    3  A    between atoms: C_16  and  C_17
REMARK    4  A    between atoms: C_18  and  C_19
REMARK                            x       y       z     vdW  Elec       q    Type
REMARK                         _______ _______ _______ _____ _____    ______ ____
ROOT
ATOM      1  C   UNL     1       0.735  11.747  19.445  0.00  0.00    +0.000 C 
ATOM      2  C   UNL     1       1.860  12.756  19.774  0.00  0.00    +0.000 C 
ATOM      3  C   UNL     1       1.733  13.484  21.111  0.00  0.00    +0.000 C 
ATOM      4  O   UNL     1       2.714  13.937  21.699  0.00  0.00    +0.000 OA
ATOM      5  N   UNL     1       0.472  13.730  21.586  0.00  0.00    +0.000 N 
ATOM      6  C   UNL     1      -0.609  13.169  20.978  0.00  0.00    +0.000 A 
ATOM      7  S   UNL     1      -2.123  13.689  21.452  0.00  0.00    +0.000 S 
ATOM      8  C   UNL     1      -2.879  12.776  20.192  0.00  0.00    +0.000 A 
ATOM      9  C   UNL     1      -4.235  12.783  19.794  0.00  0.00    +0.000 A 
ATOM     10  C   UNL     1      -5.268  13.712  20.382  0.00  0.00    +0.000 C 
ATOM     11  C   UNL     1      -4.575  11.876  18.773  0.00  0.00    +0.000 A 
ATOM     12  C   UNL     1      -3.591  11.059  18.207  0.00  0.00    +0.000 A 
ATOM     13  N   UNL     1      -3.890  10.167  17.173  0.00  0.00    +0.000 N 
ATOM     14  N   UNL     1      -2.288  11.115  18.538  0.00  0.00    +0.000 NA
ATOM     15  C   UNL     1      -1.934  11.972  19.532  0.00  0.00    +0.000 A 
ATOM     16  C   UNL     1      -0.588  12.232  19.982  0.00  0.00    +0.000 A 
ATOM     17  H   UNL     1       0.359  14.336  22.387  0.00  0.00    +0.000 HD
ATOM     18  H   UNL     1      -4.693   9.574  17.362  0.00  0.00    +0.000 HD
ATOM     19  H   UNL     1      -3.055   9.626  16.967  0.00  0.00    +0.000 HD
ENDROOT
BRANCH   1  26
ATOM     20  C   UNL     1       1.862   9.476  17.718  0.00  0.00    +0.000 C 
ATOM     21  C   UNL     1       1.495   9.295  19.168  0.00  0.00    +0.000 A 
ATOM     22  C   UNL     1       1.661   8.002  19.706  0.00  0.00    +0.000 A 
ATOM     23  C   UNL     1       1.408   7.741  21.048  0.00  0.00    +0.000 A 
ATOM     24  C   UNL     1       0.997   8.772  21.879  0.00  0.00    +0.000 A 
ATOM     25  C   UNL     1       0.787  10.051  21.355  0.00  0.00    +0.000 A 
ATOM     26  C   UNL     1       0.992  10.339  19.987  0.00  0.00    +0.000 A 
ENDBRANCH   1  26
BRANCH  11  27
ATOM     27  C   UNL     1      -5.931  11.790  18.302  0.00  0.00    +0.000 C 
ATOM     28  N   UNL     1      -7.021  11.684  17.922  0.00  0.00    +0.000 NA
ENDBRANCH  11  27
TORSDOF 2
ENDMDL
MODEL 5
REMARK VINA RESULT:      -6.4      2.765      6.384
REMARK  Name = 
REMARK  4 active torsions:
REMARK  status: ('A' for Active; 'I' for Inactive)
REMARK    1  A    between atoms: C_1  and  C_2
REMARK    2  A    between atoms: C_7  and  C_8
REMARK    3  A    between atoms: C_16  and  C_17
REMARK    4  A    between atoms: C_18  and  C_19
REMARK                            x       y       z     vdW  Elec       q    Type
REMARK                         _______ _______ _______ _____ _____    ______ ____
ROOT
ATOM      1  C   UNL     1       0.097  11.386  19.907  0.00  0.00    +0.000 C 
ATOM      2  C   UNL     1       0.966  10.152  19.564  0.00  0.00    +0.000 C 
ATOM      3  C   UNL     1       0.914   9.684  18.110  0.00  0.00    +0.000 C 
ATOM      4  O   UNL     1       1.839   9.055  17.599  0.00  0.00    +0.000 OA
ATOM      5  N   UNL     1      -0.252   9.877  17.419  0.00  0.00    +0.000 N 
ATOM      6  C   UNL     1      -1.248  10.635  17.956  0.00  0.00    +0.000 A 
ATOM      7  S   UNL     1      -2.724  10.641  17.176  0.00  0.00    +0.000 S 
ATOM      8  C   UNL     1      -3.447  11.548  18.461  0.00  0.00    +0.000 A 
ATOM      9  C   UNL     1      -4.809  11.874  18.647  0.00  0.00    +0.000 A 
ATOM     10  C   UNL     1      -5.914  11.371  17.752  0.00  0.00    +0.000 C 
ATOM     11  C   UNL     1      -5.093  12.690  19.759  0.00  0.00    +0.000 A 
ATOM     12  C   UNL     1      -4.059  13.104  20.604  0.00  0.00    +0.000 A 
ATOM     13  N   UNL     1      -4.311  13.893  21.732  0.00  0.00    +0.000 N 
ATOM     14  N   UNL     1      -2.776  12.724  20.463  0.00  0.00    +0.000 NA
ATOM     15  C   UNL     1      -2.471  11.948  19.390  0.00  0.00    +0.000 A 
ATOM     16  C   UNL     1      -1.177  11.379  19.101  0.00  0.00    +0.000 A 
ATOM     17  H   UNL     1      -0.361   9.446  16.511  0.00  0.00    +0.000 HD
ATOM     18  H   UNL     1      -4.883  14.710  21.541  0.00  0.00    +0.000 HD
ATOM     19  H   UNL     1      -3.421  14.138  22.155  0.00  0.00    +0.000 HD
ENDROOT
BRANCH   1  26
ATOM     20  C   UNL     1       0.069  13.659  21.966  0.00  0.00    +0.000 C 
ATOM     21  C   UNL     1       0.768  13.770  20.635  0.00  0.00    +0.000 A 
ATOM     22  C   UNL     1       1.395  15.000  20.350  0.00  0.00    +0.000 A 
ATOM     23  C   UNL     1       2.115  15.188  19.176  0.00  0.00    +0.000 A 
ATOM     24  C   UNL     1       2.234  14.143  18.273  0.00  0.00    +0.000 A 
ATOM     25  C   UNL     1       1.585  12.930  18.518  0.00  0.00    +0.000 A 
ATOM     26  C   UNL     1       0.808  12.721  19.680  0.00  0.00    +0.000 A 
ENDBRANCH   1  26
BRANCH  11  27
ATOM     27  C   UNL     1      -6.445  13.095  20.034  0.00  0.00    +0.000 C 
ATOM     28  N   UNL     1      -7.523  13.449  20.276  0.00  0.00    +0.000 NA
ENDBRANCH  11  27
TORSDOF 2
ENDMDL
MODEL 6
REMARK VINA RESULT:      -6.4      3.044      5.061
REMARK  Name = 
REMARK  4 active torsions:
REMARK  status: ('A' for Active; 'I' for Inactive)
REMARK    1  A    between atoms: C_1  and  C_2
REMARK    2  A    between atoms: C_7  and  C_8
REMARK    3  A    between atoms: C_16  and  C_17
REMARK    4  A    between atoms: C_18  and  C_19
REMARK                            x       y       z     vdW  Elec       q    Type
REMARK                         _______ _______ _______ _____ _____    ______ ____
ROOT
ATOM      1  C   UNL     1      -4.352  14.115  20.948  0.00  0.00    +0.000 C 
ATOM      2  C   UNL     1      -5.470  15.072  20.469  0.00  0.00    +0.000 C 
ATOM      3  C   UNL     1      -6.634  14.417  19.725  0.00  0.00    +0.000 C 
ATOM      4  O   UNL     1      -7.751  14.929  19.692  0.00  0.00    +0.000 OA
ATOM      5  N   UNL     1      -6.368  13.296  18.985  0.00  0.00    +0.000 N 
ATOM      6  C   UNL     1      -5.153  12.688  19.077  0.00  0.00    +0.000 A 
ATOM      7  S   UNL     1      -4.809  11.473  17.985  0.00  0.00    +0.000 S 
ATOM      8  C   UNL     1      -3.173  11.377  18.542  0.00  0.00    +0.000 A 
ATOM      9  C   UNL     1      -2.103  10.630  18.000  0.00  0.00    +0.000 A 
ATOM     10  C   UNL     1      -2.209   9.834  16.724  0.00  0.00    +0.000 C 
ATOM     11  C   UNL     1      -0.891  10.696  18.714  0.00  0.00    +0.000 A 
ATOM     12  C   UNL     1      -0.802  11.481  19.868  0.00  0.00    +0.000 A 
ATOM     13  N   UNL     1       0.394  11.588  20.586  0.00  0.00    +0.000 N 
ATOM     14  N   UNL     1      -1.803  12.250  20.333  0.00  0.00    +0.000 NA
ATOM     15  C   UNL     1      -2.989  12.195  19.671  0.00  0.00    +0.000 A 
ATOM     16  C   UNL     1      -4.156  12.991  19.963  0.00  0.00    +0.000 A 
ATOM     17  H   UNL     1      -7.083  12.934  18.369  0.00  0.00    +0.000 HD
ATOM     18  H   UNL     1       0.824  10.694  20.803  0.00  0.00    +0.000 HD
ATOM     19  H   UNL     1       0.217  12.141  21.420  0.00  0.00    +0.000 HD
ENDROOT
BRANCH   1  26
ATOM     20  C   UNL     1      -2.222  14.028  23.153  0.00  0.00    +0.000 C 
ATOM     21  C   UNL     1      -3.606  13.461  23.332  0.00  0.00    +0.000 A 
ATOM     22  C   UNL     1      -3.883  12.843  24.569  0.00  0.00    +0.000 A 
ATOM     23  C   UNL     1      -5.146  12.339  24.857  0.00  0.00    +0.000 A 
ATOM     24  C   UNL     1      -6.160  12.458  23.919  0.00  0.00    +0.000 A 
ATOM     25  C   UNL     1      -5.894  13.031  22.672  0.00  0.00    +0.000 A 
ATOM     26  C   UNL     1      -4.610  13.511  22.330  0.00  0.00    +0.000 A 
ENDBRANCH   1  26
BRANCH  11  27
ATOM     27  C   UNL     1       0.259   9.962  18.259  0.00  0.00    +0.000 C 
ATOM     28  N   UNL     1       1.206   9.401  17.895  0.00  0.00    +0.000 NA
ENDBRANCH  11  27
TORSDOF 2
ENDMDL
MODEL 7
REMARK VINA RESULT:      -6.3      3.917      5.886
REMARK  Name = 
REMARK  4 active torsions:
REMARK  status: ('A' for Active; 'I' for Inactive)
REMARK    1  A    between atoms: C_1  and  C_2
REMARK    2  A    between atoms: C_7  and  C_8
REMARK    3  A    between atoms: C_16  and  C_17
REMARK    4  A    between atoms: C_18  and  C_19
REMARK                            x       y       z     vdW  Elec       q    Type
REMARK                         _______ _______ _______ _____ _____    ______ ____
ROOT
ATOM      1  C   UNL     1      -1.385  11.995  20.426  0.00  0.00    +0.000 C 
ATOM      2  C   UNL     1      -2.300  11.772  21.654  0.00  0.00    +0.000 C 
ATOM      3  C   UNL     1      -3.391  12.820  21.871  0.00  0.00    +0.000 C 
ATOM      4  O   UNL     1      -4.427  12.560  22.481  0.00  0.00    +0.000 OA
ATOM      5  N   UNL     1      -3.132  14.103  21.471  0.00  0.00    +0.000 N 
ATOM      6  C   UNL     1      -2.021  14.378  20.732  0.00  0.00    +0.000 A 
ATOM      7  S   UNL     1      -1.638  15.982  20.476  0.00  0.00    +0.000 S 
ATOM      8  C   UNL     1      -0.135  15.549  19.735  0.00  0.00    +0.000 A 
ATOM      9  C   UNL     1       0.923  16.396  19.332  0.00  0.00    +0.000 A 
ATOM     10  C   UNL     1       0.940  17.882  19.589  0.00  0.00    +0.000 C 
ATOM     11  C   UNL     1       2.002  15.760  18.690  0.00  0.00    +0.000 A 
ATOM     12  C   UNL     1       1.987  14.373  18.508  0.00  0.00    +0.000 A 
ATOM     13  N   UNL     1       3.055  13.707  17.897  0.00  0.00    +0.000 N 
ATOM     14  N   UNL     1       1.013  13.566  18.964  0.00  0.00    +0.000 NA
ATOM     15  C   UNL     1      -0.049  14.155  19.575  0.00  0.00    +0.000 A 
ATOM     16  C   UNL     1      -1.155  13.466  20.195  0.00  0.00    +0.000 A 
ATOM     17  H   UNL     1      -3.772  14.839  21.736  0.00  0.00    +0.000 HD
ATOM     18  H   UNL     1       3.344  14.119  17.015  0.00  0.00    +0.000 HD
ATOM     19  H   UNL     1       2.806  12.727  17.800  0.00  0.00    +0.000 HD
ENDROOT
BRANCH   1  26
ATOM     20  C   UNL     1       0.196   9.968  18.752  0.00  0.00    +0.000 C 
ATOM     21  C   UNL     1      -1.174  10.459  18.362  0.00  0.00    +0.000 A 
ATOM     22  C   UNL     1      -1.702   9.965  17.151  0.00  0.00    +0.000 A 
ATOM     23  C   UNL     1      -2.981  10.308  16.728  0.00  0.00    +0.000 A 
ATOM     24  C   UNL     1      -3.761  11.140  17.517  0.00  0.00    +0.000 A 
ATOM     25  C   UNL     1      -3.240  11.672  18.699  0.00  0.00    +0.000 A 
ATOM     26  C   UNL     1      -1.928  11.379  19.135  0.00  0.00    +0.000 A 
ENDBRANCH   1  26
BRANCH  11  27
ATOM     27  C   UNL     1       3.124  16.529  18.225  0.00  0.00    +0.000 C 
ATOM     28  N   UNL     1       4.039  17.121  17.830  0.00  0.00    +0.000 NA
ENDBRANCH  11  27
TORSDOF 2
ENDMDL
MODEL 8
REMARK VINA RESULT:      -6.1      3.869      5.952
REMARK  Name = 
REMARK  4 active torsions:
REMARK  status: ('A' for Active; 'I' for Inactive)
REMARK    1  A    between atoms: C_1  and  C_2
REMARK    2  A    between atoms: C_7  and  C_8
REMARK    3  A    between atoms: C_16  and  C_17
REMARK    4  A    between atoms: C_18  and  C_19
REMARK                            x       y       z     vdW  Elec       q    Type
REMARK                         _______ _______ _______ _____ _____    ______ ____
ROOT
ATOM      1  C   UNL     1      -0.975  12.682  20.750  0.00  0.00    +0.000 C 
ATOM      2  C   UNL     1       0.269  13.392  20.163  0.00  0.00    +0.000 C 
ATOM      3  C   UNL     1       1.108  14.195  21.157  0.00  0.00    +0.000 C 
ATOM      4  O   UNL     1       2.303  14.417  20.964  0.00  0.00    +0.000 OA
ATOM      5  N   UNL     1       0.463  14.773  22.217  0.00  0.00    +0.000 N 
ATOM      6  C   UNL     1      -0.840  14.470  22.472  0.00  0.00    +0.000 A 
ATOM      7  S   UNL     1      -1.635  15.376  23.627  0.00  0.00    +0.000 S 
ATOM      8  C   UNL     1      -3.144  14.620  23.244  0.00  0.00    +0.000 A 
ATOM      9  C   UNL     1      -4.435  14.946  23.716  0.00  0.00    +0.000 A 
ATOM     10  C   UNL     1      -4.719  16.132  24.603  0.00  0.00    +0.000 C 
ATOM     11  C   UNL     1      -5.474  14.104  23.278  0.00  0.00    +0.000 A 
ATOM     12  C   UNL     1      -5.195  13.039  22.416  0.00  0.00    +0.000 A 
ATOM     13  N   UNL     1      -6.208  12.199  21.942  0.00  0.00    +0.000 N 
ATOM     14  N   UNL     1      -3.975  12.783  21.910  0.00  0.00    +0.000 NA
ATOM     15  C   UNL     1      -2.950  13.572  22.326  0.00  0.00    +0.000 A 
ATOM     16  C   UNL     1      -1.589  13.509  21.851  0.00  0.00    +0.000 A 
ATOM     17  H   UNL     1       0.966  15.427  22.801  0.00  0.00    +0.000 HD
ATOM     18  H   UNL     1      -6.815  11.837  22.671  0.00  0.00    +0.000 HD
ATOM     19  H   UNL     1      -5.779  11.457  21.397  0.00  0.00    +0.000 HD
ENDROOT
BRANCH   1  26
ATOM     20  C   UNL     1      -0.342  10.284  18.946  0.00  0.00    +0.000 C 
ATOM     21  C   UNL     1      -0.412  10.181  20.448  0.00  0.00    +0.000 A 
ATOM     22  C   UNL     1      -0.204   8.902  21.006  0.00  0.00    +0.000 A 
ATOM     23  C   UNL     1      -0.190   8.709  22.382  0.00  0.00    +0.000 A 
ATOM     24  C   UNL     1      -0.369   9.794  23.226  0.00  0.00    +0.000 A 
ATOM     25  C   UNL     1      -0.617  11.061  22.692  0.00  0.00    +0.000 A 
ATOM     26  C   UNL     1      -0.682  11.284  21.299  0.00  0.00    +0.000 A 
ENDBRANCH   1  26
BRANCH  11  27
ATOM     27  C   UNL     1      -6.826  14.336  23.710  0.00  0.00    +0.000 C 
ATOM     28  N   UNL     1      -7.917  14.490  24.073  0.00  0.00    +0.000 NA
ENDBRANCH  11  27
TORSDOF 2
ENDMDL
MODEL 9
REMARK VINA RESULT:      -6.1      3.643      5.389
REMARK  Name = 
REMARK  4 active torsions:
REMARK  status: ('A' for Active; 'I' for Inactive)
REMARK    1  A    between atoms: C_1  and  C_2
REMARK    2  A    between atoms: C_7  and  C_8
REMARK    3  A    between atoms: C_16  and  C_17
REMARK    4  A    between atoms: C_18  and  C_19
REMARK                            x       y       z     vdW  Elec       q    Type
REMARK                         _______ _______ _______ _____ _____    ______ ____
ROOT
ATOM      1  C   UNL     1      -1.798  14.250  22.178  0.00  0.00    +0.000 C 
ATOM      2  C   UNL     1      -1.580  15.741  21.828  0.00  0.00    +0.000 C 
ATOM      3  C   UNL     1      -1.696  16.101  20.347  0.00  0.00    +0.000 C 
ATOM      4  O   UNL     1      -1.997  17.236  19.978  0.00  0.00    +0.000 OA
ATOM      5  N   UNL     1      -1.334  15.152  19.429  0.00  0.00    +0.000 N 
ATOM      6  C   UNL     1      -1.072  13.878  19.831  0.00  0.00    +0.000 A 
ATOM      7  S   UNL     1      -0.413  12.831  18.709  0.00  0.00    +0.000 S 
ATOM      8  C   UNL     1      -0.181  11.614  19.917  0.00  0.00    +0.000 A 
ATOM      9  C   UNL     1       0.499  10.381  19.802  0.00  0.00    +0.000 A 
ATOM     10  C   UNL     1       1.250   9.959  18.564  0.00  0.00    +0.000 C 
ATOM     11  C   UNL     1       0.467   9.559  20.944  0.00  0.00    +0.000 A 
ATOM     12  C   UNL     1      -0.193   9.993  22.099  0.00  0.00    +0.000 A 
ATOM     13  N   UNL     1      -0.222   9.212  23.259  0.00  0.00    +0.000 N 
ATOM     14  N   UNL     1      -0.770  11.201  22.225  0.00  0.00    +0.000 NA
ATOM     15  C   UNL     1      -0.766  12.010  21.133  0.00  0.00    +0.000 A 
ATOM     16  C   UNL     1      -1.265  13.363  21.083  0.00  0.00    +0.000 A 
ATOM     17  H   UNL     1      -1.261  15.414  18.455  0.00  0.00    +0.000 HD
ATOM     18  H   UNL     1      -0.507   8.250  23.099  0.00  0.00    +0.000 HD
ATOM     19  H   UNL     1      -0.810   9.677  23.943  0.00  0.00    +0.000 HD
ENDROOT
BRANCH   1  26
ATOM     20  C   UNL     1      -3.155  14.587  24.909  0.00  0.00    +0.000 C 
ATOM     21  C   UNL     1      -3.869  14.028  23.705  0.00  0.00    +0.000 A 
ATOM     22  C   UNL     1      -5.206  13.624  23.893  0.00  0.00    +0.000 A 
ATOM     23  C   UNL     1      -5.973  13.150  22.834  0.00  0.00    +0.000 A 
ATOM     24  C   UNL     1      -5.418  13.086  21.565  0.00  0.00    +0.000 A 
ATOM     25  C   UNL     1      -4.082  13.442  21.367  0.00  0.00    +0.000 A 
ATOM     26  C   UNL     1      -3.263  13.885  22.429  0.00  0.00    +0.000 A 
ENDBRANCH   1  26
BRANCH  11  27
ATOM     27  C   UNL     1       1.114   8.275  20.932  0.00  0.00    +0.000 C 
ATOM     28  N   UNL     1       1.646   7.245  20.957  0.00  0.00    +0.000 NA
ENDBRANCH  11  27
TORSDOF 2
ENDMDL
