MODEL 1
REMARK VINA RESULT:      -7.2      0.000      0.000
REMARK  Name = 
REMARK  4 active torsions:
REMARK  status: ('A' for Active; 'I' for Inactive)
REMARK    1  A    between atoms: C_2  and  C_3
REMARK    2  A    between atoms: C_3  and  N_4
REMARK    3  A    between atoms: C_5  and  C_7
REMARK    4  A    between atoms: N_12  and  C_13
REMARK                            x       y       z     vdW  Elec       q    Type
REMARK                         _______ _______ _______ _____ _____    ______ ____
ROOT
ATOM      1  O   UNL     1       0.829   5.116  20.368  0.00  0.00    +0.000 OA
ATOM      2  C   UNL     1       2.020   5.421  20.288  0.00  0.00    +0.000 C 
ATOM      3  N   UNL     1       2.518   6.704  20.135  0.00  0.00    +0.000 N 
ATOM      4  H   UNL     1       3.469   6.790  19.778  0.00  0.00    +0.000 HD
ENDROOT
BRANCH   3   5
ATOM      5  C   UNL     1       1.785   7.904  20.319  0.00  0.00    +0.000 A 
ATOM      6  C   UNL     1       1.432   8.736  19.250  0.00  0.00    +0.000 A 
ATOM      7  C   UNL     1       0.656   9.881  19.453  0.00  0.00    +0.000 A 
ATOM      8  C   UNL     1       0.224  10.212  20.730  0.00  0.00    +0.000 A 
ATOM      9  C   UNL     1       0.561   9.387  21.808  0.00  0.00    +0.000 A 
ATOM     10  C   UNL     1       1.348   8.245  21.606  0.00  0.00    +0.000 A 
ATOM     11  O   UNL     1       0.147   9.642  23.093  0.00  0.00    +0.000 OA
ATOM     12  C   UNL     1      -0.949  10.567  23.112  0.00  0.00    +0.000 C 
ATOM     13  C   UNL     1      -0.673  11.756  22.206  0.00  0.00    +0.000 C 
ATOM     14  O   UNL     1      -0.540  11.341  20.844  0.00  0.00    +0.000 OA
ENDBRANCH   3   5
BRANCH   2  15
ATOM     15  C   UNL     1       3.080   4.320  20.260  0.00  0.00    +0.000 C 
BRANCH  15  16
ATOM     16  N   UNL     1       3.732   4.243  18.974  0.00  0.00    +0.000 N 
ATOM     17  C   UNL     1       4.977   4.788  18.753  0.00  0.00    +0.000 C 
ATOM     18  O   UNL     1       5.564   5.389  19.654  0.00  0.00    +0.000 OA
ATOM     19  H   UNL     1       3.224   3.861  18.185  0.00  0.00    +0.000 HD
BRANCH  17  20
ATOM     20  C   UNL     1       5.525   4.609  17.415  0.00  0.00    +0.000 A 
ATOM     21  C   UNL     1       4.818   4.337  16.257  0.00  0.00    +0.000 A 
ATOM     22  C   UNL     1       5.662   4.212  15.115  0.00  0.00    +0.000 A 
ATOM     23  C   UNL     1       6.989   4.397  15.434  0.00  0.00    +0.000 A 
ATOM     24  S   UNL     1       7.207   4.728  17.095  0.00  0.00    +0.000 S 
ENDBRANCH  17  20
ENDBRANCH  15  16
ENDBRANCH   2  15
TORSDOF 4
ENDMDL
MODEL 2
REMARK VINA RESULT:      -7.0      4.141      8.237
REMARK  Name = 
REMARK  4 active torsions:
REMARK  status: ('A' for Active; 'I' for Inactive)
REMARK    1  A    between atoms: C_2  and  C_3
REMARK    2  A    between atoms: C_3  and  N_4
REMARK    3  A    between atoms: C_5  and  C_7
REMARK    4  A    between atoms: N_12  and  C_13
REMARK                            x       y       z     vdW  Elec       q    Type
REMARK                         _______ _______ _______ _____ _____    ______ ____
ROOT
ATOM      1  O   UNL     1       1.506   8.391  19.908  0.00  0.00    +0.000 OA
ATOM      2  C   UNL     1       1.882   8.802  18.809  0.00  0.00    +0.000 C 
ATOM      3  N   UNL     1       2.708   8.121  17.930  0.00  0.00    +0.000 N 
ATOM      4  H   UNL     1       3.184   8.677  17.221  0.00  0.00    +0.000 HD
ENDROOT
BRANCH   3   5
ATOM      5  C   UNL     1       3.040   6.744  18.004  0.00  0.00    +0.000 A 
ATOM      6  C   UNL     1       4.349   6.301  18.232  0.00  0.00    +0.000 A 
ATOM      7  C   UNL     1       4.637   4.940  18.361  0.00  0.00    +0.000 A 
ATOM      8  C   UNL     1       3.620   4.001  18.261  0.00  0.00    +0.000 A 
ATOM      9  C   UNL     1       2.306   4.426  18.043  0.00  0.00    +0.000 A 
ATOM     10  C   UNL     1       2.018   5.791  17.902  0.00  0.00    +0.000 A 
ATOM     11  O   UNL     1       1.250   3.553  17.957  0.00  0.00    +0.000 OA
ATOM     12  C   UNL     1       1.589   2.271  18.506  0.00  0.00    +0.000 C 
ATOM     13  C   UNL     1       2.940   1.802  17.994  0.00  0.00    +0.000 C 
ATOM     14  O   UNL     1       3.981   2.689  18.410  0.00  0.00    +0.000 OA
ENDBRANCH   3   5
BRANCH   2  15
ATOM     15  C   UNL     1       1.508  10.215  18.364  0.00  0.00    +0.000 C 
BRANCH  15  16
ATOM     16  N   UNL     1       0.211  10.248  17.730  0.00  0.00    +0.000 N 
ATOM     17  C   UNL     1      -0.888  10.800  18.347  0.00  0.00    +0.000 C 
ATOM     18  O   UNL     1      -0.798  11.264  19.485  0.00  0.00    +0.000 OA
ATOM     19  H   UNL     1       0.081   9.770  16.847  0.00  0.00    +0.000 HD
BRANCH  17  20
ATOM     20  C   UNL     1      -2.125  10.790  17.578  0.00  0.00    +0.000 A 
ATOM     21  C   UNL     1      -2.315  10.256  16.316  0.00  0.00    +0.000 A 
ATOM     22  C   UNL     1      -3.650  10.423  15.844  0.00  0.00    +0.000 A 
ATOM     23  C   UNL     1      -4.441  11.075  16.762  0.00  0.00    +0.000 A 
ATOM     24  S   UNL     1      -3.580  11.472  18.182  0.00  0.00    +0.000 S 
ENDBRANCH  17  20
ENDBRANCH  15  16
ENDBRANCH   2  15
TORSDOF 4
ENDMDL
MODEL 3
REMARK VINA RESULT:      -7.0      6.707      7.968
REMARK  Name = 
REMARK  4 active torsions:
REMARK  status: ('A' for Active; 'I' for Inactive)
REMARK    1  A    between atoms: C_2  and  C_3
REMARK    2  A    between atoms: C_3  and  N_4
REMARK    3  A    between atoms: C_5  and  C_7
REMARK    4  A    between atoms: N_12  and  C_13
REMARK                            x       y       z     vdW  Elec       q    Type
REMARK                         _______ _______ _______ _____ _____    ______ ____
ROOT
ATOM      1  O   UNL     1       7.439   8.896  17.349  0.00  0.00    +0.000 OA
ATOM      2  C   UNL     1       8.105   8.310  18.203  0.00  0.00    +0.000 C 
ATOM      3  N   UNL     1       9.071   8.887  19.012  0.00  0.00    +0.000 N 
ATOM      4  H   UNL     1       9.749   8.257  19.441  0.00  0.00    +0.000 HD
ENDROOT
BRANCH   3   5
ATOM      5  C   UNL     1       9.272  10.278  19.198  0.00  0.00    +0.000 A 
ATOM      6  C   UNL     1       9.185  10.884  20.458  0.00  0.00    +0.000 A 
ATOM      7  C   UNL     1       9.448  12.247  20.623  0.00  0.00    +0.000 A 
ATOM      8  C   UNL     1       9.799  13.025  19.528  0.00  0.00    +0.000 A 
ATOM      9  C   UNL     1       9.898  12.434  18.265  0.00  0.00    +0.000 A 
ATOM     10  C   UNL     1       9.624  11.070  18.097  0.00  0.00    +0.000 A 
ATOM     11  O   UNL     1      10.263  13.140  17.144  0.00  0.00    +0.000 OA
ATOM     12  C   UNL     1      10.894  14.380  17.494  0.00  0.00    +0.000 C 
ATOM     13  C   UNL     1      10.101  15.110  18.565  0.00  0.00    +0.000 C 
ATOM     14  O   UNL     1      10.051  14.347  19.773  0.00  0.00    +0.000 OA
ENDBRANCH   3   5
BRANCH   2  15
ATOM     15  C   UNL     1       7.960   6.798  18.368  0.00  0.00    +0.000 C 
BRANCH  15  16
ATOM     16  N   UNL     1       6.618   6.356  18.067  0.00  0.00    +0.000 N 
ATOM     17  C   UNL     1       5.963   5.431  18.846  0.00  0.00    +0.000 C 
ATOM     18  O   UNL     1       6.523   4.927  19.821  0.00  0.00    +0.000 OA
ATOM     19  H   UNL     1       6.179   6.664  17.207  0.00  0.00    +0.000 HD
BRANCH  17  20
ATOM     20  C   UNL     1       4.603   5.101  18.440  0.00  0.00    +0.000 A 
ATOM     21  C   UNL     1       4.147   3.881  17.972  0.00  0.00    +0.000 A 
ATOM     22  C   UNL     1       2.758   3.899  17.653  0.00  0.00    +0.000 A 
ATOM     23  C   UNL     1       2.192   5.131  17.892  0.00  0.00    +0.000 A 
ATOM     24  S   UNL     1       3.329   6.250  18.504  0.00  0.00    +0.000 S 
ENDBRANCH  17  20
ENDBRANCH  15  16
ENDBRANCH   2  15
TORSDOF 4
ENDMDL
MODEL 4
REMARK VINA RESULT:      -6.9      0.986      1.873
REMARK  Name = 
REMARK  4 active torsions:
REMARK  status: ('A' for Active; 'I' for Inactive)
REMARK    1  A    between atoms: C_2  and  C_3
REMARK    2  A    between atoms: C_3  and  N_4
REMARK    3  A    between atoms: C_5  and  C_7
REMARK    4  A    between atoms: N_12  and  C_13
REMARK                            x       y       z     vdW  Elec       q    Type
REMARK                         _______ _______ _______ _____ _____    ______ ____
ROOT
ATOM      1  O   UNL     1       0.961   4.814  20.552  0.00  0.00    +0.000 OA
ATOM      2  C   UNL     1       2.118   5.177  20.339  0.00  0.00    +0.000 C 
ATOM      3  N   UNL     1       2.523   6.473  20.064  0.00  0.00    +0.000 N 
ATOM      4  H   UNL     1       3.429   6.587  19.612  0.00  0.00    +0.000 HD
ENDROOT
BRANCH   3   5
ATOM      5  C   UNL     1       1.740   7.641  20.249  0.00  0.00    +0.000 A 
ATOM      6  C   UNL     1       1.053   7.900  21.442  0.00  0.00    +0.000 A 
ATOM      7  C   UNL     1       0.339   9.089  21.619  0.00  0.00    +0.000 A 
ATOM      8  C   UNL     1       0.299  10.034  20.604  0.00  0.00    +0.000 A 
ATOM      9  C   UNL     1       0.985   9.795  19.410  0.00  0.00    +0.000 A 
ATOM     10  C   UNL     1       1.693   8.598  19.227  0.00  0.00    +0.000 A 
ATOM     11  O   UNL     1       1.007  10.697  18.374  0.00  0.00    +0.000 OA
ATOM     12  C   UNL     1       0.611  12.004  18.815  0.00  0.00    +0.000 C 
ATOM     13  C   UNL     1      -0.645  11.932  19.668  0.00  0.00    +0.000 C 
ATOM     14  O   UNL     1      -0.412  11.175  20.858  0.00  0.00    +0.000 OA
ENDBRANCH   3   5
BRANCH   2  15
ATOM     15  C   UNL     1       3.236   4.136  20.271  0.00  0.00    +0.000 C 
BRANCH  15  16
ATOM     16  N   UNL     1       3.856   4.105  18.968  0.00  0.00    +0.000 N 
ATOM     17  C   UNL     1       5.054   4.734  18.716  0.00  0.00    +0.000 C 
ATOM     18  O   UNL     1       5.624   5.371  19.603  0.00  0.00    +0.000 OA
ATOM     19  H   UNL     1       3.354   3.691  18.192  0.00  0.00    +0.000 HD
BRANCH  17  20
ATOM     20  C   UNL     1       5.577   4.595  17.363  0.00  0.00    +0.000 A 
ATOM     21  C   UNL     1       4.850   4.345  16.213  0.00  0.00    +0.000 A 
ATOM     22  C   UNL     1       5.672   4.258  15.051  0.00  0.00    +0.000 A 
ATOM     23  C   UNL     1       7.002   4.450  15.348  0.00  0.00    +0.000 A 
ATOM     24  S   UNL     1       7.251   4.742  17.013  0.00  0.00    +0.000 S 
ENDBRANCH  17  20
ENDBRANCH  15  16
ENDBRANCH   2  15
TORSDOF 4
ENDMDL
MODEL 5
REMARK VINA RESULT:      -6.8      6.443      7.414
REMARK  Name = 
REMARK  4 active torsions:
REMARK  status: ('A' for Active; 'I' for Inactive)
REMARK    1  A    between atoms: C_2  and  C_3
REMARK    2  A    between atoms: C_3  and  N_4
REMARK    3  A    between atoms: C_5  and  C_7
REMARK    4  A    between atoms: N_12  and  C_13
REMARK                            x       y       z     vdW  Elec       q    Type
REMARK                         _______ _______ _______ _____ _____    ______ ____
ROOT
ATOM      1  O   UNL     1       7.450   8.680  17.201  0.00  0.00    +0.000 OA
ATOM      2  C   UNL     1       8.052   8.140  18.130  0.00  0.00    +0.000 C 
ATOM      3  N   UNL     1       8.968   8.756  18.967  0.00  0.00    +0.000 N 
ATOM      4  H   UNL     1       9.608   8.148  19.476  0.00  0.00    +0.000 HD
ENDROOT
BRANCH   3   5
ATOM      5  C   UNL     1       9.170  10.155  19.086  0.00  0.00    +0.000 A 
ATOM      6  C   UNL     1       9.060  11.022  17.993  0.00  0.00    +0.000 A 
ATOM      7  C   UNL     1       9.204  12.404  18.150  0.00  0.00    +0.000 A 
ATOM      8  C   UNL     1       9.463  12.937  19.405  0.00  0.00    +0.000 A 
ATOM      9  C   UNL     1       9.567  12.086  20.509  0.00  0.00    +0.000 A 
ATOM     10  C   UNL     1       9.434  10.700  20.350  0.00  0.00    +0.000 A 
ATOM     11  O   UNL     1       9.798  12.549  21.782  0.00  0.00    +0.000 OA
ATOM     12  C   UNL     1       9.516  13.952  21.884  0.00  0.00    +0.000 C 
ATOM     13  C   UNL     1      10.138  14.717  20.727  0.00  0.00    +0.000 C 
ATOM     14  O   UNL     1       9.578  14.299  19.479  0.00  0.00    +0.000 OA
ENDBRANCH   3   5
BRANCH   2  15
ATOM     15  C   UNL     1       7.880   6.641  18.372  0.00  0.00    +0.000 C 
BRANCH  15  16
ATOM     16  N   UNL     1       6.544   6.199  18.047  0.00  0.00    +0.000 N 
ATOM     17  C   UNL     1       5.841   5.340  18.860  0.00  0.00    +0.000 C 
ATOM     18  O   UNL     1       6.352   4.897  19.890  0.00  0.00    +0.000 OA
ATOM     19  H   UNL     1       6.146   6.452  17.150  0.00  0.00    +0.000 HD
BRANCH  17  20
ATOM     20  C   UNL     1       4.494   5.003  18.421  0.00  0.00    +0.000 A 
ATOM     21  C   UNL     1       3.346   5.752  18.611  0.00  0.00    +0.000 A 
ATOM     22  C   UNL     1       2.186   5.130  18.064  0.00  0.00    +0.000 A 
ATOM     23  C   UNL     1       2.484   3.926  17.467  0.00  0.00    +0.000 A 
ATOM     24  S   UNL     1       4.149   3.559  17.560  0.00  0.00    +0.000 S 
ENDBRANCH  17  20
ENDBRANCH  15  16
ENDBRANCH   2  15
TORSDOF 4
ENDMDL
MODEL 6
REMARK VINA RESULT:      -6.8      6.655      7.966
REMARK  Name = 
REMARK  4 active torsions:
REMARK  status: ('A' for Active; 'I' for Inactive)
REMARK    1  A    between atoms: C_2  and  C_3
REMARK    2  A    between atoms: C_3  and  N_4
REMARK    3  A    between atoms: C_5  and  C_7
REMARK    4  A    between atoms: N_12  and  C_13
REMARK                            x       y       z     vdW  Elec       q    Type
REMARK                         _______ _______ _______ _____ _____    ______ ____
ROOT
ATOM      1  O   UNL     1       7.511   8.787  17.294  0.00  0.00    +0.000 OA
ATOM      2  C   UNL     1       8.106   8.205  18.202  0.00  0.00    +0.000 C 
ATOM      3  N   UNL     1       9.033   8.775  19.058  0.00  0.00    +0.000 N 
ATOM      4  H   UNL     1       9.665   8.140  19.544  0.00  0.00    +0.000 HD
ENDROOT
BRANCH   3   5
ATOM      5  C   UNL     1       9.257  10.166  19.228  0.00  0.00    +0.000 A 
ATOM      6  C   UNL     1       9.209  10.783  20.483  0.00  0.00    +0.000 A 
ATOM      7  C   UNL     1       9.494  12.144  20.630  0.00  0.00    +0.000 A 
ATOM      8  C   UNL     1       9.830  12.907  19.521  0.00  0.00    +0.000 A 
ATOM      9  C   UNL     1       9.892  12.304  18.261  0.00  0.00    +0.000 A 
ATOM     10  C   UNL     1       9.595  10.942  18.112  0.00  0.00    +0.000 A 
ATOM     11  O   UNL     1      10.241  12.995  17.125  0.00  0.00    +0.000 OA
ATOM     12  C   UNL     1      10.897  14.229  17.449  0.00  0.00    +0.000 C 
ATOM     13  C   UNL     1      10.139  14.980  18.532  0.00  0.00    +0.000 C 
ATOM     14  O   UNL     1      10.107  14.228  19.747  0.00  0.00    +0.000 OA
ENDBRANCH   3   5
BRANCH   2  15
ATOM     15  C   UNL     1       7.911   6.700  18.389  0.00  0.00    +0.000 C 
BRANCH  15  16
ATOM     16  N   UNL     1       6.515   6.334  18.339  0.00  0.00    +0.000 N 
ATOM     17  C   UNL     1       6.072   5.244  17.625  0.00  0.00    +0.000 C 
ATOM     18  O   UNL     1       6.865   4.557  16.979  0.00  0.00    +0.000 OA
ATOM     19  H   UNL     1       5.829   6.948  18.762  0.00  0.00    +0.000 HD
BRANCH  17  20
ATOM     20  C   UNL     1       4.642   4.977  17.688  0.00  0.00    +0.000 A 
ATOM     21  C   UNL     1       3.635   5.894  17.932  0.00  0.00    +0.000 A 
ATOM     22  C   UNL     1       2.339   5.300  17.935  0.00  0.00    +0.000 A 
ATOM     23  C   UNL     1       2.394   3.947  17.688  0.00  0.00    +0.000 A 
ATOM     24  S   UNL     1       3.996   3.405  17.446  0.00  0.00    +0.000 S 
ENDBRANCH  17  20
ENDBRANCH  15  16
ENDBRANCH   2  15
TORSDOF 4
ENDMDL
MODEL 7
REMARK VINA RESULT:      -6.8      2.899      8.671
REMARK  Name = 
REMARK  4 active torsions:
REMARK  status: ('A' for Active; 'I' for Inactive)
REMARK    1  A    between atoms: C_2  and  C_3
REMARK    2  A    between atoms: C_3  and  N_4
REMARK    3  A    between atoms: C_5  and  C_7
REMARK    4  A    between atoms: N_12  and  C_13
REMARK                            x       y       z     vdW  Elec       q    Type
REMARK                         _______ _______ _______ _____ _____    ______ ____
ROOT
ATOM      1  O   UNL     1       2.523   7.821  18.678  0.00  0.00    +0.000 OA
ATOM      2  C   UNL     1       2.579   6.992  19.586  0.00  0.00    +0.000 C 
ATOM      3  N   UNL     1       3.383   5.864  19.604  0.00  0.00    +0.000 N 
ATOM      4  H   UNL     1       3.117   5.118  20.245  0.00  0.00    +0.000 HD
ENDROOT
BRANCH   3   5
ATOM      5  C   UNL     1       4.469   5.608  18.728  0.00  0.00    +0.000 A 
ATOM      6  C   UNL     1       5.795   5.559  19.176  0.00  0.00    +0.000 A 
ATOM      7  C   UNL     1       6.841   5.245  18.303  0.00  0.00    +0.000 A 
ATOM      8  C   UNL     1       6.574   4.977  16.967  0.00  0.00    +0.000 A 
ATOM      9  C   UNL     1       5.255   5.013  16.505  0.00  0.00    +0.000 A 
ATOM     10  C   UNL     1       4.208   5.340  17.378  0.00  0.00    +0.000 A 
ATOM     11  O   UNL     1       4.919   4.736  15.202  0.00  0.00    +0.000 OA
ATOM     12  C   UNL     1       5.978   4.041  14.529  0.00  0.00    +0.000 C 
ATOM     13  C   UNL     1       7.318   4.709  14.789  0.00  0.00    +0.000 C 
ATOM     14  O   UNL     1       7.649   4.666  16.179  0.00  0.00    +0.000 OA
ENDBRANCH   3   5
BRANCH   2  15
ATOM     15  C   UNL     1       1.637   7.118  20.784  0.00  0.00    +0.000 C 
BRANCH  15  16
ATOM     16  N   UNL     1       1.278   8.494  21.035  0.00  0.00    +0.000 N 
ATOM     17  C   UNL     1       0.054   8.844  21.558  0.00  0.00    +0.000 C 
ATOM     18  O   UNL     1      -0.789   7.981  21.805  0.00  0.00    +0.000 OA
ATOM     19  H   UNL     1       1.904   9.231  20.732  0.00  0.00    +0.000 HD
BRANCH  17  20
ATOM     20  C   UNL     1      -0.160  10.267  21.787  0.00  0.00    +0.000 A 
ATOM     21  C   UNL     1      -0.865  10.845  22.827  0.00  0.00    +0.000 A 
ATOM     22  C   UNL     1      -0.890  12.268  22.750  0.00  0.00    +0.000 A 
ATOM     23  C   UNL     1      -0.199  12.735  21.655  0.00  0.00    +0.000 A 
ATOM     24  S   UNL     1       0.480  11.465  20.737  0.00  0.00    +0.000 S 
ENDBRANCH  17  20
ENDBRANCH  15  16
ENDBRANCH   2  15
TORSDOF 4
ENDMDL
MODEL 8
REMARK VINA RESULT:      -6.7      5.522      8.002
REMARK  Name = 
REMARK  4 active torsions:
REMARK  status: ('A' for Active; 'I' for Inactive)
REMARK    1  A    between atoms: C_2  and  C_3
REMARK    2  A    between atoms: C_3  and  N_4
REMARK    3  A    between atoms: C_5  and  C_7
REMARK    4  A    between atoms: N_12  and  C_13
REMARK                            x       y       z     vdW  Elec       q    Type
REMARK                         _______ _______ _______ _____ _____    ______ ____
ROOT
ATOM      1  O   UNL     1       7.999   6.984  18.686  0.00  0.00    +0.000 OA
ATOM      2  C   UNL     1       7.694   7.663  17.704  0.00  0.00    +0.000 C 
ATOM      3  N   UNL     1       6.753   7.322  16.745  0.00  0.00    +0.000 N 
ATOM      4  H   UNL     1       6.816   7.800  15.847  0.00  0.00    +0.000 HD
ENDROOT
BRANCH   3   5
ATOM      5  C   UNL     1       5.789   6.288  16.862  0.00  0.00    +0.000 A 
ATOM      6  C   UNL     1       5.979   5.021  16.297  0.00  0.00    +0.000 A 
ATOM      7  C   UNL     1       5.041   4.002  16.480  0.00  0.00    +0.000 A 
ATOM      8  C   UNL     1       3.897   4.236  17.229  0.00  0.00    +0.000 A 
ATOM      9  C   UNL     1       3.695   5.493  17.808  0.00  0.00    +0.000 A 
ATOM     10  C   UNL     1       4.631   6.519  17.616  0.00  0.00    +0.000 A 
ATOM     11  O   UNL     1       2.597   5.785  18.580  0.00  0.00    +0.000 OA
ATOM     12  C   UNL     1       1.945   4.589  19.031  0.00  0.00    +0.000 C 
ATOM     13  C   UNL     1       1.766   3.605  17.887  0.00  0.00    +0.000 C 
ATOM     14  O   UNL     1       3.032   3.185  17.372  0.00  0.00    +0.000 OA
ENDBRANCH   3   5
BRANCH   2  15
ATOM     15  C   UNL     1       8.449   8.960  17.419  0.00  0.00    +0.000 C 
BRANCH  15  16
ATOM     16  N   UNL     1       8.576   9.774  18.605  0.00  0.00    +0.000 N 
ATOM     17  C   UNL     1       9.441  10.843  18.667  0.00  0.00    +0.000 C 
ATOM     18  O   UNL     1      10.160  11.121  17.707  0.00  0.00    +0.000 OA
ATOM     19  H   UNL     1       8.085   9.497  19.447  0.00  0.00    +0.000 HD
BRANCH  17  20
ATOM     20  C   UNL     1       9.442  11.592  19.917  0.00  0.00    +0.000 A 
ATOM     21  C   UNL     1       9.061  11.129  21.164  0.00  0.00    +0.000 A 
ATOM     22  C   UNL     1       9.174  12.125  22.178  0.00  0.00    +0.000 A 
ATOM     23  C   UNL     1       9.643  13.318  21.676  0.00  0.00    +0.000 A 
ATOM     24  S   UNL     1       9.952  13.229  19.998  0.00  0.00    +0.000 S 
ENDBRANCH  17  20
ENDBRANCH  15  16
ENDBRANCH   2  15
TORSDOF 4
ENDMDL
MODEL 9
REMARK VINA RESULT:      -6.6      2.080      2.911
REMARK  Name = 
REMARK  4 active torsions:
REMARK  status: ('A' for Active; 'I' for Inactive)
REMARK    1  A    between atoms: C_2  and  C_3
REMARK    2  A    between atoms: C_3  and  N_4
REMARK    3  A    between atoms: C_5  and  C_7
REMARK    4  A    between atoms: N_12  and  C_13
REMARK                            x       y       z     vdW  Elec       q    Type
REMARK                         _______ _______ _______ _____ _____    ______ ____
ROOT
ATOM      1  O   UNL     1       5.449   6.630  18.060  0.00  0.00    +0.000 OA
ATOM      2  C   UNL     1       4.616   5.724  18.080  0.00  0.00    +0.000 C 
ATOM      3  N   UNL     1       3.313   5.832  18.537  0.00  0.00    +0.000 N 
ATOM      4  H   UNL     1       2.838   4.965  18.786  0.00  0.00    +0.000 HD
ENDROOT
BRANCH   3   5
ATOM      5  C   UNL     1       2.626   7.045  18.801  0.00  0.00    +0.000 A 
ATOM      6  C   UNL     1       2.377   7.995  17.803  0.00  0.00    +0.000 A 
ATOM      7  C   UNL     1       1.645   9.154  18.077  0.00  0.00    +0.000 A 
ATOM      8  C   UNL     1       1.153   9.380  19.354  0.00  0.00    +0.000 A 
ATOM      9  C   UNL     1       1.385   8.437  20.361  0.00  0.00    +0.000 A 
ATOM     10  C   UNL     1       2.130   7.281  20.089  0.00  0.00    +0.000 A 
ATOM     11  O   UNL     1       0.908   8.587  21.640  0.00  0.00    +0.000 OA
ATOM     12  C   UNL     1      -0.143   9.562  21.692  0.00  0.00    +0.000 C 
ATOM     13  C   UNL     1       0.241  10.817  20.927  0.00  0.00    +0.000 C 
ATOM     14  O   UNL     1       0.436  10.530  19.540  0.00  0.00    +0.000 OA
ENDBRANCH   3   5
BRANCH   2  15
ATOM     15  C   UNL     1       5.025   4.312  17.658  0.00  0.00    +0.000 C 
BRANCH  15  16
ATOM     16  N   UNL     1       5.246   4.225  16.234  0.00  0.00    +0.000 N 
ATOM     17  C   UNL     1       6.499   4.355  15.681  0.00  0.00    +0.000 C 
ATOM     18  O   UNL     1       7.477   4.578  16.396  0.00  0.00    +0.000 OA
ATOM     19  H   UNL     1       4.447   4.161  15.614  0.00  0.00    +0.000 HD
BRANCH  17  20
ATOM     20  C   UNL     1       6.576   4.216  14.233  0.00  0.00    +0.000 A 
ATOM     21  C   UNL     1       5.742   3.464  13.424  0.00  0.00    +0.000 A 
ATOM     22  C   UNL     1       6.100   3.538  12.046  0.00  0.00    +0.000 A 
ATOM     23  C   UNL     1       7.194   4.349  11.842  0.00  0.00    +0.000 A 
ATOM     24  S   UNL     1       7.774   5.019  13.302  0.00  0.00    +0.000 S 
ENDBRANCH  17  20
ENDBRANCH  15  16
ENDBRANCH   2  15
TORSDOF 4
ENDMDL
