MODEL 1
REMARK VINA RESULT:      -6.5      0.000      0.000
REMARK  Name = 
REMARK  24 active torsions:
REMARK  status: ('A' for Active; 'I' for Inactive)
REMARK    1  A    between atoms: C_1  and  C_2
REMARK    2  A    between atoms: C_2  and  C_3
REMARK    3  A    between atoms: C_3  and  C_4
REMARK    4  A    between atoms: C_4  and  C_5
REMARK    5  A    between atoms: C_5  and  C_6
REMARK    6  A    between atoms: C_6  and  C_7
REMARK    7  A    between atoms: C_7  and  C_8
REMARK    8  A    between atoms: C_8  and  C_9
REMARK    9  A    between atoms: C_9  and  C_10
REMARK   10  A    between atoms: C_10  and  C_11
REMARK   11  A    between atoms: C_11  and  C_12
REMARK   12  A    between atoms: C_12  and  C_13
REMARK   13  A    between atoms: C_13  and  O_14
REMARK   14  A    between atoms: C_13  and  C_15
REMARK   15  A    between atoms: C_15  and  C_16
REMARK   16  A    between atoms: C_15  and  N_28
REMARK   17  A    between atoms: C_16  and  O_17
REMARK   18  A    between atoms: O_17  and  C_18
REMARK   19  A    between atoms: N_20  and  C_21
REMARK   20  A    between atoms: C_21  and  C_22
REMARK   21  A    between atoms: C_29  and  C_31
REMARK   22  A    between atoms: C_31  and  C_32
REMARK   23  A    between atoms: C_31  and  C_33
REMARK   24  A    between atoms: C_31  and  C_34
REMARK                            x       y       z     vdW  Elec       q    Type
REMARK                         _______ _______ _______ _____ _____    ______ ____
ROOT
ATOM      1  C   UNL     1       3.400   6.262  18.981  0.00  0.00    +0.000 C 
ENDROOT
BRANCH   1   2
ATOM      2  N   UNL     1       2.881   4.886  19.096  0.00  0.00    +0.000 N 
ATOM      3  C   UNL     1       2.238   4.396  20.201  0.00  0.00    +0.000 C 
ATOM      4  O   UNL     1       2.062   5.101  21.194  0.00  0.00    +0.000 OA
ATOM      5  H   UNL     1       3.063   4.263  18.317  0.00  0.00    +0.000 HD
BRANCH   3   6
ATOM      6  C   UNL     1       1.815   2.920  20.166  0.00  0.00    +0.000 C 
ATOM      7  C   UNL     1       2.971   2.054  19.650  0.00  0.00    +0.000 C 
ATOM      8  C   UNL     1       1.474   2.484  21.601  0.00  0.00    +0.000 C 
ATOM      9  C   UNL     1       0.577   2.729  19.281  0.00  0.00    +0.000 C 
ENDBRANCH   3   6
ENDBRANCH   1   2
BRANCH   1  10
ATOM     10  C   UNL     1       4.432   6.442  17.841  0.00  0.00    +0.000 C 
BRANCH  10  11
ATOM     11  O   UNL     1       4.804   5.192  17.201  0.00  0.00    +0.000 OA
BRANCH  11  12
ATOM     12  C   UNL     1       5.880   4.528  17.695  0.00  0.00    +0.000 C 
ATOM     13  O   UNL     1       6.006   4.109  18.837  0.00  0.00    +0.000 OA
ATOM     14  N   UNL     1       6.865   4.330  16.770  0.00  0.00    +0.000 N 
ATOM     15  H   UNL     1       7.632   3.790  17.149  0.00  0.00    +0.000 HD
BRANCH  14  16
ATOM     16  C   UNL     1       7.223   5.309  15.767  0.00  0.00    +0.000 C 
BRANCH  16  17
ATOM     17  C   UNL     1       6.958   4.762  14.384  0.00  0.00    +0.000 A 
ATOM     18  C   UNL     1       5.937   3.832  14.158  0.00  0.00    +0.000 A 
ATOM     19  C   UNL     1       5.740   3.356  12.868  0.00  0.00    +0.000 A 
ATOM     20  N   UNL     1       6.481   3.735  11.809  0.00  0.00    +0.000 NA
ATOM     21  C   UNL     1       7.461   4.630  12.040  0.00  0.00    +0.000 A 
ATOM     22  C   UNL     1       7.735   5.164  13.291  0.00  0.00    +0.000 A 
ENDBRANCH  16  17
ENDBRANCH  14  16
ENDBRANCH  11  12
ENDBRANCH  10  11
ENDBRANCH   1  10
BRANCH   1  23
ATOM     23  C   UNL     1       2.287   7.353  18.902  0.00  0.00    +0.000 C 
BRANCH  23  24
ATOM     24  O   UNL     1       1.893   7.866  20.173  0.00  0.00    +0.000 OA
ATOM     25  H   UNL     1       0.923   7.752  20.264  0.00  0.00    +0.000 HD
ENDBRANCH  23  24
BRANCH  23  26
ATOM     26  C   UNL     1       2.633   8.534  17.987  0.00  0.00    +0.000 C 
BRANCH  26  27
ATOM     27  C   UNL     1       1.446   9.474  17.809  0.00  0.00    +0.000 C 
BRANCH  27  28
ATOM     28  C   UNL     1       1.484  10.637  18.787  0.00  0.00    +0.000 C 
BRANCH  28  29
ATOM     29  C   UNL     1       2.144  11.838  18.120  0.00  0.00    +0.000 C 
BRANCH  29  30
ATOM     30  C   UNL     1       1.960  13.088  18.964  0.00  0.00    +0.000 C 
BRANCH  30  31
ATOM     31  C   UNL     1       0.785  12.918  19.917  0.00  0.00    +0.000 C 
BRANCH  31  32
ATOM     32  C   UNL     1      -0.463  13.557  19.325  0.00  0.00    +0.000 C 
BRANCH  32  33
ATOM     33  C   UNL     1      -1.648  12.606  19.412  0.00  0.00    +0.000 C 
BRANCH  33  34
ATOM     34  C   UNL     1      -1.969  12.029  18.038  0.00  0.00    +0.000 C 
BRANCH  34  35
ATOM     35  C   UNL     1      -2.318  10.550  18.144  0.00  0.00    +0.000 C 
BRANCH  35  37
ATOM     36  C   UNL     1      -2.883   9.954  15.774  0.00  0.00    +0.000 C 
ATOM     37  C   UNL     1      -1.873   9.792  16.897  0.00  0.00    +0.000 C 
ENDBRANCH  35  37
ENDBRANCH  34  35
ENDBRANCH  33  34
ENDBRANCH  32  33
ENDBRANCH  31  32
ENDBRANCH  30  31
ENDBRANCH  29  30
ENDBRANCH  28  29
ENDBRANCH  27  28
ENDBRANCH  26  27
ENDBRANCH  23  26
ENDBRANCH   1  23
TORSDOF 20
ENDMDL
MODEL 2
REMARK VINA RESULT:      -6.5      4.410      8.301
REMARK  Name = 
REMARK  24 active torsions:
REMARK  status: ('A' for Active; 'I' for Inactive)
REMARK    1  A    between atoms: C_1  and  C_2
REMARK    2  A    between atoms: C_2  and  C_3
REMARK    3  A    between atoms: C_3  and  C_4
REMARK    4  A    between atoms: C_4  and  C_5
REMARK    5  A    between atoms: C_5  and  C_6
REMARK    6  A    between atoms: C_6  and  C_7
REMARK    7  A    between atoms: C_7  and  C_8
REMARK    8  A    between atoms: C_8  and  C_9
REMARK    9  A    between atoms: C_9  and  C_10
REMARK   10  A    between atoms: C_10  and  C_11
REMARK   11  A    between atoms: C_11  and  C_12
REMARK   12  A    between atoms: C_12  and  C_13
REMARK   13  A    between atoms: C_13  and  O_14
REMARK   14  A    between atoms: C_13  and  C_15
REMARK   15  A    between atoms: C_15  and  C_16
REMARK   16  A    between atoms: C_15  and  N_28
REMARK   17  A    between atoms: C_16  and  O_17
REMARK   18  A    between atoms: O_17  and  C_18
REMARK   19  A    between atoms: N_20  and  C_21
REMARK   20  A    between atoms: C_21  and  C_22
REMARK   21  A    between atoms: C_29  and  C_31
REMARK   22  A    between atoms: C_31  and  C_32
REMARK   23  A    between atoms: C_31  and  C_33
REMARK   24  A    between atoms: C_31  and  C_34
REMARK                            x       y       z     vdW  Elec       q    Type
REMARK                         _______ _______ _______ _____ _____    ______ ____
ROOT
ATOM      1  C   UNL     1       4.423   5.598  18.027  0.00  0.00    +0.000 C 
ENDROOT
BRANCH   1   2
ATOM      2  N   UNL     1       3.497   5.006  19.011  0.00  0.00    +0.000 N 
ATOM      3  C   UNL     1       3.096   3.697  18.999  0.00  0.00    +0.000 C 
ATOM      4  O   UNL     1       3.493   2.923  18.130  0.00  0.00    +0.000 OA
ATOM      5  H   UNL     1       3.106   5.634  19.705  0.00  0.00    +0.000 HD
BRANCH   3   6
ATOM      6  C   UNL     1       2.082   3.268  20.070  0.00  0.00    +0.000 C 
ATOM      7  C   UNL     1       2.816   2.689  21.287  0.00  0.00    +0.000 C 
ATOM      8  C   UNL     1       1.298   4.514  20.515  0.00  0.00    +0.000 C 
ATOM      9  C   UNL     1       1.098   2.235  19.506  0.00  0.00    +0.000 C 
ENDBRANCH   3   6
ENDBRANCH   1   2
BRANCH   1  10
ATOM     10  C   UNL     1       3.868   6.871  17.342  0.00  0.00    +0.000 C 
BRANCH  10  11
ATOM     11  O   UNL     1       2.573   7.282  17.857  0.00  0.00    +0.000 OA
BRANCH  11  12
ATOM     12  C   UNL     1       2.315   8.613  17.925  0.00  0.00    +0.000 C 
ATOM     13  O   UNL     1       2.748   9.470  17.167  0.00  0.00    +0.000 OA
ATOM     14  N   UNL     1       1.476   8.950  18.948  0.00  0.00    +0.000 N 
ATOM     15  H   UNL     1       1.260   9.938  18.947  0.00  0.00    +0.000 HD
BRANCH  14  16
ATOM     16  C   UNL     1       1.514   8.319  20.250  0.00  0.00    +0.000 C 
BRANCH  16  17
ATOM     17  C   UNL     1       0.775   9.163  21.262  0.00  0.00    +0.000 A 
ATOM     18  C   UNL     1       0.785   8.836  22.622  0.00  0.00    +0.000 A 
ATOM     19  C   UNL     1       0.084   9.642  23.509  0.00  0.00    +0.000 A 
ATOM     20  N   UNL     1      -0.618  10.730  23.137  0.00  0.00    +0.000 NA
ATOM     21  C   UNL     1      -0.621  11.034  21.824  0.00  0.00    +0.000 A 
ATOM     22  C   UNL     1       0.049  10.293  20.862  0.00  0.00    +0.000 A 
ENDBRANCH  16  17
ENDBRANCH  14  16
ENDBRANCH  11  12
ENDBRANCH  10  11
ENDBRANCH   1  10
BRANCH   1  23
ATOM     23  C   UNL     1       5.861   5.846  18.580  0.00  0.00    +0.000 C 
BRANCH  23  24
ATOM     24  O   UNL     1       6.467   4.686  19.146  0.00  0.00    +0.000 OA
ATOM     25  H   UNL     1       6.267   3.920  18.566  0.00  0.00    +0.000 HD
ENDBRANCH  23  24
BRANCH  23  26
ATOM     26  C   UNL     1       6.829   6.450  17.555  0.00  0.00    +0.000 C 
BRANCH  26  27
ATOM     27  C   UNL     1       7.988   7.172  18.235  0.00  0.00    +0.000 C 
BRANCH  27  28
ATOM     28  C   UNL     1       8.180   8.580  17.695  0.00  0.00    +0.000 C 
BRANCH  28  29
ATOM     29  C   UNL     1       8.831   9.447  18.767  0.00  0.00    +0.000 C 
BRANCH  29  30
ATOM     30  C   UNL     1       9.241  10.792  18.191  0.00  0.00    +0.000 C 
BRANCH  30  31
ATOM     31  C   UNL     1       9.415  11.816  19.303  0.00  0.00    +0.000 C 
BRANCH  31  32
ATOM     32  C   UNL     1       9.550  11.112  20.645  0.00  0.00    +0.000 C 
BRANCH  32  33
ATOM     33  C   UNL     1       9.193  12.053  21.786  0.00  0.00    +0.000 C 
BRANCH  33  34
ATOM     34  C   UNL     1       7.880  11.631  22.433  0.00  0.00    +0.000 C 
BRANCH  34  35
ATOM     35  C   UNL     1       7.183  12.828  23.069  0.00  0.00    +0.000 C 
BRANCH  35  37
ATOM     36  C   UNL     1       6.780  11.471  25.139  0.00  0.00    +0.000 C 
ATOM     37  C   UNL     1       6.150  12.378  24.096  0.00  0.00    +0.000 C 
ENDBRANCH  35  37
ENDBRANCH  34  35
ENDBRANCH  33  34
ENDBRANCH  32  33
ENDBRANCH  31  32
ENDBRANCH  30  31
ENDBRANCH  29  30
ENDBRANCH  28  29
ENDBRANCH  27  28
ENDBRANCH  26  27
ENDBRANCH  23  26
ENDBRANCH   1  23
TORSDOF 20
ENDMDL
MODEL 3
REMARK VINA RESULT:      -6.4      4.064     10.958
REMARK  Name = 
REMARK  24 active torsions:
REMARK  status: ('A' for Active; 'I' for Inactive)
REMARK    1  A    between atoms: C_1  and  C_2
REMARK    2  A    between atoms: C_2  and  C_3
REMARK    3  A    between atoms: C_3  and  C_4
REMARK    4  A    between atoms: C_4  and  C_5
REMARK    5  A    between atoms: C_5  and  C_6
REMARK    6  A    between atoms: C_6  and  C_7
REMARK    7  A    between atoms: C_7  and  C_8
REMARK    8  A    between atoms: C_8  and  C_9
REMARK    9  A    between atoms: C_9  and  C_10
REMARK   10  A    between atoms: C_10  and  C_11
REMARK   11  A    between atoms: C_11  and  C_12
REMARK   12  A    between atoms: C_12  and  C_13
REMARK   13  A    between atoms: C_13  and  O_14
REMARK   14  A    between atoms: C_13  and  C_15
REMARK   15  A    between atoms: C_15  and  C_16
REMARK   16  A    between atoms: C_15  and  N_28
REMARK   17  A    between atoms: C_16  and  O_17
REMARK   18  A    between atoms: O_17  and  C_18
REMARK   19  A    between atoms: N_20  and  C_21
REMARK   20  A    between atoms: C_21  and  C_22
REMARK   21  A    between atoms: C_29  and  C_31
REMARK   22  A    between atoms: C_31  and  C_32
REMARK   23  A    between atoms: C_31  and  C_33
REMARK   24  A    between atoms: C_31  and  C_34
REMARK                            x       y       z     vdW  Elec       q    Type
REMARK                         _______ _______ _______ _____ _____    ______ ____
ROOT
ATOM      1  C   UNL     1       0.092  10.646  19.661  0.00  0.00    +0.000 C 
ENDROOT
BRANCH   1   2
ATOM      2  N   UNL     1      -1.069  10.378  18.791  0.00  0.00    +0.000 N 
ATOM      3  C   UNL     1      -1.858  11.352  18.241  0.00  0.00    +0.000 C 
ATOM      4  O   UNL     1      -1.639  12.542  18.459  0.00  0.00    +0.000 OA
ATOM      5  H   UNL     1      -1.311   9.405  18.640  0.00  0.00    +0.000 HD
BRANCH   3   6
ATOM      6  C   UNL     1      -3.060  10.887  17.404  0.00  0.00    +0.000 C 
ATOM      7  C   UNL     1      -4.291  11.741  17.732  0.00  0.00    +0.000 C 
ATOM      8  C   UNL     1      -2.711  11.074  15.918  0.00  0.00    +0.000 C 
ATOM      9  C   UNL     1      -3.361   9.405  17.662  0.00  0.00    +0.000 C 
ENDBRANCH   3   6
ENDBRANCH   1   2
BRANCH   1  10
ATOM     10  C   UNL     1      -0.280  10.833  21.152  0.00  0.00    +0.000 C 
BRANCH  10  11
ATOM     11  O   UNL     1       0.510  11.856  21.817  0.00  0.00    +0.000 OA
BRANCH  11  12
ATOM     12  C   UNL     1       0.307  13.147  21.449  0.00  0.00    +0.000 C 
ATOM     13  O   UNL     1       1.061  13.830  20.771  0.00  0.00    +0.000 OA
ATOM     14  N   UNL     1      -0.877  13.658  21.901  0.00  0.00    +0.000 N 
ATOM     15  H   UNL     1      -1.028  14.603  21.572  0.00  0.00    +0.000 HD
BRANCH  14  16
ATOM     16  C   UNL     1      -1.432  13.351  23.201  0.00  0.00    +0.000 C 
BRANCH  16  17
ATOM     17  C   UNL     1      -2.916  13.091  23.088  0.00  0.00    +0.000 A 
ATOM     18  C   UNL     1      -3.522  12.885  21.844  0.00  0.00    +0.000 A 
ATOM     19  C   UNL     1      -4.890  12.656  21.796  0.00  0.00    +0.000 A 
ATOM     20  N   UNL     1      -5.682  12.624  22.885  0.00  0.00    +0.000 NA
ATOM     21  C   UNL     1      -5.087  12.824  24.077  0.00  0.00    +0.000 A 
ATOM     22  C   UNL     1      -3.729  13.058  24.228  0.00  0.00    +0.000 A 
ENDBRANCH  16  17
ENDBRANCH  14  16
ENDBRANCH  11  12
ENDBRANCH  10  11
ENDBRANCH   1  10
BRANCH   1  23
ATOM     23  C   UNL     1       1.253   9.615  19.503  0.00  0.00    +0.000 C 
BRANCH  23  24
ATOM     24  O   UNL     1       1.212   8.553  20.454  0.00  0.00    +0.000 OA
ATOM     25  H   UNL     1       0.291   8.468  20.782  0.00  0.00    +0.000 HD
ENDBRANCH  23  24
BRANCH  23  26
ATOM     26  C   UNL     1       1.361   9.005  18.100  0.00  0.00    +0.000 C 
BRANCH  26  27
ATOM     27  C   UNL     1       2.619   8.156  17.951  0.00  0.00    +0.000 C 
BRANCH  27  28
ATOM     28  C   UNL     1       2.306   6.669  17.920  0.00  0.00    +0.000 C 
BRANCH  28  29
ATOM     29  C   UNL     1       3.086   5.966  19.025  0.00  0.00    +0.000 C 
BRANCH  29  30
ATOM     30  C   UNL     1       3.044   4.459  18.835  0.00  0.00    +0.000 C 
BRANCH  30  31
ATOM     31  C   UNL     1       4.375   3.954  18.295  0.00  0.00    +0.000 C 
BRANCH  31  32
ATOM     32  C   UNL     1       4.348   3.937  16.774  0.00  0.00    +0.000 C 
BRANCH  32  33
ATOM     33  C   UNL     1       5.635   4.519  16.206  0.00  0.00    +0.000 C 
BRANCH  33  34
ATOM     34  C   UNL     1       5.449   5.993  15.869  0.00  0.00    +0.000 C 
BRANCH  34  35
ATOM     35  C   UNL     1       5.921   6.872  17.021  0.00  0.00    +0.000 C 
BRANCH  35  37
ATOM     36  C   UNL     1       7.664   6.172  18.684  0.00  0.00    +0.000 C 
ATOM     37  C   UNL     1       7.413   6.685  17.276  0.00  0.00    +0.000 C 
ENDBRANCH  35  37
ENDBRANCH  34  35
ENDBRANCH  33  34
ENDBRANCH  32  33
ENDBRANCH  31  32
ENDBRANCH  30  31
ENDBRANCH  29  30
ENDBRANCH  28  29
ENDBRANCH  27  28
ENDBRANCH  26  27
ENDBRANCH  23  26
ENDBRANCH   1  23
TORSDOF 20
ENDMDL
MODEL 4
REMARK VINA RESULT:      -6.4      4.360      8.376
REMARK  Name = 
REMARK  24 active torsions:
REMARK  status: ('A' for Active; 'I' for Inactive)
REMARK    1  A    between atoms: C_1  and  C_2
REMARK    2  A    between atoms: C_2  and  C_3
REMARK    3  A    between atoms: C_3  and  C_4
REMARK    4  A    between atoms: C_4  and  C_5
REMARK    5  A    between atoms: C_5  and  C_6
REMARK    6  A    between atoms: C_6  and  C_7
REMARK    7  A    between atoms: C_7  and  C_8
REMARK    8  A    between atoms: C_8  and  C_9
REMARK    9  A    between atoms: C_9  and  C_10
REMARK   10  A    between atoms: C_10  and  C_11
REMARK   11  A    between atoms: C_11  and  C_12
REMARK   12  A    between atoms: C_12  and  C_13
REMARK   13  A    between atoms: C_13  and  O_14
REMARK   14  A    between atoms: C_13  and  C_15
REMARK   15  A    between atoms: C_15  and  C_16
REMARK   16  A    between atoms: C_15  and  N_28
REMARK   17  A    between atoms: C_16  and  O_17
REMARK   18  A    between atoms: O_17  and  C_18
REMARK   19  A    between atoms: N_20  and  C_21
REMARK   20  A    between atoms: C_21  and  C_22
REMARK   21  A    between atoms: C_29  and  C_31
REMARK   22  A    between atoms: C_31  and  C_32
REMARK   23  A    between atoms: C_31  and  C_33
REMARK   24  A    between atoms: C_31  and  C_34
REMARK                            x       y       z     vdW  Elec       q    Type
REMARK                         _______ _______ _______ _____ _____    ______ ____
ROOT
ATOM      1  C   UNL     1       3.431   6.345  17.424  0.00  0.00    +0.000 C 
ENDROOT
BRANCH   1   2
ATOM      2  N   UNL     1       2.971   5.410  18.469  0.00  0.00    +0.000 N 
ATOM      3  C   UNL     1       2.240   4.280  18.221  0.00  0.00    +0.000 C 
ATOM      4  O   UNL     1       1.908   3.980  17.076  0.00  0.00    +0.000 OA
ATOM      5  H   UNL     1       3.179   5.661  19.429  0.00  0.00    +0.000 HD
BRANCH   3   6
ATOM      6  C   UNL     1       1.800   3.453  19.439  0.00  0.00    +0.000 C 
ATOM      7  C   UNL     1       3.016   2.771  20.079  0.00  0.00    +0.000 C 
ATOM      8  C   UNL     1       1.173   4.409  20.467  0.00  0.00    +0.000 C 
ATOM      9  C   UNL     1       0.757   2.403  19.036  0.00  0.00    +0.000 C 
ENDBRANCH   3   6
ENDBRANCH   1   2
BRANCH   1  10
ATOM     10  C   UNL     1       3.346   7.833  17.842  0.00  0.00    +0.000 C 
BRANCH  10  11
ATOM     11  O   UNL     1       1.988   8.278  18.106  0.00  0.00    +0.000 OA
BRANCH  11  12
ATOM     12  C   UNL     1       1.647   8.531  19.396  0.00  0.00    +0.000 C 
ATOM     13  O   UNL     1       1.714   7.740  20.327  0.00  0.00    +0.000 OA
ATOM     14  N   UNL     1       1.216   9.810  19.601  0.00  0.00    +0.000 N 
ATOM     15  H   UNL     1       1.017   9.987  20.576  0.00  0.00    +0.000 HD
BRANCH  14  16
ATOM     16  C   UNL     1       0.398  10.536  18.652  0.00  0.00    +0.000 C 
BRANCH  16  17
ATOM     17  C   UNL     1       0.769  12.000  18.656  0.00  0.00    +0.000 A 
ATOM     18  C   UNL     1      -0.182  12.987  18.938  0.00  0.00    +0.000 A 
ATOM     19  C   UNL     1       0.211  14.318  18.922  0.00  0.00    +0.000 A 
ATOM     20  N   UNL     1       1.464  14.726  18.643  0.00  0.00    +0.000 NA
ATOM     21  C   UNL     1       2.370  13.767  18.372  0.00  0.00    +0.000 A 
ATOM     22  C   UNL     1       2.076  12.411  18.366  0.00  0.00    +0.000 A 
ENDBRANCH  16  17
ENDBRANCH  14  16
ENDBRANCH  11  12
ENDBRANCH  10  11
ENDBRANCH   1  10
BRANCH   1  23
ATOM     23  C   UNL     1       4.843   6.008  16.851  0.00  0.00    +0.000 C 
BRANCH  23  24
ATOM     24  O   UNL     1       5.198   6.782  15.707  0.00  0.00    +0.000 OA
ATOM     25  H   UNL     1       4.589   6.547  14.975  0.00  0.00    +0.000 HD
ENDBRANCH  23  24
BRANCH  23  26
ATOM     26  C   UNL     1       5.976   6.114  17.879  0.00  0.00    +0.000 C 
BRANCH  26  27
ATOM     27  C   UNL     1       7.245   6.692  17.261  0.00  0.00    +0.000 C 
BRANCH  27  28
ATOM     28  C   UNL     1       8.072   7.468  18.272  0.00  0.00    +0.000 C 
BRANCH  28  29
ATOM     29  C   UNL     1       8.200   8.917  17.815  0.00  0.00    +0.000 C 
BRANCH  29  30
ATOM     30  C   UNL     1       8.803   9.774  18.915  0.00  0.00    +0.000 C 
BRANCH  30  31
ATOM     31  C   UNL     1       9.826  10.741  18.336  0.00  0.00    +0.000 C 
BRANCH  31  32
ATOM     32  C   UNL     1      10.076  11.881  19.311  0.00  0.00    +0.000 C 
BRANCH  32  33
ATOM     33  C   UNL     1       9.898  11.411  20.748  0.00  0.00    +0.000 C 
BRANCH  33  34
ATOM     34  C   UNL     1       9.356  12.542  21.614  0.00  0.00    +0.000 C 
BRANCH  34  35
ATOM     35  C   UNL     1       8.142  12.076  22.409  0.00  0.00    +0.000 C 
BRANCH  35  37
ATOM     36  C   UNL     1       7.244  11.556  24.692  0.00  0.00    +0.000 C 
ATOM     37  C   UNL     1       8.440  12.061  23.904  0.00  0.00    +0.000 C 
ENDBRANCH  35  37
ENDBRANCH  34  35
ENDBRANCH  33  34
ENDBRANCH  32  33
ENDBRANCH  31  32
ENDBRANCH  30  31
ENDBRANCH  29  30
ENDBRANCH  28  29
ENDBRANCH  27  28
ENDBRANCH  26  27
ENDBRANCH  23  26
ENDBRANCH   1  23
TORSDOF 20
ENDMDL
MODEL 5
REMARK VINA RESULT:      -6.4      4.146      7.361
REMARK  Name = 
REMARK  24 active torsions:
REMARK  status: ('A' for Active; 'I' for Inactive)
REMARK    1  A    between atoms: C_1  and  C_2
REMARK    2  A    between atoms: C_2  and  C_3
REMARK    3  A    between atoms: C_3  and  C_4
REMARK    4  A    between atoms: C_4  and  C_5
REMARK    5  A    between atoms: C_5  and  C_6
REMARK    6  A    between atoms: C_6  and  C_7
REMARK    7  A    between atoms: C_7  and  C_8
REMARK    8  A    between atoms: C_8  and  C_9
REMARK    9  A    between atoms: C_9  and  C_10
REMARK   10  A    between atoms: C_10  and  C_11
REMARK   11  A    between atoms: C_11  and  C_12
REMARK   12  A    between atoms: C_12  and  C_13
REMARK   13  A    between atoms: C_13  and  O_14
REMARK   14  A    between atoms: C_13  and  C_15
REMARK   15  A    between atoms: C_15  and  C_16
REMARK   16  A    between atoms: C_15  and  N_28
REMARK   17  A    between atoms: C_16  and  O_17
REMARK   18  A    between atoms: O_17  and  C_18
REMARK   19  A    between atoms: N_20  and  C_21
REMARK   20  A    between atoms: C_21  and  C_22
REMARK   21  A    between atoms: C_29  and  C_31
REMARK   22  A    between atoms: C_31  and  C_32
REMARK   23  A    between atoms: C_31  and  C_33
REMARK   24  A    between atoms: C_31  and  C_34
REMARK                            x       y       z     vdW  Elec       q    Type
REMARK                         _______ _______ _______ _____ _____    ______ ____
ROOT
ATOM      1  C   UNL     1       6.052   4.490  18.679  0.00  0.00    +0.000 C 
ENDROOT
BRANCH   1   2
ATOM      2  N   UNL     1       4.722   4.396  19.310  0.00  0.00    +0.000 N 
ATOM      3  C   UNL     1       4.188   3.238  19.808  0.00  0.00    +0.000 C 
ATOM      4  O   UNL     1       4.807   2.177  19.744  0.00  0.00    +0.000 OA
ATOM      5  H   UNL     1       4.163   5.241  19.324  0.00  0.00    +0.000 HD
BRANCH   3   6
ATOM      6  C   UNL     1       2.763   3.315  20.379  0.00  0.00    +0.000 C 
ATOM      7  C   UNL     1       2.639   2.403  21.607  0.00  0.00    +0.000 C 
ATOM      8  C   UNL     1       2.500   4.767  20.815  0.00  0.00    +0.000 C 
ATOM      9  C   UNL     1       1.729   2.919  19.319  0.00  0.00    +0.000 C 
ENDBRANCH   3   6
ENDBRANCH   1   2
BRANCH   1  10
ATOM     10  C   UNL     1       6.007   4.492  17.132  0.00  0.00    +0.000 C 
BRANCH  10  11
ATOM     11  O   UNL     1       4.769   5.032  16.595  0.00  0.00    +0.000 OA
BRANCH  11  12
ATOM     12  C   UNL     1       4.761   6.335  16.219  0.00  0.00    +0.000 C 
ATOM     13  O   UNL     1       5.522   6.859  15.416  0.00  0.00    +0.000 OA
ATOM     14  N   UNL     1       3.776   7.066  16.819  0.00  0.00    +0.000 N 
ATOM     15  H   UNL     1       3.759   8.021  16.485  0.00  0.00    +0.000 HD
BRANCH  14  16
ATOM     16  C   UNL     1       3.372   6.877  18.196  0.00  0.00    +0.000 C 
BRANCH  16  17
ATOM     17  C   UNL     1       2.393   7.953  18.606  0.00  0.00    +0.000 A 
ATOM     18  C   UNL     1       1.906   8.027  19.915  0.00  0.00    +0.000 A 
ATOM     19  C   UNL     1       1.004   9.031  20.237  0.00  0.00    +0.000 A 
ATOM     20  N   UNL     1       0.558   9.948  19.356  0.00  0.00    +0.000 NA
ATOM     21  C   UNL     1       1.034   9.866  18.099  0.00  0.00    +0.000 A 
ATOM     22  C   UNL     1       1.939   8.901  17.681  0.00  0.00    +0.000 A 
ENDBRANCH  16  17
ENDBRANCH  14  16
ENDBRANCH  11  12
ENDBRANCH  10  11
ENDBRANCH   1  10
BRANCH   1  23
ATOM     23  C   UNL     1       6.922   5.672  19.211  0.00  0.00    +0.000 C 
BRANCH  23  24
ATOM     24  O   UNL     1       7.665   5.355  20.387  0.00  0.00    +0.000 OA
ATOM     25  H   UNL     1       8.196   6.141  20.637  0.00  0.00    +0.000 HD
ENDBRANCH  23  24
BRANCH  23  26
ATOM     26  C   UNL     1       7.885   6.257  18.171  0.00  0.00    +0.000 C 
BRANCH  26  27
ATOM     27  C   UNL     1       7.589   7.727  17.895  0.00  0.00    +0.000 C 
BRANCH  27  28
ATOM     28  C   UNL     1       8.523   8.652  18.660  0.00  0.00    +0.000 C 
BRANCH  28  29
ATOM     29  C   UNL     1       8.941   9.806  17.756  0.00  0.00    +0.000 C 
BRANCH  29  30
ATOM     30  C   UNL     1       8.752  11.137  18.465  0.00  0.00    +0.000 C 
BRANCH  30  31
ATOM     31  C   UNL     1      10.090  11.677  18.949  0.00  0.00    +0.000 C 
BRANCH  31  32
ATOM     32  C   UNL     1      10.211  11.499  20.455  0.00  0.00    +0.000 C 
BRANCH  32  33
ATOM     33  C   UNL     1      10.125  12.843  21.165  0.00  0.00    +0.000 C 
BRANCH  33  34
ATOM     34  C   UNL     1       9.144  12.767  22.329  0.00  0.00    +0.000 C 
BRANCH  34  35
ATOM     35  C   UNL     1       7.791  13.346  21.932  0.00  0.00    +0.000 C 
BRANCH  35  37
ATOM     36  C   UNL     1       6.673  11.824  23.583  0.00  0.00    +0.000 C 
ATOM     37  C   UNL     1       6.798  13.254  23.085  0.00  0.00    +0.000 C 
ENDBRANCH  35  37
ENDBRANCH  34  35
ENDBRANCH  33  34
ENDBRANCH  32  33
ENDBRANCH  31  32
ENDBRANCH  30  31
ENDBRANCH  29  30
ENDBRANCH  28  29
ENDBRANCH  27  28
ENDBRANCH  26  27
ENDBRANCH  23  26
ENDBRANCH   1  23
TORSDOF 20
ENDMDL
MODEL 6
REMARK VINA RESULT:      -6.3      4.365      8.602
REMARK  Name = 
REMARK  24 active torsions:
REMARK  status: ('A' for Active; 'I' for Inactive)
REMARK    1  A    between atoms: C_1  and  C_2
REMARK    2  A    between atoms: C_2  and  C_3
REMARK    3  A    between atoms: C_3  and  C_4
REMARK    4  A    between atoms: C_4  and  C_5
REMARK    5  A    between atoms: C_5  and  C_6
REMARK    6  A    between atoms: C_6  and  C_7
REMARK    7  A    between atoms: C_7  and  C_8
REMARK    8  A    between atoms: C_8  and  C_9
REMARK    9  A    between atoms: C_9  and  C_10
REMARK   10  A    between atoms: C_10  and  C_11
REMARK   11  A    between atoms: C_11  and  C_12
REMARK   12  A    between atoms: C_12  and  C_13
REMARK   13  A    between atoms: C_13  and  O_14
REMARK   14  A    between atoms: C_13  and  C_15
REMARK   15  A    between atoms: C_15  and  C_16
REMARK   16  A    between atoms: C_15  and  N_28
REMARK   17  A    between atoms: C_16  and  O_17
REMARK   18  A    between atoms: O_17  and  C_18
REMARK   19  A    between atoms: N_20  and  C_21
REMARK   20  A    between atoms: C_21  and  C_22
REMARK   21  A    between atoms: C_29  and  C_31
REMARK   22  A    between atoms: C_31  and  C_32
REMARK   23  A    between atoms: C_31  and  C_33
REMARK   24  A    between atoms: C_31  and  C_34
REMARK                            x       y       z     vdW  Elec       q    Type
REMARK                         _______ _______ _______ _____ _____    ______ ____
ROOT
ATOM      1  C   UNL     1       3.666   6.001  17.410  0.00  0.00    +0.000 C 
ENDROOT
BRANCH   1   2
ATOM      2  N   UNL     1       3.201   5.006  18.394  0.00  0.00    +0.000 N 
ATOM      3  C   UNL     1       2.063   4.258  18.252  0.00  0.00    +0.000 C 
ATOM      4  O   UNL     1       1.338   4.390  17.268  0.00  0.00    +0.000 OA
ATOM      5  H   UNL     1       3.745   4.916  19.245  0.00  0.00    +0.000 HD
BRANCH   3   6
ATOM      6  C   UNL     1       1.703   3.309  19.406  0.00  0.00    +0.000 C 
ATOM      7  C   UNL     1       2.979   2.696  19.999  0.00  0.00    +0.000 C 
ATOM      8  C   UNL     1       0.996   4.128  20.498  0.00  0.00    +0.000 C 
ATOM      9  C   UNL     1       0.759   2.200  18.924  0.00  0.00    +0.000 C 
ENDBRANCH   3   6
ENDBRANCH   1   2
BRANCH   1  10
ATOM     10  C   UNL     1       3.444   7.467  17.858  0.00  0.00    +0.000 C 
BRANCH  10  11
ATOM     11  O   UNL     1       2.053   7.775  18.145  0.00  0.00    +0.000 OA
BRANCH  11  12
ATOM     12  C   UNL     1       1.748   8.203  19.396  0.00  0.00    +0.000 C 
ATOM     13  O   UNL     1       1.856   7.553  20.426  0.00  0.00    +0.000 OA
ATOM     14  N   UNL     1       1.300   9.493  19.432  0.00  0.00    +0.000 N 
ATOM     15  H   UNL     1       1.128   9.803  20.379  0.00  0.00    +0.000 HD
BRANCH  14  16
ATOM     16  C   UNL     1       0.442  10.067  18.419  0.00  0.00    +0.000 C 
BRANCH  16  17
ATOM     17  C   UNL     1      -0.207  11.328  18.937  0.00  0.00    +0.000 A 
ATOM     18  C   UNL     1      -1.383  11.278  19.694  0.00  0.00    +0.000 A 
ATOM     19  C   UNL     1      -1.942  12.468  20.140  0.00  0.00    +0.000 A 
ATOM     20  N   UNL     1      -1.420  13.683  19.883  0.00  0.00    +0.000 NA
ATOM     21  C   UNL     1      -0.289  13.718  19.152  0.00  0.00    +0.000 A 
ATOM     22  C   UNL     1       0.346  12.586  18.663  0.00  0.00    +0.000 A 
ENDBRANCH  16  17
ENDBRANCH  14  16
ENDBRANCH  11  12
ENDBRANCH  10  11
ENDBRANCH   1  10
BRANCH   1  23
ATOM     23  C   UNL     1       5.136   5.782  16.934  0.00  0.00    +0.000 C 
BRANCH  23  24
ATOM     24  O   UNL     1       5.245   5.399  15.564  0.00  0.00    +0.000 OA
ATOM     25  H   UNL     1       5.243   6.213  15.016  0.00  0.00    +0.000 HD
ENDBRANCH  23  24
BRANCH  23  26
ATOM     26  C   UNL     1       6.058   6.983  17.178  0.00  0.00    +0.000 C 
BRANCH  26  27
ATOM     27  C   UNL     1       7.481   6.541  17.504  0.00  0.00    +0.000 C 
BRANCH  27  28
ATOM     28  C   UNL     1       8.186   7.520  18.429  0.00  0.00    +0.000 C 
BRANCH  28  29
ATOM     29  C   UNL     1       8.133   8.917  17.822  0.00  0.00    +0.000 C 
BRANCH  29  30
ATOM     30  C   UNL     1       8.723   9.939  18.779  0.00  0.00    +0.000 C 
BRANCH  30  31
ATOM     31  C   UNL     1       9.842  10.717  18.102  0.00  0.00    +0.000 C 
BRANCH  31  32
ATOM     32  C   UNL     1      10.672  11.452  19.144  0.00  0.00    +0.000 C 
BRANCH  32  33
ATOM     33  C   UNL     1       9.936  12.687  19.645  0.00  0.00    +0.000 C 
BRANCH  33  34
ATOM     34  C   UNL     1      10.355  13.013  21.073  0.00  0.00    +0.000 C 
BRANCH  34  35
ATOM     35  C   UNL     1       9.134  13.286  21.943  0.00  0.00    +0.000 C 
BRANCH  35  37
ATOM     36  C   UNL     1       8.165  11.607  23.534  0.00  0.00    +0.000 C 
ATOM     37  C   UNL     1       8.271  12.036  22.081  0.00  0.00    +0.000 C 
ENDBRANCH  35  37
ENDBRANCH  34  35
ENDBRANCH  33  34
ENDBRANCH  32  33
ENDBRANCH  31  32
ENDBRANCH  30  31
ENDBRANCH  29  30
ENDBRANCH  28  29
ENDBRANCH  27  28
ENDBRANCH  26  27
ENDBRANCH  23  26
ENDBRANCH   1  23
TORSDOF 20
ENDMDL
MODEL 7
REMARK VINA RESULT:      -6.3      3.617      5.129
REMARK  Name = 
REMARK  24 active torsions:
REMARK  status: ('A' for Active; 'I' for Inactive)
REMARK    1  A    between atoms: C_1  and  C_2
REMARK    2  A    between atoms: C_2  and  C_3
REMARK    3  A    between atoms: C_3  and  C_4
REMARK    4  A    between atoms: C_4  and  C_5
REMARK    5  A    between atoms: C_5  and  C_6
REMARK    6  A    between atoms: C_6  and  C_7
REMARK    7  A    between atoms: C_7  and  C_8
REMARK    8  A    between atoms: C_8  and  C_9
REMARK    9  A    between atoms: C_9  and  C_10
REMARK   10  A    between atoms: C_10  and  C_11
REMARK   11  A    between atoms: C_11  and  C_12
REMARK   12  A    between atoms: C_12  and  C_13
REMARK   13  A    between atoms: C_13  and  O_14
REMARK   14  A    between atoms: C_13  and  C_15
REMARK   15  A    between atoms: C_15  and  C_16
REMARK   16  A    between atoms: C_15  and  N_28
REMARK   17  A    between atoms: C_16  and  O_17
REMARK   18  A    between atoms: O_17  and  C_18
REMARK   19  A    between atoms: N_20  and  C_21
REMARK   20  A    between atoms: C_21  and  C_22
REMARK   21  A    between atoms: C_29  and  C_31
REMARK   22  A    between atoms: C_31  and  C_32
REMARK   23  A    between atoms: C_31  and  C_33
REMARK   24  A    between atoms: C_31  and  C_34
REMARK                            x       y       z     vdW  Elec       q    Type
REMARK                         _______ _______ _______ _____ _____    ______ ____
ROOT
ATOM      1  C   UNL     1       5.213   5.689  17.853  0.00  0.00    +0.000 C 
ENDROOT
BRANCH   1   2
ATOM      2  N   UNL     1       4.143   4.695  18.061  0.00  0.00    +0.000 N 
ATOM      3  C   UNL     1       4.196   3.692  18.991  0.00  0.00    +0.000 C 
ATOM      4  O   UNL     1       5.178   3.556  19.719  0.00  0.00    +0.000 OA
ATOM      5  H   UNL     1       3.346   4.745  17.436  0.00  0.00    +0.000 HD
BRANCH   3   6
ATOM      6  C   UNL     1       3.013   2.712  19.029  0.00  0.00    +0.000 C 
ATOM      7  C   UNL     1       3.453   1.334  18.518  0.00  0.00    +0.000 C 
ATOM      8  C   UNL     1       2.553   2.572  20.490  0.00  0.00    +0.000 C 
ATOM      9  C   UNL     1       1.843   3.239  18.188  0.00  0.00    +0.000 C 
ENDBRANCH   3   6
ENDBRANCH   1   2
BRANCH   1  10
ATOM     10  C   UNL     1       6.441   5.129  17.094  0.00  0.00    +0.000 C 
BRANCH  10  11
ATOM     11  O   UNL     1       7.651   5.904  17.310  0.00  0.00    +0.000 OA
BRANCH  11  12
ATOM     12  C   UNL     1       7.945   6.272  18.583  0.00  0.00    +0.000 C 
ATOM     13  O   UNL     1       7.816   5.578  19.582  0.00  0.00    +0.000 OA
ATOM     14  N   UNL     1       8.442   7.540  18.678  0.00  0.00    +0.000 N 
ATOM     15  H   UNL     1       8.700   7.772  19.628  0.00  0.00    +0.000 HD
BRANCH  14  16
ATOM     16  C   UNL     1       7.969   8.644  17.871  0.00  0.00    +0.000 C 
BRANCH  16  17
ATOM     17  C   UNL     1       8.553   9.945  18.369  0.00  0.00    +0.000 A 
ATOM     18  C   UNL     1       8.417  11.127  17.634  0.00  0.00    +0.000 A 
ATOM     19  C   UNL     1       8.978  12.294  18.135  0.00  0.00    +0.000 A 
ATOM     20  N   UNL     1       9.658  12.359  19.296  0.00  0.00    +0.000 NA
ATOM     21  C   UNL     1       9.784  11.214  19.994  0.00  0.00    +0.000 A 
ATOM     22  C   UNL     1       9.257  10.000  19.579  0.00  0.00    +0.000 A 
ENDBRANCH  16  17
ENDBRANCH  14  16
ENDBRANCH  11  12
ENDBRANCH  10  11
ENDBRANCH   1  10
BRANCH   1  23
ATOM     23  C   UNL     1       4.721   7.022  17.208  0.00  0.00    +0.000 C 
BRANCH  23  24
ATOM     24  O   UNL     1       5.215   7.238  15.887  0.00  0.00    +0.000 OA
ATOM     25  H   UNL     1       5.788   8.034  15.898  0.00  0.00    +0.000 HD
ENDBRANCH  23  24
BRANCH  23  26
ATOM     26  C   UNL     1       3.196   7.182  17.189  0.00  0.00    +0.000 C 
BRANCH  26  27
ATOM     27  C   UNL     1       2.704   8.023  18.362  0.00  0.00    +0.000 C 
BRANCH  27  28
ATOM     28  C   UNL     1       1.611   8.996  17.951  0.00  0.00    +0.000 C 
BRANCH  28  29
ATOM     29  C   UNL     1       2.179  10.410  17.922  0.00  0.00    +0.000 C 
BRANCH  29  30
ATOM     30  C   UNL     1       1.482  11.288  18.948  0.00  0.00    +0.000 C 
BRANCH  30  31
ATOM     31  C   UNL     1       0.214  10.614  19.453  0.00  0.00    +0.000 C 
BRANCH  31  32
ATOM     32  C   UNL     1      -0.768  11.661  19.956  0.00  0.00    +0.000 C 
BRANCH  32  33
ATOM     33  C   UNL     1      -1.118  11.412  21.417  0.00  0.00    +0.000 C 
BRANCH  33  34
ATOM     34  C   UNL     1      -0.569  12.531  22.294  0.00  0.00    +0.000 C 
BRANCH  34  35
ATOM     35  C   UNL     1      -1.677  13.142  23.143  0.00  0.00    +0.000 C 
BRANCH  35  37
ATOM     36  C   UNL     1      -3.868  12.373  24.092  0.00  0.00    +0.000 C 
ATOM     37  C   UNL     1      -3.023  12.494  22.836  0.00  0.00    +0.000 C 
ENDBRANCH  35  37
ENDBRANCH  34  35
ENDBRANCH  33  34
ENDBRANCH  32  33
ENDBRANCH  31  32
ENDBRANCH  30  31
ENDBRANCH  29  30
ENDBRANCH  28  29
ENDBRANCH  27  28
ENDBRANCH  26  27
ENDBRANCH  23  26
ENDBRANCH   1  23
TORSDOF 20
ENDMDL
MODEL 8
REMARK VINA RESULT:      -6.2      1.537      2.188
REMARK  Name = 
REMARK  24 active torsions:
REMARK  status: ('A' for Active; 'I' for Inactive)
REMARK    1  A    between atoms: C_1  and  C_2
REMARK    2  A    between atoms: C_2  and  C_3
REMARK    3  A    between atoms: C_3  and  C_4
REMARK    4  A    between atoms: C_4  and  C_5
REMARK    5  A    between atoms: C_5  and  C_6
REMARK    6  A    between atoms: C_6  and  C_7
REMARK    7  A    between atoms: C_7  and  C_8
REMARK    8  A    between atoms: C_8  and  C_9
REMARK    9  A    between atoms: C_9  and  C_10
REMARK   10  A    between atoms: C_10  and  C_11
REMARK   11  A    between atoms: C_11  and  C_12
REMARK   12  A    between atoms: C_12  and  C_13
REMARK   13  A    between atoms: C_13  and  O_14
REMARK   14  A    between atoms: C_13  and  C_15
REMARK   15  A    between atoms: C_15  and  C_16
REMARK   16  A    between atoms: C_15  and  N_28
REMARK   17  A    between atoms: C_16  and  O_17
REMARK   18  A    between atoms: O_17  and  C_18
REMARK   19  A    between atoms: N_20  and  C_21
REMARK   20  A    between atoms: C_21  and  C_22
REMARK   21  A    between atoms: C_29  and  C_31
REMARK   22  A    between atoms: C_31  and  C_32
REMARK   23  A    between atoms: C_31  and  C_33
REMARK   24  A    between atoms: C_31  and  C_34
REMARK                            x       y       z     vdW  Elec       q    Type
REMARK                         _______ _______ _______ _____ _____    ______ ____
ROOT
ATOM      1  C   UNL     1       3.538   5.914  19.630  0.00  0.00    +0.000 C 
ENDROOT
BRANCH   1   2
ATOM      2  N   UNL     1       3.021   4.553  19.866  0.00  0.00    +0.000 N 
ATOM      3  C   UNL     1       2.329   3.822  18.937  0.00  0.00    +0.000 C 
ATOM      4  O   UNL     1       2.085   4.283  17.824  0.00  0.00    +0.000 OA
ATOM      5  H   UNL     1       3.154   4.168  20.794  0.00  0.00    +0.000 HD
BRANCH   3   6
ATOM      6  C   UNL     1       1.817   2.441  19.377  0.00  0.00    +0.000 C 
ATOM      7  C   UNL     1       1.591   2.423  20.894  0.00  0.00    +0.000 C 
ATOM      8  C   UNL     1       0.473   2.183  18.675  0.00  0.00    +0.000 C 
ATOM      9  C   UNL     1       2.807   1.341  18.976  0.00  0.00    +0.000 C 
ENDBRANCH   3   6
ENDBRANCH   1   2
BRANCH   1  10
ATOM     10  C   UNL     1       4.646   5.978  18.549  0.00  0.00    +0.000 C 
BRANCH  10  11
ATOM     11  O   UNL     1       5.538   4.831  18.574  0.00  0.00    +0.000 OA
BRANCH  11  12
ATOM     12  C   UNL     1       6.742   4.957  17.960  0.00  0.00    +0.000 C 
ATOM     13  O   UNL     1       7.682   5.636  18.349  0.00  0.00    +0.000 OA
ATOM     14  N   UNL     1       6.847   4.215  16.818  0.00  0.00    +0.000 N 
ATOM     15  H   UNL     1       7.768   4.286  16.407  0.00  0.00    +0.000 HD
BRANCH  14  16
ATOM     16  C   UNL     1       5.757   4.034  15.883  0.00  0.00    +0.000 C 
BRANCH  16  17
ATOM     17  C   UNL     1       6.262   4.143  14.464  0.00  0.00    +0.000 A 
ATOM     18  C   UNL     1       5.728   3.349  13.443  0.00  0.00    +0.000 A 
ATOM     19  C   UNL     1       6.233   3.485  12.157  0.00  0.00    +0.000 A 
ATOM     20  N   UNL     1       7.220   4.340  11.826  0.00  0.00    +0.000 NA
ATOM     21  C   UNL     1       7.726   5.098  12.818  0.00  0.00    +0.000 A 
ATOM     22  C   UNL     1       7.288   5.037  14.132  0.00  0.00    +0.000 A 
ENDBRANCH  16  17
ENDBRANCH  14  16
ENDBRANCH  11  12
ENDBRANCH  10  11
ENDBRANCH   1  10
BRANCH   1  23
ATOM     23  C   UNL     1       2.427   6.974  19.351  0.00  0.00    +0.000 C 
BRANCH  23  24
ATOM     24  O   UNL     1       2.020   7.698  20.511  0.00  0.00    +0.000 OA
ATOM     25  H   UNL     1       1.761   7.052  21.202  0.00  0.00    +0.000 HD
ENDBRANCH  23  24
BRANCH  23  26
ATOM     26  C   UNL     1       2.786   7.980  18.251  0.00  0.00    +0.000 C 
BRANCH  26  27
ATOM     27  C   UNL     1       1.602   8.875  17.901  0.00  0.00    +0.000 C 
BRANCH  27  28
ATOM     28  C   UNL     1       1.962  10.351  17.959  0.00  0.00    +0.000 C 
BRANCH  28  29
ATOM     29  C   UNL     1       0.829  11.121  18.627  0.00  0.00    +0.000 C 
BRANCH  29  30
ATOM     30  C   UNL     1      -0.100  10.174  19.366  0.00  0.00    +0.000 C 
BRANCH  30  31
ATOM     31  C   UNL     1      -1.485  10.184  18.734  0.00  0.00    +0.000 C 
BRANCH  31  32
ATOM     32  C   UNL     1      -1.680  11.459  17.927  0.00  0.00    +0.000 C 
BRANCH  32  33
ATOM     33  C   UNL     1      -2.380  11.160  16.609  0.00  0.00    +0.000 C 
BRANCH  33  34
ATOM     34  C   UNL     1      -3.771  10.593  16.862  0.00  0.00    +0.000 C 
BRANCH  34  35
ATOM     35  C   UNL     1      -4.813  11.705  16.871  0.00  0.00    +0.000 C 
BRANCH  35  37
ATOM     36  C   UNL     1      -6.751  11.124  18.353  0.00  0.00    +0.000 C 
ATOM     37  C   UNL     1      -5.429  11.866  18.257  0.00  0.00    +0.000 C 
ENDBRANCH  35  37
ENDBRANCH  34  35
ENDBRANCH  33  34
ENDBRANCH  32  33
ENDBRANCH  31  32
ENDBRANCH  30  31
ENDBRANCH  29  30
ENDBRANCH  28  29
ENDBRANCH  27  28
ENDBRANCH  26  27
ENDBRANCH  23  26
ENDBRANCH   1  23
TORSDOF 20
ENDMDL
MODEL 9
REMARK VINA RESULT:      -6.2      4.114     10.826
REMARK  Name = 
REMARK  24 active torsions:
REMARK  status: ('A' for Active; 'I' for Inactive)
REMARK    1  A    between atoms: C_1  and  C_2
REMARK    2  A    between atoms: C_2  and  C_3
REMARK    3  A    between atoms: C_3  and  C_4
REMARK    4  A    between atoms: C_4  and  C_5
REMARK    5  A    between atoms: C_5  and  C_6
REMARK    6  A    between atoms: C_6  and  C_7
REMARK    7  A    between atoms: C_7  and  C_8
REMARK    8  A    between atoms: C_8  and  C_9
REMARK    9  A    between atoms: C_9  and  C_10
REMARK   10  A    between atoms: C_10  and  C_11
REMARK   11  A    between atoms: C_11  and  C_12
REMARK   12  A    between atoms: C_12  and  C_13
REMARK   13  A    between atoms: C_13  and  O_14
REMARK   14  A    between atoms: C_13  and  C_15
REMARK   15  A    between atoms: C_15  and  C_16
REMARK   16  A    between atoms: C_15  and  N_28
REMARK   17  A    between atoms: C_16  and  O_17
REMARK   18  A    between atoms: O_17  and  C_18
REMARK   19  A    between atoms: N_20  and  C_21
REMARK   20  A    between atoms: C_21  and  C_22
REMARK   21  A    between atoms: C_29  and  C_31
REMARK   22  A    between atoms: C_31  and  C_32
REMARK   23  A    between atoms: C_31  and  C_33
REMARK   24  A    between atoms: C_31  and  C_34
REMARK                            x       y       z     vdW  Elec       q    Type
REMARK                         _______ _______ _______ _____ _____    ______ ____
ROOT
ATOM      1  C   UNL     1       0.190  10.262  18.906  0.00  0.00    +0.000 C 
ENDROOT
BRANCH   1   2
ATOM      2  N   UNL     1      -1.202  10.185  18.425  0.00  0.00    +0.000 N 
ATOM      3  C   UNL     1      -1.903  11.249  17.925  0.00  0.00    +0.000 C 
ATOM      4  O   UNL     1      -1.393  12.366  17.857  0.00  0.00    +0.000 OA
ATOM      5  H   UNL     1      -1.670   9.290  18.523  0.00  0.00    +0.000 HD
BRANCH   3   6
ATOM      6  C   UNL     1      -3.364  10.995  17.523  0.00  0.00    +0.000 C 
ATOM      7  C   UNL     1      -3.568  11.335  16.041  0.00  0.00    +0.000 C 
ATOM      8  C   UNL     1      -3.667   9.502  17.732  0.00  0.00    +0.000 C 
ATOM      9  C   UNL     1      -4.319  11.824  18.391  0.00  0.00    +0.000 C 
ENDBRANCH   3   6
ENDBRANCH   1   2
BRANCH   1  10
ATOM     10  C   UNL     1       0.359   9.847  20.388  0.00  0.00    +0.000 C 
BRANCH  10  11
ATOM     11  O   UNL     1       0.394  10.977  21.300  0.00  0.00    +0.000 OA
BRANCH  11  12
ATOM     12  C   UNL     1      -0.177  10.819  22.521  0.00  0.00    +0.000 C 
ATOM     13  O   UNL     1       0.138   9.990  23.363  0.00  0.00    +0.000 OA
ATOM     14  N   UNL     1      -1.178  11.715  22.770  0.00  0.00    +0.000 N 
ATOM     15  H   UNL     1      -1.553  11.609  23.703  0.00  0.00    +0.000 HD
BRANCH  14  16
ATOM     16  C   UNL     1      -2.119  12.156  21.763  0.00  0.00    +0.000 C 
BRANCH  16  17
ATOM     17  C   UNL     1      -3.261  12.907  22.408  0.00  0.00    +0.000 A 
ATOM     18  C   UNL     1      -3.051  13.725  23.523  0.00  0.00    +0.000 A 
ATOM     19  C   UNL     1      -4.136  14.387  24.081  0.00  0.00    +0.000 A 
ATOM     20  N   UNL     1      -5.395  14.287  23.613  0.00  0.00    +0.000 NA
ATOM     21  C   UNL     1      -5.585  13.495  22.540  0.00  0.00    +0.000 A 
ATOM     22  C   UNL     1      -4.566  12.795  21.911  0.00  0.00    +0.000 A 
ENDBRANCH  16  17
ENDBRANCH  14  16
ENDBRANCH  11  12
ENDBRANCH  10  11
ENDBRANCH   1  10
BRANCH   1  23
ATOM     23  C   UNL     1       1.215   9.513  17.998  0.00  0.00    +0.000 C 
BRANCH  23  24
ATOM     24  O   UNL     1       2.183  10.370  17.396  0.00  0.00    +0.000 OA
ATOM     25  H   UNL     1       2.675   9.854  16.722  0.00  0.00    +0.000 HD
ENDBRANCH  23  24
BRANCH  23  26
ATOM     26  C   UNL     1       1.953   8.367  18.702  0.00  0.00    +0.000 C 
BRANCH  26  27
ATOM     27  C   UNL     1       3.317   8.107  18.073  0.00  0.00    +0.000 C 
BRANCH  27  28
ATOM     28  C   UNL     1       3.342   6.814  17.273  0.00  0.00    +0.000 C 
BRANCH  28  29
ATOM     29  C   UNL     1       4.739   6.598  16.705  0.00  0.00    +0.000 C 
BRANCH  29  30
ATOM     30  C   UNL     1       5.021   5.116  16.524  0.00  0.00    +0.000 C 
BRANCH  30  31
ATOM     31  C   UNL     1       4.346   4.308  17.623  0.00  0.00    +0.000 C 
BRANCH  31  32
ATOM     32  C   UNL     1       3.382   3.301  17.013  0.00  0.00    +0.000 C 
BRANCH  32  33
ATOM     33  C   UNL     1       2.325   2.886  18.027  0.00  0.00    +0.000 C 
BRANCH  33  34
ATOM     34  C   UNL     1       2.270   3.884  19.177  0.00  0.00    +0.000 C 
BRANCH  34  35
ATOM     35  C   UNL     1       0.965   3.742  19.951  0.00  0.00    +0.000 C 
BRANCH  35  37
ATOM     36  C   UNL     1       2.620   2.768  21.564  0.00  0.00    +0.000 C 
ATOM     37  C   UNL     1       1.152   2.864  21.184  0.00  0.00    +0.000 C 
ENDBRANCH  35  37
ENDBRANCH  34  35
ENDBRANCH  33  34
ENDBRANCH  32  33
ENDBRANCH  31  32
ENDBRANCH  30  31
ENDBRANCH  29  30
ENDBRANCH  28  29
ENDBRANCH  27  28
ENDBRANCH  26  27
ENDBRANCH  23  26
ENDBRANCH   1  23
TORSDOF 20
ENDMDL
