MODEL 1
REMARK VINA RESULT:      -8.6      0.000      0.000
REMARK  Name = 
REMARK  2 active torsions:
REMARK  status: ('A' for Active; 'I' for Inactive)
REMARK    1  A    between atoms: O_1  and  C_2
REMARK    2  A    between atoms: C_2  and  C_3
REMARK                            x       y       z     vdW  Elec       q    Type
REMARK                         _______ _______ _______ _____ _____    ______ ____
ROOT
ATOM      1  C   UNL     1       3.194   5.230  18.593  0.00  0.00    +0.000 C 
ATOM      2  C   UNL     1       2.997   4.012  19.547  0.00  0.00    +0.000 A 
ATOM      3  C   UNL     1       3.810   2.958  19.945  0.00  0.00    +0.000 A 
ATOM      4  C   UNL     1       3.452   2.182  21.067  0.00  0.00    +0.000 A 
ATOM      5  C   UNL     1       2.238   2.375  21.740  0.00  0.00    +0.000 A 
ATOM      6  C   UNL     1       1.442   3.459  21.407  0.00  0.00    +0.000 A 
ATOM      7  C   UNL     1       1.913   4.276  20.398  0.00  0.00    +0.000 A 
ATOM      8  C   UNL     1       1.817   5.713  20.388  0.00  0.00    +0.000 C 
ATOM      9  N   UNL     1       0.988   6.485  21.023  0.00  0.00    +0.000 NA
ATOM     10  C   UNL     1       1.530   7.833  20.664  0.00  0.00    +0.000 C 
ATOM     11  C   UNL     1       2.431   7.638  19.400  0.00  0.00    +0.000 C 
ATOM     12  N   UNL     1       2.798   6.256  19.566  0.00  0.00    +0.000 N 
ENDROOT
BRANCH   1  13
ATOM     13  C   UNL     1       4.563   5.334  17.811  0.00  0.00    +0.000 C 
ATOM     14  C   UNL     1       4.975   4.038  17.024  0.00  0.00    +0.000 C 
ATOM     15  C   UNL     1       6.352   4.216  16.315  0.00  0.00    +0.000 C 
ATOM     16  C   UNL     1       6.298   5.427  15.369  0.00  0.00    +0.000 C 
ATOM     17  C   UNL     1       5.985   6.691  16.173  0.00  0.00    +0.000 C 
ATOM     18  C   UNL     1       4.600   6.518  16.810  0.00  0.00    +0.000 C 
ATOM     19  C   UNL     1       7.031   6.920  17.279  0.00  0.00    +0.000 C 
ATOM     20  C   UNL     1       7.103   5.695  18.198  0.00  0.00    +0.000 C 
ATOM     21  C   UNL     1       5.733   5.485  18.862  0.00  0.00    +0.000 C 
ATOM     22  C   UNL     1       7.462   4.467  17.348  0.00  0.00    +0.000 C 
ENDBRANCH   1  13
BRANCH   1  23
ATOM     23  O   UNL     1       2.178   5.211  17.583  0.00  0.00    +0.000 OA
ATOM     24  H   UNL     1       2.198   4.337  17.169  0.00  0.00    +0.000 HD
ENDBRANCH   1  23
TORSDOF 2
ENDMDL
MODEL 2
REMARK VINA RESULT:      -8.5      0.114      1.557
REMARK  Name = 
REMARK  2 active torsions:
REMARK  status: ('A' for Active; 'I' for Inactive)
REMARK    1  A    between atoms: O_1  and  C_2
REMARK    2  A    between atoms: C_2  and  C_3
REMARK                            x       y       z     vdW  Elec       q    Type
REMARK                         _______ _______ _______ _____ _____    ______ ____
ROOT
ATOM      1  C   UNL     1       3.233   5.195  18.657  0.00  0.00    +0.000 C 
ATOM      2  C   UNL     1       2.995   3.975  19.598  0.00  0.00    +0.000 A 
ATOM      3  C   UNL     1       3.790   2.918  20.026  0.00  0.00    +0.000 A 
ATOM      4  C   UNL     1       3.385   2.139  21.130  0.00  0.00    +0.000 A 
ATOM      5  C   UNL     1       2.146   2.333  21.754  0.00  0.00    +0.000 A 
ATOM      6  C   UNL     1       1.367   3.420  21.394  0.00  0.00    +0.000 A 
ATOM      7  C   UNL     1       1.879   4.239  20.406  0.00  0.00    +0.000 A 
ATOM      8  C   UNL     1       1.787   5.676  20.397  0.00  0.00    +0.000 C 
ATOM      9  N   UNL     1       0.935   6.448  21.001  0.00  0.00    +0.000 NA
ATOM     10  C   UNL     1       1.494   7.796  20.668  0.00  0.00    +0.000 C 
ATOM     11  C   UNL     1       2.444   7.602  19.441  0.00  0.00    +0.000 C 
ATOM     12  N   UNL     1       2.801   6.219  19.617  0.00  0.00    +0.000 N 
ENDROOT
BRANCH   1  13
ATOM     13  C   UNL     1       4.632   5.298  17.931  0.00  0.00    +0.000 C 
ATOM     14  C   UNL     1       5.856   5.551  18.886  0.00  0.00    +0.000 C 
ATOM     15  C   UNL     1       7.187   5.676  18.084  0.00  0.00    +0.000 C 
ATOM     16  C   UNL     1       7.411   4.408  17.243  0.00  0.00    +0.000 C 
ATOM     17  C   UNL     1       6.252   4.234  16.260  0.00  0.00    +0.000 C 
ATOM     18  C   UNL     1       4.964   4.050  17.071  0.00  0.00    +0.000 C 
ATOM     19  C   UNL     1       6.109   5.466  15.346  0.00  0.00    +0.000 C 
ATOM     20  C   UNL     1       5.920   6.730  16.192  0.00  0.00    +0.000 C 
ATOM     21  C   UNL     1       4.634   6.591  17.022  0.00  0.00    +0.000 C 
ATOM     22  C   UNL     1       7.129   6.878  17.127  0.00  0.00    +0.000 C 
ENDBRANCH   1  13
BRANCH   1  23
ATOM     23  O   UNL     1       2.258   5.182  17.607  0.00  0.00    +0.000 OA
ATOM     24  H   UNL     1       2.123   6.098  17.328  0.00  0.00    +0.000 HD
ENDBRANCH   1  23
TORSDOF 2
ENDMDL
MODEL 3
REMARK VINA RESULT:      -8.4      2.148      5.709
REMARK  Name = 
REMARK  2 active torsions:
REMARK  status: ('A' for Active; 'I' for Inactive)
REMARK    1  A    between atoms: O_1  and  C_2
REMARK    2  A    between atoms: C_2  and  C_3
REMARK                            x       y       z     vdW  Elec       q    Type
REMARK                         _______ _______ _______ _____ _____    ______ ____
ROOT
ATOM      1  C   UNL     1       4.338   5.140  17.551  0.00  0.00    +0.000 C 
ATOM      2  C   UNL     1       5.617   5.675  18.265  0.00  0.00    +0.000 A 
ATOM      3  C   UNL     1       6.173   5.476  19.523  0.00  0.00    +0.000 A 
ATOM      4  C   UNL     1       7.509   5.854  19.766  0.00  0.00    +0.000 A 
ATOM      5  C   UNL     1       8.273   6.525  18.802  0.00  0.00    +0.000 A 
ATOM      6  C   UNL     1       7.769   6.675  17.520  0.00  0.00    +0.000 A 
ATOM      7  C   UNL     1       6.510   6.153  17.294  0.00  0.00    +0.000 A 
ATOM      8  C   UNL     1       6.106   5.465  16.095  0.00  0.00    +0.000 C 
ATOM      9  N   UNL     1       6.612   5.532  14.900  0.00  0.00    +0.000 NA
ATOM     10  C   UNL     1       5.807   4.483  14.197  0.00  0.00    +0.000 C 
ATOM     11  C   UNL     1       4.532   4.231  15.067  0.00  0.00    +0.000 C 
ATOM     12  N   UNL     1       5.027   4.629  16.358  0.00  0.00    +0.000 N 
ENDROOT
BRANCH   1  13
ATOM     13  C   UNL     1       3.364   4.219  18.386  0.00  0.00    +0.000 C 
ATOM     14  C   UNL     1       1.932   4.035  17.762  0.00  0.00    +0.000 C 
ATOM     15  C   UNL     1       1.027   3.145  18.667  0.00  0.00    +0.000 C 
ATOM     16  C   UNL     1       1.698   1.779  18.891  0.00  0.00    +0.000 C 
ATOM     17  C   UNL     1       3.049   1.979  19.581  0.00  0.00    +0.000 C 
ATOM     18  C   UNL     1       3.942   2.804  18.647  0.00  0.00    +0.000 C 
ATOM     19  C   UNL     1       2.885   2.723  20.920  0.00  0.00    +0.000 C 
ATOM     20  C   UNL     1       2.186   4.068  20.693  0.00  0.00    +0.000 C 
ATOM     21  C   UNL     1       3.051   4.932  19.761  0.00  0.00    +0.000 C 
ATOM     22  C   UNL     1       0.821   3.805  20.040  0.00  0.00    +0.000 C 
ENDBRANCH   1  13
BRANCH   1  23
ATOM     23  O   UNL     1       3.539   6.248  17.117  0.00  0.00    +0.000 OA
ATOM     24  H   UNL     1       2.735   6.251  17.655  0.00  0.00    +0.000 HD
ENDBRANCH   1  23
TORSDOF 2
ENDMDL
MODEL 4
REMARK VINA RESULT:      -8.4      0.160      1.584
REMARK  Name = 
REMARK  2 active torsions:
REMARK  status: ('A' for Active; 'I' for Inactive)
REMARK    1  A    between atoms: O_1  and  C_2
REMARK    2  A    between atoms: C_2  and  C_3
REMARK                            x       y       z     vdW  Elec       q    Type
REMARK                         _______ _______ _______ _____ _____    ______ ____
ROOT
ATOM      1  C   UNL     1       3.316   5.314  18.642  0.00  0.00    +0.000 C 
ATOM      2  C   UNL     1       3.116   4.067  19.555  0.00  0.00    +0.000 A 
ATOM      3  C   UNL     1       3.945   3.031  19.969  0.00  0.00    +0.000 A 
ATOM      4  C   UNL     1       3.560   2.215  21.052  0.00  0.00    +0.000 A 
ATOM      5  C   UNL     1       2.309   2.349  21.668  0.00  0.00    +0.000 A 
ATOM      6  C   UNL     1       1.493   3.414  21.323  0.00  0.00    +0.000 A 
ATOM      7  C   UNL     1       1.983   4.272  20.358  0.00  0.00    +0.000 A 
ATOM      8  C   UNL     1       1.838   5.705  20.378  0.00  0.00    +0.000 C 
ATOM      9  N   UNL     1       0.951   6.431  20.989  0.00  0.00    +0.000 NA
ATOM     10  C   UNL     1       1.462   7.806  20.689  0.00  0.00    +0.000 C 
ATOM     11  C   UNL     1       2.431   7.674  19.468  0.00  0.00    +0.000 C 
ATOM     12  N   UNL     1       2.837   6.302  19.619  0.00  0.00    +0.000 N 
ENDROOT
BRANCH   1  13
ATOM     13  C   UNL     1       4.717   5.485  17.932  0.00  0.00    +0.000 C 
ATOM     14  C   UNL     1       4.789   6.657  16.886  0.00  0.00    +0.000 C 
ATOM     15  C   UNL     1       6.191   6.730  16.209  0.00  0.00    +0.000 C 
ATOM     16  C   UNL     1       7.281   6.896  17.282  0.00  0.00    +0.000 C 
ATOM     17  C   UNL     1       7.249   5.698  18.233  0.00  0.00    +0.000 C 
ATOM     18  C   UNL     1       5.885   5.684  18.934  0.00  0.00    +0.000 C 
ATOM     19  C   UNL     1       7.445   4.375  17.469  0.00  0.00    +0.000 C 
ATOM     20  C   UNL     1       6.377   4.233  16.380  0.00  0.00    +0.000 C 
ATOM     21  C   UNL     1       4.988   4.210  17.039  0.00  0.00    +0.000 C 
ATOM     22  C   UNL     1       6.482   5.436  15.431  0.00  0.00    +0.000 C 
ENDBRANCH   1  13
BRANCH   1  23
ATOM     23  O   UNL     1       2.352   5.287  17.583  0.00  0.00    +0.000 OA
ATOM     24  H   UNL     1       1.945   6.164  17.541  0.00  0.00    +0.000 HD
ENDBRANCH   1  23
TORSDOF 2
ENDMDL
MODEL 5
REMARK VINA RESULT:      -8.3      2.351      5.891
REMARK  Name = 
REMARK  2 active torsions:
REMARK  status: ('A' for Active; 'I' for Inactive)
REMARK    1  A    between atoms: O_1  and  C_2
REMARK    2  A    between atoms: C_2  and  C_3
REMARK                            x       y       z     vdW  Elec       q    Type
REMARK                         _______ _______ _______ _____ _____    ______ ____
ROOT
ATOM      1  C   UNL     1       5.636   4.503  17.483  0.00  0.00    +0.000 C 
ATOM      2  C   UNL     1       5.851   4.183  15.972  0.00  0.00    +0.000 A 
ATOM      3  C   UNL     1       5.042   3.656  14.973  0.00  0.00    +0.000 A 
ATOM      4  C   UNL     1       5.426   3.779  13.622  0.00  0.00    +0.000 A 
ATOM      5  C   UNL     1       6.661   4.329  13.254  0.00  0.00    +0.000 A 
ATOM      6  C   UNL     1       7.455   4.923  14.221  0.00  0.00    +0.000 A 
ATOM      7  C   UNL     1       6.962   4.907  15.511  0.00  0.00    +0.000 A 
ATOM      8  C   UNL     1       7.069   5.996  16.449  0.00  0.00    +0.000 C 
ATOM      9  N   UNL     1       7.923   6.974  16.476  0.00  0.00    +0.000 NA
ATOM     10  C   UNL     1       7.381   7.785  17.612  0.00  0.00    +0.000 C 
ATOM     11  C   UNL     1       6.442   6.843  18.435  0.00  0.00    +0.000 C 
ATOM     12  N   UNL     1       6.069   5.904  17.410  0.00  0.00    +0.000 N 
ENDROOT
BRANCH   1  13
ATOM     13  C   UNL     1       4.246   4.112  18.123  0.00  0.00    +0.000 C 
ATOM     14  C   UNL     1       3.628   2.768  17.593  0.00  0.00    +0.000 C 
ATOM     15  C   UNL     1       2.243   2.480  18.249  0.00  0.00    +0.000 C 
ATOM     16  C   UNL     1       2.389   2.440  19.779  0.00  0.00    +0.000 C 
ATOM     17  C   UNL     1       2.906   3.791  20.280  0.00  0.00    +0.000 C 
ATOM     18  C   UNL     1       4.295   4.023  19.671  0.00  0.00    +0.000 C 
ATOM     19  C   UNL     1       1.966   4.936  19.860  0.00  0.00    +0.000 C 
ATOM     20  C   UNL     1       1.799   4.948  18.336  0.00  0.00    +0.000 C 
ATOM     21  C   UNL     1       3.170   5.183  17.683  0.00  0.00    +0.000 C 
ATOM     22  C   UNL     1       1.238   3.588  17.895  0.00  0.00    +0.000 C 
ENDBRANCH   1  13
BRANCH   1  23
ATOM     23  O   UNL     1       6.622   3.811  18.260  0.00  0.00    +0.000 OA
ATOM     24  H   UNL     1       7.481   4.204  18.051  0.00  0.00    +0.000 HD
ENDBRANCH   1  23
TORSDOF 2
ENDMDL
MODEL 6
REMARK VINA RESULT:      -8.3      2.334      5.884
REMARK  Name = 
REMARK  2 active torsions:
REMARK  status: ('A' for Active; 'I' for Inactive)
REMARK    1  A    between atoms: O_1  and  C_2
REMARK    2  A    between atoms: C_2  and  C_3
REMARK                            x       y       z     vdW  Elec       q    Type
REMARK                         _______ _______ _______ _____ _____    ______ ____
ROOT
ATOM      1  C   UNL     1       5.547   4.496  17.490  0.00  0.00    +0.000 C 
ATOM      2  C   UNL     1       5.765   4.159  15.983  0.00  0.00    +0.000 A 
ATOM      3  C   UNL     1       4.952   3.635  14.985  0.00  0.00    +0.000 A 
ATOM      4  C   UNL     1       5.346   3.738  13.635  0.00  0.00    +0.000 A 
ATOM      5  C   UNL     1       6.591   4.266  13.269  0.00  0.00    +0.000 A 
ATOM      6  C   UNL     1       7.390   4.856  14.235  0.00  0.00    +0.000 A 
ATOM      7  C   UNL     1       6.889   4.860  15.522  0.00  0.00    +0.000 A 
ATOM      8  C   UNL     1       7.009   5.956  16.450  0.00  0.00    +0.000 C 
ATOM      9  N   UNL     1       7.878   6.920  16.472  0.00  0.00    +0.000 NA
ATOM     10  C   UNL     1       7.344   7.751  17.598  0.00  0.00    +0.000 C 
ATOM     11  C   UNL     1       6.385   6.832  18.424  0.00  0.00    +0.000 C 
ATOM     12  N   UNL     1       6.002   5.890  17.406  0.00  0.00    +0.000 N 
ENDROOT
BRANCH   1  13
ATOM     13  C   UNL     1       4.147   4.134  18.127  0.00  0.00    +0.000 C 
ATOM     14  C   UNL     1       2.958   5.059  17.678  0.00  0.00    +0.000 C 
ATOM     15  C   UNL     1       1.626   4.656  18.381  0.00  0.00    +0.000 C 
ATOM     16  C   UNL     1       1.305   3.182  18.083  0.00  0.00    +0.000 C 
ATOM     17  C   UNL     1       2.435   2.295  18.610  0.00  0.00    +0.000 C 
ATOM     18  C   UNL     1       3.720   2.667  17.860  0.00  0.00    +0.000 C 
ATOM     19  C   UNL     1       2.646   2.503  20.121  0.00  0.00    +0.000 C 
ATOM     20  C   UNL     1       2.933   3.980  20.414  0.00  0.00    +0.000 C 
ATOM     21  C   UNL     1       4.218   4.397  19.683  0.00  0.00    +0.000 C 
ATOM     22  C   UNL     1       1.750   4.818  19.905  0.00  0.00    +0.000 C 
ENDBRANCH   1  13
BRANCH   1  23
ATOM     23  O   UNL     1       6.517   3.796  18.279  0.00  0.00    +0.000 OA
ATOM     24  H   UNL     1       6.222   2.878  18.351  0.00  0.00    +0.000 HD
ENDBRANCH   1  23
TORSDOF 2
ENDMDL
MODEL 7
REMARK VINA RESULT:      -8.3      2.360      5.889
REMARK  Name = 
REMARK  2 active torsions:
REMARK  status: ('A' for Active; 'I' for Inactive)
REMARK    1  A    between atoms: O_1  and  C_2
REMARK    2  A    between atoms: C_2  and  C_3
REMARK                            x       y       z     vdW  Elec       q    Type
REMARK                         _______ _______ _______ _____ _____    ______ ____
ROOT
ATOM      1  C   UNL     1       5.594   4.536  17.517  0.00  0.00    +0.000 C 
ATOM      2  C   UNL     1       5.777   4.196  16.006  0.00  0.00    +0.000 A 
ATOM      3  C   UNL     1       4.930   3.705  15.020  0.00  0.00    +0.000 A 
ATOM      4  C   UNL     1       5.305   3.798  13.664  0.00  0.00    +0.000 A 
ATOM      5  C   UNL     1       6.562   4.284  13.279  0.00  0.00    +0.000 A 
ATOM      6  C   UNL     1       7.396   4.843  14.233  0.00  0.00    +0.000 A 
ATOM      7  C   UNL     1       6.917   4.860  15.529  0.00  0.00    +0.000 A 
ATOM      8  C   UNL     1       7.089   5.948  16.457  0.00  0.00    +0.000 C 
ATOM      9  N   UNL     1       7.992   6.882  16.469  0.00  0.00    +0.000 NA
ATOM     10  C   UNL     1       7.504   7.726  17.605  0.00  0.00    +0.000 C 
ATOM     11  C   UNL     1       6.528   6.839  18.444  0.00  0.00    +0.000 C 
ATOM     12  N   UNL     1       6.096   5.914  17.430  0.00  0.00    +0.000 N 
ENDROOT
BRANCH   1  13
ATOM     13  C   UNL     1       4.193   4.221  18.175  0.00  0.00    +0.000 C 
ATOM     14  C   UNL     1       4.212   4.097  19.743  0.00  0.00    +0.000 C 
ATOM     15  C   UNL     1       2.800   3.749  20.303  0.00  0.00    +0.000 C 
ATOM     16  C   UNL     1       1.785   4.815  19.858  0.00  0.00    +0.000 C 
ATOM     17  C   UNL     1       1.719   4.853  18.330  0.00  0.00    +0.000 C 
ATOM     18  C   UNL     1       3.101   5.258  17.804  0.00  0.00    +0.000 C 
ATOM     19  C   UNL     1       1.337   3.476  17.756  0.00  0.00    +0.000 C 
ATOM     20  C   UNL     1       2.333   2.412  18.231  0.00  0.00    +0.000 C 
ATOM     21  C   UNL     1       3.737   2.777  17.722  0.00  0.00    +0.000 C 
ATOM     22  C   UNL     1       2.327   2.388  19.766  0.00  0.00    +0.000 C 
ENDBRANCH   1  13
BRANCH   1  23
ATOM     23  O   UNL     1       6.553   3.800  18.288  0.00  0.00    +0.000 OA
ATOM     24  H   UNL     1       7.213   3.454  17.672  0.00  0.00    +0.000 HD
ENDBRANCH   1  23
TORSDOF 2
ENDMDL
MODEL 8
REMARK VINA RESULT:      -8.1      2.138      5.742
REMARK  Name = 
REMARK  2 active torsions:
REMARK  status: ('A' for Active; 'I' for Inactive)
REMARK    1  A    between atoms: O_1  and  C_2
REMARK    2  A    between atoms: C_2  and  C_3
REMARK                            x       y       z     vdW  Elec       q    Type
REMARK                         _______ _______ _______ _____ _____    ______ ____
ROOT
ATOM      1  C   UNL     1       4.335   5.151  17.669  0.00  0.00    +0.000 C 
ATOM      2  C   UNL     1       5.640   5.723  18.302  0.00  0.00    +0.000 A 
ATOM      3  C   UNL     1       6.263   5.567  19.534  0.00  0.00    +0.000 A 
ATOM      4  C   UNL     1       7.604   5.972  19.698  0.00  0.00    +0.000 A 
ATOM      5  C   UNL     1       8.306   6.627  18.678  0.00  0.00    +0.000 A 
ATOM      6  C   UNL     1       7.735   6.734  17.421  0.00  0.00    +0.000 A 
ATOM      7  C   UNL     1       6.474   6.188  17.274  0.00  0.00    +0.000 A 
ATOM      8  C   UNL     1       6.021   5.461  16.116  0.00  0.00    +0.000 C 
ATOM      9  N   UNL     1       6.464   5.503  14.895  0.00  0.00    +0.000 NA
ATOM     10  C   UNL     1       5.640   4.424  14.263  0.00  0.00    +0.000 C 
ATOM     11  C   UNL     1       4.416   4.177  15.204  0.00  0.00    +0.000 C 
ATOM     12  N   UNL     1       4.970   4.618  16.456  0.00  0.00    +0.000 N 
ENDROOT
BRANCH   1  13
ATOM     13  C   UNL     1       3.420   4.239  18.577  0.00  0.00    +0.000 C 
ATOM     14  C   UNL     1       3.943   2.770  18.780  0.00  0.00    +0.000 C 
ATOM     15  C   UNL     1       2.963   1.931  19.655  0.00  0.00    +0.000 C 
ATOM     16  C   UNL     1       2.755   2.623  21.013  0.00  0.00    +0.000 C 
ATOM     17  C   UNL     1       2.160   4.015  20.793  0.00  0.00    +0.000 C 
ATOM     18  C   UNL     1       3.168   4.840  19.984  0.00  0.00    +0.000 C 
ATOM     19  C   UNL     1       0.829   3.936  20.022  0.00  0.00    +0.000 C 
ATOM     20  C   UNL     1       1.037   3.216  18.685  0.00  0.00    +0.000 C 
ATOM     21  C   UNL     1       2.041   4.013  17.837  0.00  0.00    +0.000 C 
ATOM     22  C   UNL     1       1.593   1.812  18.966  0.00  0.00    +0.000 C 
ENDBRANCH   1  13
BRANCH   1  23
ATOM     23  O   UNL     1       3.497   6.235  17.248  0.00  0.00    +0.000 OA
ATOM     24  H   UNL     1       2.656   5.853  16.959  0.00  0.00    +0.000 HD
ENDBRANCH   1  23
TORSDOF 2
ENDMDL
MODEL 9
REMARK VINA RESULT:      -8.1      2.115      5.717
REMARK  Name = 
REMARK  2 active torsions:
REMARK  status: ('A' for Active; 'I' for Inactive)
REMARK    1  A    between atoms: O_1  and  C_2
REMARK    2  A    between atoms: C_2  and  C_3
REMARK                            x       y       z     vdW  Elec       q    Type
REMARK                         _______ _______ _______ _____ _____    ______ ____
ROOT
ATOM      1  C   UNL     1       4.303   5.202  17.634  0.00  0.00    +0.000 C 
ATOM      2  C   UNL     1       5.613   5.733  18.293  0.00  0.00    +0.000 A 
ATOM      3  C   UNL     1       6.198   5.569  19.543  0.00  0.00    +0.000 A 
ATOM      4  C   UNL     1       7.548   5.926  19.736  0.00  0.00    +0.000 A 
ATOM      5  C   UNL     1       8.300   6.543  18.727  0.00  0.00    +0.000 A 
ATOM      6  C   UNL     1       7.764   6.656  17.455  0.00  0.00    +0.000 A 
ATOM      7  C   UNL     1       6.489   6.155  17.282  0.00  0.00    +0.000 A 
ATOM      8  C   UNL     1       6.037   5.431  16.120  0.00  0.00    +0.000 C 
ATOM      9  N   UNL     1       6.512   5.442  14.912  0.00  0.00    +0.000 NA
ATOM     10  C   UNL     1       5.665   4.386  14.271  0.00  0.00    +0.000 C 
ATOM     11  C   UNL     1       4.409   4.196  15.183  0.00  0.00    +0.000 C 
ATOM     12  N   UNL     1       4.948   4.631  16.444  0.00  0.00    +0.000 N 
ENDROOT
BRANCH   1  13
ATOM     13  C   UNL     1       3.332   4.335  18.529  0.00  0.00    +0.000 C 
ATOM     14  C   UNL     1       3.054   4.919  19.962  0.00  0.00    +0.000 C 
ATOM     15  C   UNL     1       2.119   3.984  20.787  0.00  0.00    +0.000 C 
ATOM     16  C   UNL     1       0.799   3.765  20.027  0.00  0.00    +0.000 C 
ATOM     17  C   UNL     1       1.089   3.112  18.674  0.00  0.00    +0.000 C 
ATOM     18  C   UNL     1       1.958   4.076  17.858  0.00  0.00    +0.000 C 
ATOM     19  C   UNL     1       1.836   1.776  18.850  0.00  0.00    +0.000 C 
ATOM     20  C   UNL     1       3.133   1.997  19.636  0.00  0.00    +0.000 C 
ATOM     21  C   UNL     1       4.038   2.958  18.850  0.00  0.00    +0.000 C 
ATOM     22  C   UNL     1       2.780   2.612  20.999  0.00  0.00    +0.000 C 
ENDBRANCH   1  13
BRANCH   1  23
ATOM     23  O   UNL     1       3.516   6.310  17.180  0.00  0.00    +0.000 OA
ATOM     24  H   UNL     1       3.159   6.750  17.964  0.00  0.00    +0.000 HD
ENDBRANCH   1  23
TORSDOF 2
ENDMDL
