MODEL 1
REMARK VINA RESULT:      -6.9      0.000      0.000
REMARK  Name = 
REMARK  11 active torsions:
REMARK  status: ('A' for Active; 'I' for Inactive)
REMARK    1  A    between atoms: C_1  and  C_2
REMARK    2  A    between atoms: C_2  and  O_3
REMARK    3  A    between atoms: O_3  and  C_4
REMARK    4  A    between atoms: C_4  and  C_6
REMARK    5  A    between atoms: C_6  and  N_7
REMARK    6  A    between atoms: C_8  and  C_10
REMARK    7  A    between atoms: C_10  and  S_11
REMARK    8  A    between atoms: S_11  and  C_12
REMARK    9  A    between atoms: C_15  and  C_16
REMARK   10  A    between atoms: C_16  and  N_17
REMARK   11  A    between atoms: N_26  and  C_27
REMARK                            x       y       z     vdW  Elec       q    Type
REMARK                         _______ _______ _______ _____ _____    ______ ____
ROOT
ATOM      1  C   UNL     1       1.719   3.692  18.802  0.00  0.00    +0.000 A 
ATOM      2  N   UNL     1       1.582   4.249  17.626  0.00  0.00    +0.000 NA
ATOM      3  N   UNL     1       1.904   5.580  17.758  0.00  0.00    +0.000 NA
ATOM      4  C   UNL     1       2.237   5.804  19.018  0.00  0.00    +0.000 A 
ATOM      5  N   UNL     1       2.037   4.644  19.731  0.00  0.00    +0.000 N 
ATOM      6  C   UNL     1       2.143   4.441  21.151  0.00  0.00    +0.000 C 
ENDROOT
BRANCH   1   7
ATOM      7  S   UNL     1       1.720   1.996  19.134  0.00  0.00    +0.000 S 
BRANCH   7   8
ATOM      8  C   UNL     1       3.309   1.499  18.416  0.00  0.00    +0.000 C 
BRANCH   8  10
ATOM      9  N   UNL     1       4.692   3.390  17.727  0.00  0.00    +0.000 N 
ATOM     10  C   UNL     1       4.356   2.547  18.755  0.00  0.00    +0.000 C 
ATOM     11  O   UNL     1       4.886   2.613  19.865  0.00  0.00    +0.000 OA
ATOM     12  H   UNL     1       4.158   3.379  16.860  0.00  0.00    +0.000 HD
BRANCH   9  13
ATOM     13  C   UNL     1       5.662   4.461  17.910  0.00  0.00    +0.000 C 
BRANCH  13  14
ATOM     14  C   UNL     1       6.736   4.400  16.839  0.00  0.00    +0.000 C 
ATOM     15  O   UNL     1       7.867   4.856  16.964  0.00  0.00    +0.000 OA
BRANCH  14  16
ATOM     16  O   UNL     1       6.227   3.839  15.708  0.00  0.00    +0.000 OA
BRANCH  16  18
ATOM     17  C   UNL     1       6.110   3.748  13.326  0.00  0.00    +0.000 C 
ATOM     18  C   UNL     1       6.302   4.654  14.530  0.00  0.00    +0.000 C 
ENDBRANCH  16  18
ENDBRANCH  14  16
ENDBRANCH  13  14
ENDBRANCH   9  13
ENDBRANCH   8  10
ENDBRANCH   7   8
ENDBRANCH   1   7
BRANCH   4  19
ATOM     19  C   UNL     1       2.824   7.071  19.543  0.00  0.00    +0.000 C 
BRANCH  19  20
ATOM     20  N   UNL     1       1.814   7.950  20.105  0.00  0.00    +0.000 N 
ATOM     21  C   UNL     1       1.338   7.878  21.388  0.00  0.00    +0.000 A 
ATOM     22  N   UNL     1       0.461   8.824  21.633  0.00  0.00    +0.000 NA
ATOM     23  C   UNL     1       0.336   9.515  20.454  0.00  0.00    +0.000 A 
ATOM     24  C   UNL     1      -0.456  10.634  20.162  0.00  0.00    +0.000 A 
ATOM     25  C   UNL     1      -0.427  11.162  18.865  0.00  0.00    +0.000 A 
ATOM     26  C   UNL     1       0.352  10.567  17.873  0.00  0.00    +0.000 A 
ATOM     27  C   UNL     1       1.149   9.447  18.145  0.00  0.00    +0.000 A 
ATOM     28  C   UNL     1       1.140   8.960  19.459  0.00  0.00    +0.000 A 
ENDBRANCH  19  20
ENDBRANCH   4  19
TORSDOF 9
ENDMDL
MODEL 2
REMARK VINA RESULT:      -6.5      1.896      2.728
REMARK  Name = 
REMARK  11 active torsions:
REMARK  status: ('A' for Active; 'I' for Inactive)
REMARK    1  A    between atoms: C_1  and  C_2
REMARK    2  A    between atoms: C_2  and  O_3
REMARK    3  A    between atoms: O_3  and  C_4
REMARK    4  A    between atoms: C_4  and  C_6
REMARK    5  A    between atoms: C_6  and  N_7
REMARK    6  A    between atoms: C_8  and  C_10
REMARK    7  A    between atoms: C_10  and  S_11
REMARK    8  A    between atoms: S_11  and  C_12
REMARK    9  A    between atoms: C_15  and  C_16
REMARK   10  A    between atoms: C_16  and  N_17
REMARK   11  A    between atoms: N_26  and  C_27
REMARK                            x       y       z     vdW  Elec       q    Type
REMARK                         _______ _______ _______ _____ _____    ______ ____
ROOT
ATOM      1  C   UNL     1       2.286   6.123  19.606  0.00  0.00    +0.000 A 
ATOM      2  N   UNL     1       1.687   6.677  20.629  0.00  0.00    +0.000 NA
ATOM      3  N   UNL     1       1.521   8.012  20.338  0.00  0.00    +0.000 NA
ATOM      4  C   UNL     1       2.020   8.240  19.134  0.00  0.00    +0.000 A 
ATOM      5  N   UNL     1       2.602   7.079  18.680  0.00  0.00    +0.000 N 
ATOM      6  C   UNL     1       3.376   6.878  17.484  0.00  0.00    +0.000 C 
ENDROOT
BRANCH   1   7
ATOM      7  S   UNL     1       2.473   4.427  19.329  0.00  0.00    +0.000 S 
BRANCH   7   8
ATOM      8  C   UNL     1       4.186   4.171  19.864  0.00  0.00    +0.000 C 
BRANCH   8  10
ATOM      9  N   UNL     1       6.298   4.748  18.784  0.00  0.00    +0.000 N 
ATOM     10  C   UNL     1       5.087   4.123  18.642  0.00  0.00    +0.000 C 
ATOM     11  O   UNL     1       4.739   3.586  17.588  0.00  0.00    +0.000 OA
ATOM     12  H   UNL     1       6.598   5.083  19.698  0.00  0.00    +0.000 HD
BRANCH   9  13
ATOM     13  C   UNL     1       7.278   4.761  17.706  0.00  0.00    +0.000 C 
BRANCH  13  14
ATOM     14  C   UNL     1       7.245   6.088  16.968  0.00  0.00    +0.000 C 
ATOM     15  O   UNL     1       7.539   7.167  17.469  0.00  0.00    +0.000 OA
BRANCH  14  16
ATOM     16  O   UNL     1       6.769   5.900  15.707  0.00  0.00    +0.000 OA
BRANCH  16  18
ATOM     17  C   UNL     1       5.834   4.245  14.264  0.00  0.00    +0.000 C 
ATOM     18  C   UNL     1       7.020   4.606  15.141  0.00  0.00    +0.000 C 
ENDBRANCH  16  18
ENDBRANCH  14  16
ENDBRANCH  13  14
ENDBRANCH   9  13
ENDBRANCH   8  10
ENDBRANCH   7   8
ENDBRANCH   1   7
BRANCH   4  19
ATOM     19  C   UNL     1       1.880   9.513  18.370  0.00  0.00    +0.000 C 
BRANCH  19  20
ATOM     20  N   UNL     1       0.845  10.370  18.919  0.00  0.00    +0.000 N 
ATOM     21  C   UNL     1       1.013  11.227  19.974  0.00  0.00    +0.000 A 
ATOM     22  N   UNL     1      -0.082  11.906  20.227  0.00  0.00    +0.000 NA
ATOM     23  C   UNL     1      -1.008  11.447  19.325  0.00  0.00    +0.000 A 
ATOM     24  C   UNL     1      -2.340  11.844  19.141  0.00  0.00    +0.000 A 
ATOM     25  C   UNL     1      -3.103  11.211  18.152  0.00  0.00    +0.000 A 
ATOM     26  C   UNL     1      -2.558  10.182  17.384  0.00  0.00    +0.000 A 
ATOM     27  C   UNL     1      -1.230   9.771  17.553  0.00  0.00    +0.000 A 
ATOM     28  C   UNL     1      -0.469  10.445  18.517  0.00  0.00    +0.000 A 
ENDBRANCH  19  20
ENDBRANCH   4  19
TORSDOF 9
ENDMDL
MODEL 3
REMARK VINA RESULT:      -6.4      2.827      6.632
REMARK  Name = 
REMARK  11 active torsions:
REMARK  status: ('A' for Active; 'I' for Inactive)
REMARK    1  A    between atoms: C_1  and  C_2
REMARK    2  A    between atoms: C_2  and  O_3
REMARK    3  A    between atoms: O_3  and  C_4
REMARK    4  A    between atoms: C_4  and  C_6
REMARK    5  A    between atoms: C_6  and  N_7
REMARK    6  A    between atoms: C_8  and  C_10
REMARK    7  A    between atoms: C_10  and  S_11
REMARK    8  A    between atoms: S_11  and  C_12
REMARK    9  A    between atoms: C_15  and  C_16
REMARK   10  A    between atoms: C_16  and  N_17
REMARK   11  A    between atoms: N_26  and  C_27
REMARK                            x       y       z     vdW  Elec       q    Type
REMARK                         _______ _______ _______ _____ _____    ______ ____
ROOT
ATOM      1  C   UNL     1       2.232   2.885  18.507  0.00  0.00    +0.000 A 
ATOM      2  N   UNL     1       1.659   3.329  17.417  0.00  0.00    +0.000 NA
ATOM      3  N   UNL     1       2.658   3.674  16.536  0.00  0.00    +0.000 NA
ATOM      4  C   UNL     1       3.824   3.425  17.110  0.00  0.00    +0.000 A 
ATOM      5  N   UNL     1       3.590   3.013  18.403  0.00  0.00    +0.000 N 
ATOM      6  C   UNL     1       4.548   2.753  19.443  0.00  0.00    +0.000 C 
ENDROOT
BRANCH   1   7
ATOM      7  S   UNL     1       1.448   2.059  19.808  0.00  0.00    +0.000 S 
BRANCH   7   8
ATOM      8  C   UNL     1       0.684   3.443  20.694  0.00  0.00    +0.000 C 
BRANCH   8  10
ATOM      9  N   UNL     1       1.542   5.564  19.840  0.00  0.00    +0.000 N 
ATOM     10  C   UNL     1       1.682   4.584  20.789  0.00  0.00    +0.000 C 
ATOM     11  O   UNL     1       2.573   4.610  21.640  0.00  0.00    +0.000 OA
ATOM     12  H   UNL     1       0.731   5.568  19.224  0.00  0.00    +0.000 HD
BRANCH   9  13
ATOM     13  C   UNL     1       2.410   6.733  19.821  0.00  0.00    +0.000 C 
BRANCH  13  14
ATOM     14  C   UNL     1       1.650   7.973  20.259  0.00  0.00    +0.000 C 
ATOM     15  O   UNL     1       1.359   8.904  19.518  0.00  0.00    +0.000 OA
BRANCH  14  16
ATOM     16  O   UNL     1       1.419   7.921  21.599  0.00  0.00    +0.000 OA
BRANCH  16  18
ATOM     17  C   UNL     1      -0.369   9.178  22.558  0.00  0.00    +0.000 C 
ATOM     18  C   UNL     1       1.112   9.177  22.219  0.00  0.00    +0.000 C 
ENDBRANCH  16  18
ENDBRANCH  14  16
ENDBRANCH  13  14
ENDBRANCH   9  13
ENDBRANCH   8  10
ENDBRANCH   7   8
ENDBRANCH   1   7
BRANCH   4  19
ATOM     19  C   UNL     1       5.150   3.488  16.432  0.00  0.00    +0.000 C 
BRANCH  19  20
ATOM     20  N   UNL     1       5.684   4.838  16.398  0.00  0.00    +0.000 N 
ATOM     21  C   UNL     1       5.393   5.773  15.440  0.00  0.00    +0.000 A 
ATOM     22  N   UNL     1       5.986   6.918  15.685  0.00  0.00    +0.000 NA
ATOM     23  C   UNL     1       6.720   6.709  16.824  0.00  0.00    +0.000 A 
ATOM     24  C   UNL     1       7.531   7.605  17.535  0.00  0.00    +0.000 A 
ATOM     25  C   UNL     1       8.201   7.151  18.678  0.00  0.00    +0.000 A 
ATOM     26  C   UNL     1       8.090   5.822  19.085  0.00  0.00    +0.000 A 
ATOM     27  C   UNL     1       7.286   4.910  18.388  0.00  0.00    +0.000 A 
ATOM     28  C   UNL     1       6.589   5.394  17.273  0.00  0.00    +0.000 A 
ENDBRANCH  19  20
ENDBRANCH   4  19
TORSDOF 9
ENDMDL
MODEL 4
REMARK VINA RESULT:      -6.4      2.496      3.744
REMARK  Name = 
REMARK  11 active torsions:
REMARK  status: ('A' for Active; 'I' for Inactive)
REMARK    1  A    between atoms: C_1  and  C_2
REMARK    2  A    between atoms: C_2  and  O_3
REMARK    3  A    between atoms: O_3  and  C_4
REMARK    4  A    between atoms: C_4  and  C_6
REMARK    5  A    between atoms: C_6  and  N_7
REMARK    6  A    between atoms: C_8  and  C_10
REMARK    7  A    between atoms: C_10  and  S_11
REMARK    8  A    between atoms: S_11  and  C_12
REMARK    9  A    between atoms: C_15  and  C_16
REMARK   10  A    between atoms: C_16  and  N_17
REMARK   11  A    between atoms: N_26  and  C_27
REMARK                            x       y       z     vdW  Elec       q    Type
REMARK                         _______ _______ _______ _____ _____    ______ ____
ROOT
ATOM      1  C   UNL     1       2.087   7.660  18.878  0.00  0.00    +0.000 A 
ATOM      2  N   UNL     1       2.288   7.936  17.614  0.00  0.00    +0.000 NA
ATOM      3  N   UNL     1       1.938   9.252  17.417  0.00  0.00    +0.000 NA
ATOM      4  C   UNL     1       1.535   9.753  18.573  0.00  0.00    +0.000 A 
ATOM      5  N   UNL     1       1.525   8.740  19.504  0.00  0.00    +0.000 N 
ATOM      6  C   UNL     1       1.043   8.777  20.859  0.00  0.00    +0.000 C 
ENDROOT
BRANCH   1   7
ATOM      7  S   UNL     1       2.629   6.248  19.714  0.00  0.00    +0.000 S 
BRANCH   7   8
ATOM      8  C   UNL     1       1.806   4.941  18.766  0.00  0.00    +0.000 C 
BRANCH   8  10
ATOM      9  N   UNL     1       3.927   5.132  17.573  0.00  0.00    +0.000 N 
ATOM     10  C   UNL     1       2.750   4.440  17.686  0.00  0.00    +0.000 C 
ATOM     11  O   UNL     1       2.462   3.497  16.946  0.00  0.00    +0.000 OA
ATOM     12  H   UNL     1       4.180   5.832  18.270  0.00  0.00    +0.000 HD
BRANCH   9  13
ATOM     13  C   UNL     1       4.942   4.751  16.600  0.00  0.00    +0.000 C 
BRANCH  13  14
ATOM     14  C   UNL     1       5.630   5.979  16.033  0.00  0.00    +0.000 C 
ATOM     15  O   UNL     1       5.126   6.739  15.213  0.00  0.00    +0.000 OA
BRANCH  14  16
ATOM     16  O   UNL     1       6.902   6.056  16.511  0.00  0.00    +0.000 OA
BRANCH  16  18
ATOM     17  C   UNL     1       7.705   5.570  18.705  0.00  0.00    +0.000 C 
ATOM     18  C   UNL     1       7.304   4.977  17.366  0.00  0.00    +0.000 C 
ENDBRANCH  16  18
ENDBRANCH  14  16
ENDBRANCH  13  14
ENDBRANCH   9  13
ENDBRANCH   8  10
ENDBRANCH   7   8
ENDBRANCH   1   7
BRANCH   4  19
ATOM     19  C   UNL     1       1.241  11.192  18.834  0.00  0.00    +0.000 C 
BRANCH  19  20
ATOM     20  N   UNL     1      -0.172  11.428  19.068  0.00  0.00    +0.000 N 
ATOM     21  C   UNL     1      -0.682  12.165  20.105  0.00  0.00    +0.000 A 
ATOM     22  N   UNL     1      -1.991  12.245  20.044  0.00  0.00    +0.000 NA
ATOM     23  C   UNL     1      -2.348  11.501  18.948  0.00  0.00    +0.000 A 
ATOM     24  C   UNL     1      -3.622  11.264  18.413  0.00  0.00    +0.000 A 
ATOM     25  C   UNL     1      -3.739  10.448  17.281  0.00  0.00    +0.000 A 
ATOM     26  C   UNL     1      -2.611   9.858  16.711  0.00  0.00    +0.000 A 
ATOM     27  C   UNL     1      -1.329  10.081  17.232  0.00  0.00    +0.000 A 
ATOM     28  C   UNL     1      -1.229  10.935  18.339  0.00  0.00    +0.000 A 
ENDBRANCH  19  20
ENDBRANCH   4  19
TORSDOF 9
ENDMDL
MODEL 5
REMARK VINA RESULT:      -6.4      2.398      3.623
REMARK  Name = 
REMARK  11 active torsions:
REMARK  status: ('A' for Active; 'I' for Inactive)
REMARK    1  A    between atoms: C_1  and  C_2
REMARK    2  A    between atoms: C_2  and  O_3
REMARK    3  A    between atoms: O_3  and  C_4
REMARK    4  A    between atoms: C_4  and  C_6
REMARK    5  A    between atoms: C_6  and  N_7
REMARK    6  A    between atoms: C_8  and  C_10
REMARK    7  A    between atoms: C_10  and  S_11
REMARK    8  A    between atoms: S_11  and  C_12
REMARK    9  A    between atoms: C_15  and  C_16
REMARK   10  A    between atoms: C_16  and  N_17
REMARK   11  A    between atoms: N_26  and  C_27
REMARK                            x       y       z     vdW  Elec       q    Type
REMARK                         _______ _______ _______ _____ _____    ______ ____
ROOT
ATOM      1  C   UNL     1       2.536   7.245  18.833  0.00  0.00    +0.000 A 
ATOM      2  N   UNL     1       2.764   7.657  17.612  0.00  0.00    +0.000 NA
ATOM      3  N   UNL     1       2.242   8.925  17.498  0.00  0.00    +0.000 NA
ATOM      4  C   UNL     1       1.710   9.261  18.662  0.00  0.00    +0.000 A 
ATOM      5  N   UNL     1       1.794   8.177  19.506  0.00  0.00    +0.000 N 
ATOM      6  C   UNL     1       1.240   8.028  20.825  0.00  0.00    +0.000 C 
ENDROOT
BRANCH   1   7
ATOM      7  S   UNL     1       3.229   5.852  19.586  0.00  0.00    +0.000 S 
BRANCH   7   8
ATOM      8  C   UNL     1       2.568   4.524  18.543  0.00  0.00    +0.000 C 
BRANCH   8  10
ATOM      9  N   UNL     1       4.345   4.826  16.896  0.00  0.00    +0.000 N 
ATOM     10  C   UNL     1       3.697   3.937  17.713  0.00  0.00    +0.000 C 
ATOM     11  O   UNL     1       3.986   2.739  17.750  0.00  0.00    +0.000 OA
ATOM     12  H   UNL     1       4.155   5.824  16.972  0.00  0.00    +0.000 HD
BRANCH   9  13
ATOM     13  C   UNL     1       5.465   4.414  16.062  0.00  0.00    +0.000 C 
BRANCH  13  14
ATOM     14  C   UNL     1       6.522   5.502  16.006  0.00  0.00    +0.000 C 
ATOM     15  O   UNL     1       7.494   5.486  15.260  0.00  0.00    +0.000 OA
BRANCH  14  16
ATOM     16  O   UNL     1       6.264   6.442  16.956  0.00  0.00    +0.000 OA
BRANCH  16  18
ATOM     17  C   UNL     1       7.626   5.868  18.830  0.00  0.00    +0.000 C 
ATOM     18  C   UNL     1       7.400   6.876  17.716  0.00  0.00    +0.000 C 
ENDBRANCH  16  18
ENDBRANCH  14  16
ENDBRANCH  13  14
ENDBRANCH   9  13
ENDBRANCH   8  10
ENDBRANCH   7   8
ENDBRANCH   1   7
BRANCH   4  19
ATOM     19  C   UNL     1       1.201  10.617  19.018  0.00  0.00    +0.000 C 
BRANCH  19  20
ATOM     20  N   UNL     1      -0.216  10.761  18.738  0.00  0.00    +0.000 N 
ATOM     21  C   UNL     1      -0.893  10.090  17.754  0.00  0.00    +0.000 A 
ATOM     22  N   UNL     1      -2.172  10.387  17.758  0.00  0.00    +0.000 NA
ATOM     23  C   UNL     1      -2.326  11.313  18.758  0.00  0.00    +0.000 A 
ATOM     24  C   UNL     1      -3.491  11.952  19.204  0.00  0.00    +0.000 A 
ATOM     25  C   UNL     1      -3.395  12.883  20.245  0.00  0.00    +0.000 A 
ATOM     26  C   UNL     1      -2.157  13.193  20.810  0.00  0.00    +0.000 A 
ATOM     27  C   UNL     1      -0.981  12.566  20.377  0.00  0.00    +0.000 A 
ATOM     28  C   UNL     1      -1.104  11.605  19.364  0.00  0.00    +0.000 A 
ENDBRANCH  19  20
ENDBRANCH   4  19
TORSDOF 9
ENDMDL
MODEL 6
REMARK VINA RESULT:      -6.4      5.332      7.975
REMARK  Name = 
REMARK  11 active torsions:
REMARK  status: ('A' for Active; 'I' for Inactive)
REMARK    1  A    between atoms: C_1  and  C_2
REMARK    2  A    between atoms: C_2  and  O_3
REMARK    3  A    between atoms: O_3  and  C_4
REMARK    4  A    between atoms: C_4  and  C_6
REMARK    5  A    between atoms: C_6  and  N_7
REMARK    6  A    between atoms: C_8  and  C_10
REMARK    7  A    between atoms: C_10  and  S_11
REMARK    8  A    between atoms: S_11  and  C_12
REMARK    9  A    between atoms: C_15  and  C_16
REMARK   10  A    between atoms: C_16  and  N_17
REMARK   11  A    between atoms: N_26  and  C_27
REMARK                            x       y       z     vdW  Elec       q    Type
REMARK                         _______ _______ _______ _____ _____    ______ ____
ROOT
ATOM      1  C   UNL     1       6.766   6.402  17.986  0.00  0.00    +0.000 A 
ATOM      2  N   UNL     1       7.133   5.691  19.021  0.00  0.00    +0.000 NA
ATOM      3  N   UNL     1       6.403   4.524  19.002  0.00  0.00    +0.000 NA
ATOM      4  C   UNL     1       5.608   4.549  17.946  0.00  0.00    +0.000 A 
ATOM      5  N   UNL     1       5.743   5.772  17.330  0.00  0.00    +0.000 N 
ATOM      6  C   UNL     1       4.993   6.303  16.224  0.00  0.00    +0.000 C 
ENDROOT
BRANCH   1   7
ATOM      7  S   UNL     1       7.565   7.810  17.380  0.00  0.00    +0.000 S 
BRANCH   7   8
ATOM      8  C   UNL     1       8.619   8.249  18.788  0.00  0.00    +0.000 C 
BRANCH   8  10
ATOM      9  N   UNL     1       9.570  10.233  19.847  0.00  0.00    +0.000 N 
ATOM     10  C   UNL     1       8.860   9.749  18.779  0.00  0.00    +0.000 C 
ATOM     11  O   UNL     1       8.422  10.481  17.890  0.00  0.00    +0.000 OA
ATOM     12  H   UNL     1      10.011   9.589  20.503  0.00  0.00    +0.000 HD
BRANCH   9  13
ATOM     13  C   UNL     1       9.902  11.646  19.962  0.00  0.00    +0.000 C 
BRANCH  13  14
ATOM     14  C   UNL     1       9.021  12.322  20.997  0.00  0.00    +0.000 C 
ATOM     15  O   UNL     1       8.758  11.851  22.098  0.00  0.00    +0.000 OA
BRANCH  14  16
ATOM     16  O   UNL     1       8.514  13.477  20.486  0.00  0.00    +0.000 OA
BRANCH  16  18
ATOM     17  C   UNL     1       8.510  15.428  21.860  0.00  0.00    +0.000 C 
ATOM     18  C   UNL     1       7.694  14.239  21.383  0.00  0.00    +0.000 C 
ENDBRANCH  16  18
ENDBRANCH  14  16
ENDBRANCH  13  14
ENDBRANCH   9  13
ENDBRANCH   8  10
ENDBRANCH   7   8
ENDBRANCH   1   7
BRANCH   4  19
ATOM     19  C   UNL     1       4.786   3.404  17.458  0.00  0.00    +0.000 C 
BRANCH  19  20
ATOM     20  N   UNL     1       3.408   3.489  17.905  0.00  0.00    +0.000 N 
ATOM     21  C   UNL     1       2.353   3.881  17.124  0.00  0.00    +0.000 A 
ATOM     22  N   UNL     1       1.217   3.824  17.780  0.00  0.00    +0.000 NA
ATOM     23  C   UNL     1       1.551   3.416  19.047  0.00  0.00    +0.000 A 
ATOM     24  C   UNL     1       0.720   3.173  20.149  0.00  0.00    +0.000 A 
ATOM     25  C   UNL     1       1.301   2.772  21.359  0.00  0.00    +0.000 A 
ATOM     26  C   UNL     1       2.685   2.644  21.474  0.00  0.00    +0.000 A 
ATOM     27  C   UNL     1       3.533   2.883  20.384  0.00  0.00    +0.000 A 
ATOM     28  C   UNL     1       2.929   3.241  19.171  0.00  0.00    +0.000 A 
ENDBRANCH  19  20
ENDBRANCH   4  19
TORSDOF 9
ENDMDL
MODEL 7
REMARK VINA RESULT:      -6.3      4.547      8.605
REMARK  Name = 
REMARK  11 active torsions:
REMARK  status: ('A' for Active; 'I' for Inactive)
REMARK    1  A    between atoms: C_1  and  C_2
REMARK    2  A    between atoms: C_2  and  O_3
REMARK    3  A    between atoms: O_3  and  C_4
REMARK    4  A    between atoms: C_4  and  C_6
REMARK    5  A    between atoms: C_6  and  N_7
REMARK    6  A    between atoms: C_8  and  C_10
REMARK    7  A    between atoms: C_10  and  S_11
REMARK    8  A    between atoms: S_11  and  C_12
REMARK    9  A    between atoms: C_15  and  C_16
REMARK   10  A    between atoms: C_16  and  N_17
REMARK   11  A    between atoms: N_26  and  C_27
REMARK                            x       y       z     vdW  Elec       q    Type
REMARK                         _______ _______ _______ _____ _____    ______ ____
ROOT
ATOM      1  C   UNL     1       1.668   8.474  19.645  0.00  0.00    +0.000 A 
ATOM      2  N   UNL     1       2.104   8.962  18.511  0.00  0.00    +0.000 NA
ATOM      3  N   UNL     1       2.635   7.918  17.789  0.00  0.00    +0.000 NA
ATOM      4  C   UNL     1       2.504   6.811  18.500  0.00  0.00    +0.000 A 
ATOM      5  N   UNL     1       1.980   7.145  19.728  0.00  0.00    +0.000 N 
ATOM      6  C   UNL     1       1.779   6.297  20.873  0.00  0.00    +0.000 C 
ENDROOT
BRANCH   1   7
ATOM      7  S   UNL     1       0.661   9.292  20.788  0.00  0.00    +0.000 S 
BRANCH   7   8
ATOM      8  C   UNL     1       0.789  11.004  20.207  0.00  0.00    +0.000 C 
BRANCH   8  10
ATOM      9  N   UNL     1      -0.631  11.543  18.295  0.00  0.00    +0.000 N 
ATOM     10  C   UNL     1      -0.558  11.445  19.660  0.00  0.00    +0.000 C 
ATOM     11  O   UNL     1      -1.508  11.723  20.395  0.00  0.00    +0.000 OA
ATOM     12  H   UNL     1       0.134  11.200  17.715  0.00  0.00    +0.000 HD
BRANCH   9  13
ATOM     13  C   UNL     1      -1.865  11.928  17.625  0.00  0.00    +0.000 C 
BRANCH  13  14
ATOM     14  C   UNL     1      -2.509  10.728  16.955  0.00  0.00    +0.000 C 
ATOM     15  O   UNL     1      -1.959   9.645  16.796  0.00  0.00    +0.000 OA
BRANCH  14  16
ATOM     16  O   UNL     1      -3.745  11.067  16.496  0.00  0.00    +0.000 OA
BRANCH  16  18
ATOM     17  C   UNL     1      -5.672  12.307  17.164  0.00  0.00    +0.000 C 
ATOM     18  C   UNL     1      -4.776  11.125  17.491  0.00  0.00    +0.000 C 
ENDBRANCH  16  18
ENDBRANCH  14  16
ENDBRANCH  13  14
ENDBRANCH   9  13
ENDBRANCH   8  10
ENDBRANCH   7   8
ENDBRANCH   1   7
BRANCH   4  19
ATOM     19  C   UNL     1       2.785   5.432  18.008  0.00  0.00    +0.000 C 
BRANCH  19  20
ATOM     20  N   UNL     1       4.198   5.104  18.074  0.00  0.00    +0.000 N 
ATOM     21  C   UNL     1       4.877   4.790  19.221  0.00  0.00    +0.000 A 
ATOM     22  N   UNL     1       6.134   4.499  18.975  0.00  0.00    +0.000 NA
ATOM     23  C   UNL     1       6.286   4.665  17.622  0.00  0.00    +0.000 A 
ATOM     24  C   UNL     1       7.423   4.469  16.826  0.00  0.00    +0.000 A 
ATOM     25  C   UNL     1       7.337   4.721  15.451  0.00  0.00    +0.000 A 
ATOM     26  C   UNL     1       6.150   5.187  14.887  0.00  0.00    +0.000 A 
ATOM     27  C   UNL     1       5.003   5.390  15.666  0.00  0.00    +0.000 A 
ATOM     28  C   UNL     1       5.096   5.092  17.031  0.00  0.00    +0.000 A 
ENDBRANCH  19  20
ENDBRANCH   4  19
TORSDOF 9
ENDMDL
MODEL 8
REMARK VINA RESULT:      -6.2      1.204      1.869
REMARK  Name = 
REMARK  11 active torsions:
REMARK  status: ('A' for Active; 'I' for Inactive)
REMARK    1  A    between atoms: C_1  and  C_2
REMARK    2  A    between atoms: C_2  and  O_3
REMARK    3  A    between atoms: O_3  and  C_4
REMARK    4  A    between atoms: C_4  and  C_6
REMARK    5  A    between atoms: C_6  and  N_7
REMARK    6  A    between atoms: C_8  and  C_10
REMARK    7  A    between atoms: C_10  and  S_11
REMARK    8  A    between atoms: S_11  and  C_12
REMARK    9  A    between atoms: C_15  and  C_16
REMARK   10  A    between atoms: C_16  and  N_17
REMARK   11  A    between atoms: N_26  and  C_27
REMARK                            x       y       z     vdW  Elec       q    Type
REMARK                         _______ _______ _______ _____ _____    ______ ____
ROOT
ATOM      1  C   UNL     1       2.094   3.982  18.747  0.00  0.00    +0.000 A 
ATOM      2  N   UNL     1       2.086   4.882  17.797  0.00  0.00    +0.000 NA
ATOM      3  N   UNL     1       2.066   6.119  18.398  0.00  0.00    +0.000 NA
ATOM      4  C   UNL     1       2.068   5.944  19.709  0.00  0.00    +0.000 A 
ATOM      5  N   UNL     1       1.988   4.594  19.966  0.00  0.00    +0.000 N 
ATOM      6  C   UNL     1       1.836   3.935  21.235  0.00  0.00    +0.000 C 
ENDROOT
BRANCH   1   7
ATOM      7  S   UNL     1       2.406   2.293  18.551  0.00  0.00    +0.000 S 
BRANCH   7   8
ATOM      8  C   UNL     1       4.117   2.182  19.140  0.00  0.00    +0.000 C 
BRANCH   8  10
ATOM      9  N   UNL     1       4.887   3.720  17.408  0.00  0.00    +0.000 N 
ATOM     10  C   UNL     1       4.860   3.449  18.751  0.00  0.00    +0.000 C 
ATOM     11  O   UNL     1       5.423   4.163  19.582  0.00  0.00    +0.000 OA
ATOM     12  H   UNL     1       4.320   3.172  16.762  0.00  0.00    +0.000 HD
BRANCH   9  13
ATOM     13  C   UNL     1       5.539   4.913  16.886  0.00  0.00    +0.000 C 
BRANCH  13  14
ATOM     14  C   UNL     1       6.537   4.549  15.802  0.00  0.00    +0.000 C 
ATOM     15  O   UNL     1       7.737   4.386  15.991  0.00  0.00    +0.000 OA
BRANCH  14  16
ATOM     16  O   UNL     1       5.911   4.512  14.594  0.00  0.00    +0.000 OA
BRANCH  16  18
ATOM     17  C   UNL     1       5.870   3.348  12.511  0.00  0.00    +0.000 C 
ATOM     18  C   UNL     1       6.735   4.128  13.485  0.00  0.00    +0.000 C 
ENDBRANCH  16  18
ENDBRANCH  14  16
ENDBRANCH  13  14
ENDBRANCH   9  13
ENDBRANCH   8  10
ENDBRANCH   7   8
ENDBRANCH   1   7
BRANCH   4  19
ATOM     19  C   UNL     1       2.232   7.025  20.723  0.00  0.00    +0.000 C 
BRANCH  19  20
ATOM     20  N   UNL     1       1.548   8.246  20.337  0.00  0.00    +0.000 N 
ATOM     21  C   UNL     1       1.588   8.805  19.087  0.00  0.00    +0.000 A 
ATOM     22  N   UNL     1       0.843   9.884  19.015  0.00  0.00    +0.000 NA
ATOM     23  C   UNL     1       0.330  10.054  20.276  0.00  0.00    +0.000 A 
ATOM     24  C   UNL     1      -0.544  11.041  20.753  0.00  0.00    +0.000 A 
ATOM     25  C   UNL     1      -0.922  11.015  22.101  0.00  0.00    +0.000 A 
ATOM     26  C   UNL     1      -0.415  10.043  22.962  0.00  0.00    +0.000 A 
ATOM     27  C   UNL     1       0.460   9.048  22.505  0.00  0.00    +0.000 A 
ATOM     28  C   UNL     1       0.792   9.065  21.144  0.00  0.00    +0.000 A 
ENDBRANCH  19  20
ENDBRANCH   4  19
TORSDOF 9
ENDMDL
MODEL 9
REMARK VINA RESULT:      -6.2      4.657      8.310
REMARK  Name = 
REMARK  11 active torsions:
REMARK  status: ('A' for Active; 'I' for Inactive)
REMARK    1  A    between atoms: C_1  and  C_2
REMARK    2  A    between atoms: C_2  and  O_3
REMARK    3  A    between atoms: O_3  and  C_4
REMARK    4  A    between atoms: C_4  and  C_6
REMARK    5  A    between atoms: C_6  and  N_7
REMARK    6  A    between atoms: C_8  and  C_10
REMARK    7  A    between atoms: C_10  and  S_11
REMARK    8  A    between atoms: S_11  and  C_12
REMARK    9  A    between atoms: C_15  and  C_16
REMARK   10  A    between atoms: C_16  and  N_17
REMARK   11  A    between atoms: N_26  and  C_27
REMARK                            x       y       z     vdW  Elec       q    Type
REMARK                         _______ _______ _______ _____ _____    ______ ____
ROOT
ATOM      1  C   UNL     1       1.630   8.040  20.078  0.00  0.00    +0.000 A 
ATOM      2  N   UNL     1       1.967   8.689  18.993  0.00  0.00    +0.000 NA
ATOM      3  N   UNL     1       2.497   7.775  18.112  0.00  0.00    +0.000 NA
ATOM      4  C   UNL     1       2.465   6.581  18.681  0.00  0.00    +0.000 A 
ATOM      5  N   UNL     1       2.009   6.729  19.971  0.00  0.00    +0.000 N 
ATOM      6  C   UNL     1       1.924   5.735  21.007  0.00  0.00    +0.000 C 
ENDROOT
BRANCH   1   7
ATOM      7  S   UNL     1       0.664   8.651  21.375  0.00  0.00    +0.000 S 
BRANCH   7   8
ATOM      8  C   UNL     1      -0.299   9.928  20.524  0.00  0.00    +0.000 C 
BRANCH   8  10
ATOM      9  N   UNL     1       1.023  11.712  19.508  0.00  0.00    +0.000 N 
ATOM     10  C   UNL     1       0.419  11.261  20.653  0.00  0.00    +0.000 C 
ATOM     11  O   UNL     1       0.479  11.876  21.719  0.00  0.00    +0.000 OA
ATOM     12  H   UNL     1       0.861  11.236  18.621  0.00  0.00    +0.000 HD
BRANCH   9  13
ATOM     13  C   UNL     1       1.727  12.986  19.472  0.00  0.00    +0.000 C 
BRANCH  13  14
ATOM     14  C   UNL     1       0.872  14.053  18.813  0.00  0.00    +0.000 C 
ATOM     15  O   UNL     1      -0.266  13.870  18.395  0.00  0.00    +0.000 OA
BRANCH  14  16
ATOM     16  O   UNL     1       1.587  15.204  18.689  0.00  0.00    +0.000 OA
BRANCH  16  18
ATOM     17  C   UNL     1       3.571  15.594  17.420  0.00  0.00    +0.000 C 
ATOM     18  C   UNL     1       3.013  15.049  18.723  0.00  0.00    +0.000 C 
ENDBRANCH  16  18
ENDBRANCH  14  16
ENDBRANCH  13  14
ENDBRANCH   9  13
ENDBRANCH   8  10
ENDBRANCH   7   8
ENDBRANCH   1   7
BRANCH   4  19
ATOM     19  C   UNL     1       2.778   5.292  17.999  0.00  0.00    +0.000 C 
BRANCH  19  20
ATOM     20  N   UNL     1       4.195   4.979  18.043  0.00  0.00    +0.000 N 
ATOM     21  C   UNL     1       4.883   4.616  19.171  0.00  0.00    +0.000 A 
ATOM     22  N   UNL     1       6.142   4.352  18.906  0.00  0.00    +0.000 NA
ATOM     23  C   UNL     1       6.286   4.588  17.562  0.00  0.00    +0.000 A 
ATOM     24  C   UNL     1       7.422   4.446  16.753  0.00  0.00    +0.000 A 
ATOM     25  C   UNL     1       7.327   4.765  15.393  0.00  0.00    +0.000 A 
ATOM     26  C   UNL     1       6.132   5.245  14.858  0.00  0.00    +0.000 A 
ATOM     27  C   UNL     1       4.986   5.395  15.650  0.00  0.00    +0.000 A 
ATOM     28  C   UNL     1       5.089   5.029  16.999  0.00  0.00    +0.000 A 
ENDBRANCH  19  20
ENDBRANCH   4  19
TORSDOF 9
ENDMDL
