MODEL 1
REMARK VINA RESULT:      -8.8      0.000      0.000
REMARK  Name = 
REMARK  13 active torsions:
REMARK  status: ('A' for Active; 'I' for Inactive)
REMARK    1  A    between atoms: C_1  and  C_2
REMARK    2  A    between atoms: C_2  and  C_3
REMARK    3  A    between atoms: C_6  and  C_7
REMARK    4  A    between atoms: C_6  and  C_8
REMARK    5  A    between atoms: C_11  and  C_12
REMARK    6  A    between atoms: C_12  and  C_13
REMARK    7  A    between atoms: C_13  and  C_14
REMARK    8  A    between atoms: N_16  and  C_17
REMARK    9  A    between atoms: C_17  and  C_18
REMARK   10  A    between atoms: C_22  and  N_23
REMARK   11  A    between atoms: N_23  and  S_24
REMARK   12  A    between atoms: S_24  and  C_25
REMARK   13  A    between atoms: C_28  and  C_29
REMARK                            x       y       z     vdW  Elec       q    Type
REMARK                         _______ _______ _______ _____ _____    ______ ____
ROOT
ATOM      1  C   UNL     1       1.399   8.838  20.202  0.00  0.00    +0.000 C 
ATOM      2  O   UNL     1       1.119   8.786  21.397  0.00  0.00    +0.000 OA
ATOM      3  N   UNL     1       1.873   7.743  19.496  0.00  0.00    +0.000 N 
ATOM      4  H   UNL     1       2.100   7.860  18.517  0.00  0.00    +0.000 HD
ENDROOT
BRANCH   1   5
ATOM      5  C   UNL     1       1.268  10.089  19.363  0.00  0.00    +0.000 C 
BRANCH   5   6
ATOM      6  C   UNL     1       0.445   9.843  18.096  0.00  0.00    +0.000 C 
BRANCH   6  17
ATOM      7  C   UNL     1      -5.992  10.737  18.966  0.00  0.00    +0.000 C 
ATOM      8  C   UNL     1      -5.067  11.875  18.483  0.00  0.00    +0.000 C 
ATOM      9  C   UNL     1      -5.538  12.327  17.078  0.00  0.00    +0.000 C 
ATOM     10  C   UNL     1      -5.215  13.114  19.395  0.00  0.00    +0.000 C 
ATOM     11  C   UNL     1      -4.465  12.988  20.708  0.00  0.00    +0.000 C 
ATOM     12  C   UNL     1      -2.951  12.714  20.533  0.00  0.00    +0.000 C 
ATOM     13  C   UNL     1      -2.201  14.045  20.305  0.00  0.00    +0.000 C 
ATOM     14  C   UNL     1      -2.476  12.108  21.877  0.00  0.00    +0.000 C 
ATOM     15  C   UNL     1      -2.646  11.761  19.372  0.00  0.00    +0.000 A 
ATOM     16  C   UNL     1      -1.324  11.270  19.215  0.00  0.00    +0.000 A 
ATOM     17  C   UNL     1      -0.975  10.346  18.221  0.00  0.00    +0.000 A 
ATOM     18  C   UNL     1      -1.968   9.902  17.355  0.00  0.00    +0.000 A 
ATOM     19  C   UNL     1      -3.267  10.399  17.467  0.00  0.00    +0.000 A 
ATOM     20  C   UNL     1      -3.626  11.353  18.445  0.00  0.00    +0.000 A 
ENDBRANCH   6  17
ENDBRANCH   5   6
ENDBRANCH   1   5
BRANCH   3  21
ATOM     21  C   UNL     1       2.076   6.446  20.110  0.00  0.00    +0.000 C 
BRANCH  21  22
ATOM     22  C   UNL     1       3.012   5.590  19.290  0.00  0.00    +0.000 A 
ATOM     23  C   UNL     1       2.550   4.771  18.253  0.00  0.00    +0.000 A 
ATOM     24  C   UNL     1       3.460   4.118  17.415  0.00  0.00    +0.000 A 
ATOM     25  F   UNL     1       2.985   3.409  16.381  0.00  0.00    +0.000 F 
ATOM     26  C   UNL     1       4.841   4.271  17.580  0.00  0.00    +0.000 A 
ATOM     27  C   UNL     1       5.307   5.015  18.668  0.00  0.00    +0.000 A 
ATOM     28  C   UNL     1       4.396   5.668  19.513  0.00  0.00    +0.000 A 
BRANCH  26  29
ATOM     29  N   UNL     1       5.754   3.800  16.565  0.00  0.00    +0.000 N 
ATOM     30  H   UNL     1       6.584   3.343  16.952  0.00  0.00    +0.000 HD
BRANCH  29  31
ATOM     31  S   UNL     1       6.284   4.882  15.380  0.00  0.00    +0.000 S 
ATOM     32  C   UNL     1       5.909   3.979  13.892  0.00  0.00    +0.000 C 
ATOM     33  O   UNL     1       5.477   6.081  15.416  0.00  0.00    +0.000 OA
ATOM     34  O   UNL     1       7.723   4.924  15.517  0.00  0.00    +0.000 OA
ENDBRANCH  29  31
ENDBRANCH  26  29
BRANCH  27  35
ATOM     35  C   UNL     1       6.708   5.186  18.912  0.00  0.00    +0.000 C 
ATOM     36  N   UNL     1       7.841   5.341  19.103  0.00  0.00    +0.000 NA
ENDBRANCH  27  35
ENDBRANCH  21  22
ENDBRANCH   3  21
TORSDOF 8
ENDMDL
MODEL 2
REMARK VINA RESULT:      -8.6      1.599      2.014
REMARK  Name = 
REMARK  13 active torsions:
REMARK  status: ('A' for Active; 'I' for Inactive)
REMARK    1  A    between atoms: C_1  and  C_2
REMARK    2  A    between atoms: C_2  and  C_3
REMARK    3  A    between atoms: C_6  and  C_7
REMARK    4  A    between atoms: C_6  and  C_8
REMARK    5  A    between atoms: C_11  and  C_12
REMARK    6  A    between atoms: C_12  and  C_13
REMARK    7  A    between atoms: C_13  and  C_14
REMARK    8  A    between atoms: N_16  and  C_17
REMARK    9  A    between atoms: C_17  and  C_18
REMARK   10  A    between atoms: C_22  and  N_23
REMARK   11  A    between atoms: N_23  and  S_24
REMARK   12  A    between atoms: S_24  and  C_25
REMARK   13  A    between atoms: C_28  and  C_29
REMARK                            x       y       z     vdW  Elec       q    Type
REMARK                         _______ _______ _______ _____ _____    ______ ____
ROOT
ATOM      1  C   UNL     1       0.506   9.242  20.763  0.00  0.00    +0.000 C 
ATOM      2  O   UNL     1      -0.339   8.814  21.546  0.00  0.00    +0.000 OA
ATOM      3  N   UNL     1       1.538   8.458  20.273  0.00  0.00    +0.000 N 
ATOM      4  H   UNL     1       2.210   8.880  19.644  0.00  0.00    +0.000 HD
ENDROOT
BRANCH   1   5
ATOM      5  C   UNL     1       0.527  10.663  20.247  0.00  0.00    +0.000 C 
BRANCH   5   6
ATOM      6  C   UNL     1      -0.017  10.760  18.819  0.00  0.00    +0.000 C 
BRANCH   6  17
ATOM      7  C   UNL     1      -6.571  10.923  18.912  0.00  0.00    +0.000 C 
ATOM      8  C   UNL     1      -5.727  12.174  18.582  0.00  0.00    +0.000 C 
ATOM      9  C   UNL     1      -6.074  12.633  17.144  0.00  0.00    +0.000 C 
ATOM     10  C   UNL     1      -6.120  13.349  19.506  0.00  0.00    +0.000 C 
ATOM     11  C   UNL     1      -5.524  13.246  20.897  0.00  0.00    +0.000 C 
ATOM     12  C   UNL     1      -3.979  13.144  20.903  0.00  0.00    +0.000 C 
ATOM     13  C   UNL     1      -3.359  14.556  20.810  0.00  0.00    +0.000 C 
ATOM     14  C   UNL     1      -3.604  12.534  22.277  0.00  0.00    +0.000 C 
ATOM     15  C   UNL     1      -3.432  12.280  19.760  0.00  0.00    +0.000 A 
ATOM     16  C   UNL     1      -2.055  11.941  19.754  0.00  0.00    +0.000 A 
ATOM     17  C   UNL     1      -1.489  11.104  18.783  0.00  0.00    +0.000 A 
ATOM     18  C   UNL     1      -2.315  10.594  17.788  0.00  0.00    +0.000 A 
ATOM     19  C   UNL     1      -3.666  10.944  17.753  0.00  0.00    +0.000 A 
ATOM     20  C   UNL     1      -4.243  11.811  18.707  0.00  0.00    +0.000 A 
ENDBRANCH   6  17
ENDBRANCH   5   6
ENDBRANCH   1   5
BRANCH   3  21
ATOM     21  C   UNL     1       1.706   7.066  20.642  0.00  0.00    +0.000 C 
BRANCH  21  22
ATOM     22  C   UNL     1       2.565   6.331  19.641  0.00  0.00    +0.000 A 
ATOM     23  C   UNL     1       2.958   6.917  18.432  0.00  0.00    +0.000 A 
ATOM     24  C   UNL     1       3.882   6.268  17.606  0.00  0.00    +0.000 A 
ATOM     25  F   UNL     1       4.300   6.894  16.496  0.00  0.00    +0.000 F 
ATOM     26  C   UNL     1       4.441   5.036  17.964  0.00  0.00    +0.000 A 
ATOM     27  C   UNL     1       3.984   4.406  19.126  0.00  0.00    +0.000 A 
ATOM     28  C   UNL     1       3.054   5.054  19.955  0.00  0.00    +0.000 A 
BRANCH  26  29
ATOM     29  N   UNL     1       5.568   4.506  17.234  0.00  0.00    +0.000 N 
ATOM     30  H   UNL     1       5.673   3.492  17.337  0.00  0.00    +0.000 HD
BRANCH  29  31
ATOM     31  S   UNL     1       7.092   5.195  17.475  0.00  0.00    +0.000 S 
ATOM     32  C   UNL     1       6.994   5.664  19.189  0.00  0.00    +0.000 C 
ATOM     33  O   UNL     1       8.115   4.185  17.323  0.00  0.00    +0.000 OA
ATOM     34  O   UNL     1       7.092   6.408  16.686  0.00  0.00    +0.000 OA
ENDBRANCH  29  31
ENDBRANCH  26  29
BRANCH  27  35
ATOM     35  C   UNL     1       4.492   3.131  19.535  0.00  0.00    +0.000 C 
ATOM     36  N   UNL     1       4.919   2.106  19.867  0.00  0.00    +0.000 NA
ENDBRANCH  27  35
ENDBRANCH  21  22
ENDBRANCH   3  21
TORSDOF 8
ENDMDL
MODEL 3
REMARK VINA RESULT:      -8.6      6.437      9.871
REMARK  Name = 
REMARK  13 active torsions:
REMARK  status: ('A' for Active; 'I' for Inactive)
REMARK    1  A    between atoms: C_1  and  C_2
REMARK    2  A    between atoms: C_2  and  C_3
REMARK    3  A    between atoms: C_6  and  C_7
REMARK    4  A    between atoms: C_6  and  C_8
REMARK    5  A    between atoms: C_11  and  C_12
REMARK    6  A    between atoms: C_12  and  C_13
REMARK    7  A    between atoms: C_13  and  C_14
REMARK    8  A    between atoms: N_16  and  C_17
REMARK    9  A    between atoms: C_17  and  C_18
REMARK   10  A    between atoms: C_22  and  N_23
REMARK   11  A    between atoms: N_23  and  S_24
REMARK   12  A    between atoms: S_24  and  C_25
REMARK   13  A    between atoms: C_28  and  C_29
REMARK                            x       y       z     vdW  Elec       q    Type
REMARK                         _______ _______ _______ _____ _____    ______ ____
ROOT
ATOM      1  C   UNL     1       7.984   7.731  17.856  0.00  0.00    +0.000 C 
ATOM      2  O   UNL     1       8.293   7.048  18.828  0.00  0.00    +0.000 OA
ATOM      3  N   UNL     1       7.386   7.196  16.725  0.00  0.00    +0.000 N 
ATOM      4  H   UNL     1       7.172   7.814  15.952  0.00  0.00    +0.000 HD
ENDROOT
BRANCH   1   5
ATOM      5  C   UNL     1       8.217   9.223  17.769  0.00  0.00    +0.000 C 
BRANCH   5   6
ATOM      6  C   UNL     1       9.009   9.748  18.968  0.00  0.00    +0.000 C 
BRANCH   6  17
ATOM      7  C   UNL     1      11.417  15.434  16.761  0.00  0.00    +0.000 C 
ATOM      8  C   UNL     1      11.048  15.224  18.246  0.00  0.00    +0.000 C 
ATOM      9  C   UNL     1      12.327  15.402  19.099  0.00  0.00    +0.000 C 
ATOM     10  C   UNL     1      10.069  16.324  18.719  0.00  0.00    +0.000 C 
ATOM     11  C   UNL     1       8.638  16.088  18.273  0.00  0.00    +0.000 C 
ATOM     12  C   UNL     1       8.063  14.725  18.729  0.00  0.00    +0.000 C 
ATOM     13  C   UNL     1       7.529  14.836  20.173  0.00  0.00    +0.000 C 
ATOM     14  C   UNL     1       6.869  14.437  17.785  0.00  0.00    +0.000 C 
ATOM     15  C   UNL     1       9.092  13.590  18.661  0.00  0.00    +0.000 A 
ATOM     16  C   UNL     1       8.656  12.255  18.863  0.00  0.00    +0.000 A 
ATOM     17  C   UNL     1       9.518  11.156  18.754  0.00  0.00    +0.000 A 
ATOM     18  C   UNL     1      10.852  11.391  18.441  0.00  0.00    +0.000 A 
ATOM     19  C   UNL     1      11.312  12.698  18.275  0.00  0.00    +0.000 A 
ATOM     20  C   UNL     1      10.461  13.817  18.412  0.00  0.00    +0.000 A 
ENDBRANCH   6  17
ENDBRANCH   5   6
ENDBRANCH   1   5
BRANCH   3  21
ATOM     21  C   UNL     1       7.076   5.786  16.598  0.00  0.00    +0.000 C 
BRANCH  21  22
ATOM     22  C   UNL     1       5.874   5.410  17.432  0.00  0.00    +0.000 A 
ATOM     23  C   UNL     1       5.780   4.173  18.081  0.00  0.00    +0.000 A 
ATOM     24  C   UNL     1       4.730   3.925  18.971  0.00  0.00    +0.000 A 
ATOM     25  F   UNL     1       4.716   2.761  19.638  0.00  0.00    +0.000 F 
ATOM     26  C   UNL     1       3.760   4.897  19.243  0.00  0.00    +0.000 A 
ATOM     27  C   UNL     1       3.800   6.100  18.531  0.00  0.00    +0.000 A 
ATOM     28  C   UNL     1       4.851   6.349  17.634  0.00  0.00    +0.000 A 
BRANCH  26  29
ATOM     29  N   UNL     1       2.838   4.720  20.340  0.00  0.00    +0.000 N 
ATOM     30  H   UNL     1       3.299   4.448  21.213  0.00  0.00    +0.000 HD
BRANCH  29  31
ATOM     31  S   UNL     1       1.511   3.695  20.133  0.00  0.00    +0.000 S 
ATOM     32  C   UNL     1       1.447   3.565  18.358  0.00  0.00    +0.000 C 
ATOM     33  O   UNL     1       1.806   2.394  20.687  0.00  0.00    +0.000 OA
ATOM     34  O   UNL     1       0.363   4.466  20.558  0.00  0.00    +0.000 OA
ENDBRANCH  29  31
ENDBRANCH  26  29
BRANCH  27  35
ATOM     35  C   UNL     1       2.821   7.124  18.739  0.00  0.00    +0.000 C 
ATOM     36  N   UNL     1       2.019   7.947  18.894  0.00  0.00    +0.000 NA
ENDBRANCH  27  35
ENDBRANCH  21  22
ENDBRANCH   3  21
TORSDOF 8
ENDMDL
MODEL 4
REMARK VINA RESULT:      -8.6      2.615      3.603
REMARK  Name = 
REMARK  13 active torsions:
REMARK  status: ('A' for Active; 'I' for Inactive)
REMARK    1  A    between atoms: C_1  and  C_2
REMARK    2  A    between atoms: C_2  and  C_3
REMARK    3  A    between atoms: C_6  and  C_7
REMARK    4  A    between atoms: C_6  and  C_8
REMARK    5  A    between atoms: C_11  and  C_12
REMARK    6  A    between atoms: C_12  and  C_13
REMARK    7  A    between atoms: C_13  and  C_14
REMARK    8  A    between atoms: N_16  and  C_17
REMARK    9  A    between atoms: C_17  and  C_18
REMARK   10  A    between atoms: C_22  and  N_23
REMARK   11  A    between atoms: N_23  and  S_24
REMARK   12  A    between atoms: S_24  and  C_25
REMARK   13  A    between atoms: C_28  and  C_29
REMARK                            x       y       z     vdW  Elec       q    Type
REMARK                         _______ _______ _______ _____ _____    ______ ____
ROOT
ATOM      1  C   UNL     1      -0.018  10.318  18.651  0.00  0.00    +0.000 C 
ATOM      2  O   UNL     1       0.435  10.887  19.641  0.00  0.00    +0.000 OA
ATOM      3  N   UNL     1       0.781   9.637  17.747  0.00  0.00    +0.000 N 
ATOM      4  H   UNL     1       0.344   9.204  16.944  0.00  0.00    +0.000 HD
ENDROOT
BRANCH   1   5
ATOM      5  C   UNL     1      -1.488  10.294  18.297  0.00  0.00    +0.000 C 
BRANCH   5   6
ATOM      6  C   UNL     1      -2.039  11.700  18.048  0.00  0.00    +0.000 C 
BRANCH   6  17
ATOM      7  C   UNL     1      -7.585  11.604  21.545  0.00  0.00    +0.000 C 
ATOM      8  C   UNL     1      -6.889  12.926  21.154  0.00  0.00    +0.000 C 
ATOM      9  C   UNL     1      -7.859  13.748  20.270  0.00  0.00    +0.000 C 
ATOM     10  C   UNL     1      -6.627  13.789  22.409  0.00  0.00    +0.000 C 
ATOM     11  C   UNL     1      -5.426  13.331  23.215  0.00  0.00    +0.000 C 
ATOM     12  C   UNL     1      -4.112  13.285  22.397  0.00  0.00    +0.000 C 
ATOM     13  C   UNL     1      -3.470  14.689  22.356  0.00  0.00    +0.000 C 
ATOM     14  C   UNL     1      -3.166  12.337  23.175  0.00  0.00    +0.000 C 
ATOM     15  C   UNL     1      -4.317  12.786  20.962  0.00  0.00    +0.000 A 
ATOM     16  C   UNL     1      -3.180  12.509  20.161  0.00  0.00    +0.000 A 
ATOM     17  C   UNL     1      -3.279  11.989  18.864  0.00  0.00    +0.000 A 
ATOM     18  C   UNL     1      -4.546  11.742  18.347  0.00  0.00    +0.000 A 
ATOM     19  C   UNL     1      -5.680  12.041  19.102  0.00  0.00    +0.000 A 
ATOM     20  C   UNL     1      -5.596  12.594  20.399  0.00  0.00    +0.000 A 
ENDBRANCH   6  17
ENDBRANCH   5   6
ENDBRANCH   1   5
BRANCH   3  21
ATOM     21  C   UNL     1       2.220   9.538  17.896  0.00  0.00    +0.000 C 
BRANCH  21  22
ATOM     22  C   UNL     1       2.636   8.147  18.310  0.00  0.00    +0.000 A 
ATOM     23  C   UNL     1       2.117   7.528  19.453  0.00  0.00    +0.000 A 
ATOM     24  C   UNL     1       2.403   6.184  19.715  0.00  0.00    +0.000 A 
ATOM     25  F   UNL     1       1.823   5.599  20.774  0.00  0.00    +0.000 F 
ATOM     26  C   UNL     1       3.196   5.425  18.847  0.00  0.00    +0.000 A 
ATOM     27  C   UNL     1       3.789   6.062  17.752  0.00  0.00    +0.000 A 
ATOM     28  C   UNL     1       3.507   7.412  17.490  0.00  0.00    +0.000 A 
BRANCH  26  29
ATOM     29  N   UNL     1       3.274   3.990  18.995  0.00  0.00    +0.000 N 
ATOM     30  H   UNL     1       4.174   3.604  18.697  0.00  0.00    +0.000 HD
BRANCH  29  31
ATOM     31  S   UNL     1       2.064   3.034  18.304  0.00  0.00    +0.000 S 
ATOM     32  C   UNL     1       1.193   2.476  19.753  0.00  0.00    +0.000 C 
ATOM     33  O   UNL     1       1.178   3.859  17.515  0.00  0.00    +0.000 OA
ATOM     34  O   UNL     1       2.753   1.894  17.740  0.00  0.00    +0.000 OA
ENDBRANCH  29  31
ENDBRANCH  26  29
BRANCH  27  35
ATOM     35  C   UNL     1       4.636   5.352  16.842  0.00  0.00    +0.000 C 
ATOM     36  N   UNL     1       5.325   4.764  16.117  0.00  0.00    +0.000 NA
ENDBRANCH  27  35
ENDBRANCH  21  22
ENDBRANCH   3  21
TORSDOF 8
ENDMDL
MODEL 5
REMARK VINA RESULT:      -8.6      2.660      4.277
REMARK  Name = 
REMARK  13 active torsions:
REMARK  status: ('A' for Active; 'I' for Inactive)
REMARK    1  A    between atoms: C_1  and  C_2
REMARK    2  A    between atoms: C_2  and  C_3
REMARK    3  A    between atoms: C_6  and  C_7
REMARK    4  A    between atoms: C_6  and  C_8
REMARK    5  A    between atoms: C_11  and  C_12
REMARK    6  A    between atoms: C_12  and  C_13
REMARK    7  A    between atoms: C_13  and  C_14
REMARK    8  A    between atoms: N_16  and  C_17
REMARK    9  A    between atoms: C_17  and  C_18
REMARK   10  A    between atoms: C_22  and  N_23
REMARK   11  A    between atoms: N_23  and  S_24
REMARK   12  A    between atoms: S_24  and  C_25
REMARK   13  A    between atoms: C_28  and  C_29
REMARK                            x       y       z     vdW  Elec       q    Type
REMARK                         _______ _______ _______ _____ _____    ______ ____
ROOT
ATOM      1  C   UNL     1      -0.498  10.136  18.572  0.00  0.00    +0.000 C 
ATOM      2  O   UNL     1      -0.308  10.357  19.765  0.00  0.00    +0.000 OA
ATOM      3  N   UNL     1       0.537   9.912  17.678  0.00  0.00    +0.000 N 
ATOM      4  H   UNL     1       0.309   9.752  16.704  0.00  0.00    +0.000 HD
ENDROOT
BRANCH   1   5
ATOM      5  C   UNL     1      -1.869  10.087  17.936  0.00  0.00    +0.000 C 
BRANCH   5   6
ATOM      6  C   UNL     1      -2.440  11.487  17.699  0.00  0.00    +0.000 C 
BRANCH   6  17
ATOM      7  C   UNL     1      -5.561  14.897  22.350  0.00  0.00    +0.000 C 
ATOM      8  C   UNL     1      -5.524  13.353  22.355  0.00  0.00    +0.000 C 
ATOM      9  C   UNL     1      -4.816  12.884  23.649  0.00  0.00    +0.000 C 
ATOM     10  C   UNL     1      -6.958  12.779  22.427  0.00  0.00    +0.000 C 
ATOM     11  C   UNL     1      -7.687  12.812  21.097  0.00  0.00    +0.000 C 
ATOM     12  C   UNL     1      -6.941  12.066  19.963  0.00  0.00    +0.000 C 
ATOM     13  C   UNL     1      -7.261  10.556  20.030  0.00  0.00    +0.000 C 
ATOM     14  C   UNL     1      -7.517  12.630  18.640  0.00  0.00    +0.000 C 
ATOM     15  C   UNL     1      -5.421  12.259  20.018  0.00  0.00    +0.000 A 
ATOM     16  C   UNL     1      -4.630  11.796  18.936  0.00  0.00    +0.000 A 
ATOM     17  C   UNL     1      -3.244  11.991  18.877  0.00  0.00    +0.000 A 
ATOM     18  C   UNL     1      -2.626  12.660  19.927  0.00  0.00    +0.000 A 
ATOM     19  C   UNL     1      -3.379  13.093  21.020  0.00  0.00    +0.000 A 
ATOM     20  C   UNL     1      -4.772  12.877  21.107  0.00  0.00    +0.000 A 
ENDBRANCH   6  17
ENDBRANCH   5   6
ENDBRANCH   1   5
BRANCH   3  21
ATOM     21  C   UNL     1       1.930   9.917  18.078  0.00  0.00    +0.000 C 
BRANCH  21  22
ATOM     22  C   UNL     1       2.400   8.532  18.453  0.00  0.00    +0.000 A 
ATOM     23  C   UNL     1       1.943   7.882  19.606  0.00  0.00    +0.000 A 
ATOM     24  C   UNL     1       2.275   6.543  19.835  0.00  0.00    +0.000 A 
ATOM     25  F   UNL     1       1.753   5.927  20.906  0.00  0.00    +0.000 F 
ATOM     26  C   UNL     1       3.056   5.819  18.926  0.00  0.00    +0.000 A 
ATOM     27  C   UNL     1       3.588   6.489  17.820  0.00  0.00    +0.000 A 
ATOM     28  C   UNL     1       3.259   7.835  17.590  0.00  0.00    +0.000 A 
BRANCH  26  29
ATOM     29  N   UNL     1       3.178   4.386  19.048  0.00  0.00    +0.000 N 
ATOM     30  H   UNL     1       4.018   4.015  18.595  0.00  0.00    +0.000 HD
BRANCH  29  31
ATOM     31  S   UNL     1       1.880   3.414  18.574  0.00  0.00    +0.000 S 
ATOM     32  C   UNL     1       2.731   2.014  17.876  0.00  0.00    +0.000 C 
ATOM     33  O   UNL     1       1.142   2.980  19.738  0.00  0.00    +0.000 OA
ATOM     34  O   UNL     1       1.246   4.127  17.487  0.00  0.00    +0.000 OA
ENDBRANCH  29  31
ENDBRANCH  26  29
BRANCH  27  35
ATOM     35  C   UNL     1       4.419   5.816  16.867  0.00  0.00    +0.000 C 
ATOM     36  N   UNL     1       5.094   5.287  16.087  0.00  0.00    +0.000 NA
ENDBRANCH  27  35
ENDBRANCH  21  22
ENDBRANCH   3  21
TORSDOF 8
ENDMDL
MODEL 6
REMARK VINA RESULT:      -8.2      6.711      9.887
REMARK  Name = 
REMARK  13 active torsions:
REMARK  status: ('A' for Active; 'I' for Inactive)
REMARK    1  A    between atoms: C_1  and  C_2
REMARK    2  A    between atoms: C_2  and  C_3
REMARK    3  A    between atoms: C_6  and  C_7
REMARK    4  A    between atoms: C_6  and  C_8
REMARK    5  A    between atoms: C_11  and  C_12
REMARK    6  A    between atoms: C_12  and  C_13
REMARK    7  A    between atoms: C_13  and  C_14
REMARK    8  A    between atoms: N_16  and  C_17
REMARK    9  A    between atoms: C_17  and  C_18
REMARK   10  A    between atoms: C_22  and  N_23
REMARK   11  A    between atoms: N_23  and  S_24
REMARK   12  A    between atoms: S_24  and  C_25
REMARK   13  A    between atoms: C_28  and  C_29
REMARK                            x       y       z     vdW  Elec       q    Type
REMARK                         _______ _______ _______ _____ _____    ______ ____
ROOT
ATOM      1  C   UNL     1       7.828   7.790  17.996  0.00  0.00    +0.000 C 
ATOM      2  O   UNL     1       8.198   6.985  18.847  0.00  0.00    +0.000 OA
ATOM      3  N   UNL     1       7.171   7.404  16.838  0.00  0.00    +0.000 N 
ATOM      4  H   UNL     1       6.908   8.118  16.170  0.00  0.00    +0.000 HD
ENDROOT
BRANCH   1   5
ATOM      5  C   UNL     1       8.045   9.282  18.101  0.00  0.00    +0.000 C 
BRANCH   5   6
ATOM      6  C   UNL     1       9.420   9.621  18.680  0.00  0.00    +0.000 C 
BRANCH   6  17
ATOM      7  C   UNL     1      10.037  15.956  17.103  0.00  0.00    +0.000 C 
ATOM      8  C   UNL     1      10.818  15.326  18.278  0.00  0.00    +0.000 C 
ATOM      9  C   UNL     1      12.333  15.454  17.983  0.00  0.00    +0.000 C 
ATOM     10  C   UNL     1      10.572  16.124  19.578  0.00  0.00    +0.000 C 
ATOM     11  C   UNL     1       9.237  15.817  20.230  0.00  0.00    +0.000 C 
ATOM     12  C   UNL     1       9.038  14.317  20.558  0.00  0.00    +0.000 C 
ATOM     13  C   UNL     1       9.704  13.982  21.910  0.00  0.00    +0.000 C 
ATOM     14  C   UNL     1       7.509  14.118  20.703  0.00  0.00    +0.000 C 
ATOM     15  C   UNL     1       9.605  13.388  19.477  0.00  0.00    +0.000 A 
ATOM     16  C   UNL     1       9.325  11.999  19.549  0.00  0.00    +0.000 A 
ATOM     17  C   UNL     1       9.749  11.093  18.568  0.00  0.00    +0.000 A 
ATOM     18  C   UNL     1      10.477  11.580  17.489  0.00  0.00    +0.000 A 
ATOM     19  C   UNL     1      10.796  12.937  17.416  0.00  0.00    +0.000 A 
ATOM     20  C   UNL     1      10.401  13.857  18.412  0.00  0.00    +0.000 A 
ENDBRANCH   6  17
ENDBRANCH   5   6
ENDBRANCH   1   5
BRANCH   3  21
ATOM     21  C   UNL     1       6.865   6.019  16.537  0.00  0.00    +0.000 C 
BRANCH  21  22
ATOM     22  C   UNL     1       5.683   5.531  17.340  0.00  0.00    +0.000 A 
ATOM     23  C   UNL     1       4.399   6.063  17.169  0.00  0.00    +0.000 A 
ATOM     24  C   UNL     1       3.305   5.477  17.812  0.00  0.00    +0.000 A 
ATOM     25  F   UNL     1       2.079   5.961  17.561  0.00  0.00    +0.000 F 
ATOM     26  C   UNL     1       3.455   4.350  18.627  0.00  0.00    +0.000 A 
ATOM     27  C   UNL     1       4.746   3.869  18.872  0.00  0.00    +0.000 A 
ATOM     28  C   UNL     1       5.847   4.458  18.231  0.00  0.00    +0.000 A 
BRANCH  26  29
ATOM     29  N   UNL     1       2.298   3.613  19.077  0.00  0.00    +0.000 N 
ATOM     30  H   UNL     1       1.559   3.557  18.370  0.00  0.00    +0.000 HD
BRANCH  29  31
ATOM     31  S   UNL     1       1.567   4.054  20.535  0.00  0.00    +0.000 S 
ATOM     32  C   UNL     1       1.868   2.606  21.526  0.00  0.00    +0.000 C 
ATOM     33  O   UNL     1       2.270   5.174  21.116  0.00  0.00    +0.000 OA
ATOM     34  O   UNL     1       0.149   4.105  20.251  0.00  0.00    +0.000 OA
ENDBRANCH  29  31
ENDBRANCH  26  29
BRANCH  27  35
ATOM     35  C   UNL     1       4.974   2.738  19.721  0.00  0.00    +0.000 C 
ATOM     36  N   UNL     1       5.172   1.831  20.415  0.00  0.00    +0.000 NA
ENDBRANCH  27  35
ENDBRANCH  21  22
ENDBRANCH   3  21
TORSDOF 8
ENDMDL
MODEL 7
REMARK VINA RESULT:      -8.2      6.215      9.490
REMARK  Name = 
REMARK  13 active torsions:
REMARK  status: ('A' for Active; 'I' for Inactive)
REMARK    1  A    between atoms: C_1  and  C_2
REMARK    2  A    between atoms: C_2  and  C_3
REMARK    3  A    between atoms: C_6  and  C_7
REMARK    4  A    between atoms: C_6  and  C_8
REMARK    5  A    between atoms: C_11  and  C_12
REMARK    6  A    between atoms: C_12  and  C_13
REMARK    7  A    between atoms: C_13  and  C_14
REMARK    8  A    between atoms: N_16  and  C_17
REMARK    9  A    between atoms: C_17  and  C_18
REMARK   10  A    between atoms: C_22  and  N_23
REMARK   11  A    between atoms: N_23  and  S_24
REMARK   12  A    between atoms: S_24  and  C_25
REMARK   13  A    between atoms: C_28  and  C_29
REMARK                            x       y       z     vdW  Elec       q    Type
REMARK                         _______ _______ _______ _____ _____    ______ ____
ROOT
ATOM      1  C   UNL     1       8.004   7.999  17.946  0.00  0.00    +0.000 C 
ATOM      2  O   UNL     1       8.434   7.233  18.804  0.00  0.00    +0.000 OA
ATOM      3  N   UNL     1       7.286   7.560  16.844  0.00  0.00    +0.000 N 
ATOM      4  H   UNL     1       6.975   8.244  16.165  0.00  0.00    +0.000 HD
ENDROOT
BRANCH   1   5
ATOM      5  C   UNL     1       8.204   9.497  17.980  0.00  0.00    +0.000 C 
BRANCH   5   6
ATOM      6  C   UNL     1       9.472   9.886  18.744  0.00  0.00    +0.000 C 
BRANCH   6  17
ATOM      7  C   UNL     1      10.058  15.262  22.453  0.00  0.00    +0.000 C 
ATOM      8  C   UNL     1       8.737  14.903  21.737  0.00  0.00    +0.000 C 
ATOM      9  C   UNL     1       7.640  14.694  22.809  0.00  0.00    +0.000 C 
ATOM     10  C   UNL     1       8.257  16.087  20.867  0.00  0.00    +0.000 C 
ATOM     11  C   UNL     1       9.002  16.207  19.550  0.00  0.00    +0.000 C 
ATOM     12  C   UNL     1       8.932  14.929  18.680  0.00  0.00    +0.000 C 
ATOM     13  C   UNL     1       7.620  14.920  17.865  0.00  0.00    +0.000 C 
ATOM     14  C   UNL     1      10.121  15.028  17.692  0.00  0.00    +0.000 C 
ATOM     15  C   UNL     1       9.019  13.638  19.504  0.00  0.00    +0.000 A 
ATOM     16  C   UNL     1       9.162  12.400  18.827  0.00  0.00    +0.000 A 
ATOM     17  C   UNL     1       9.314  11.183  19.506  0.00  0.00    +0.000 A 
ATOM     18  C   UNL     1       9.318  11.198  20.896  0.00  0.00    +0.000 A 
ATOM     19  C   UNL     1       9.141  12.400  21.582  0.00  0.00    +0.000 A 
ATOM     20  C   UNL     1       8.957  13.630  20.912  0.00  0.00    +0.000 A 
ENDBRANCH   6  17
ENDBRANCH   5   6
ENDBRANCH   1   5
BRANCH   3  21
ATOM     21  C   UNL     1       6.983   6.161  16.615  0.00  0.00    +0.000 C 
BRANCH  21  22
ATOM     22  C   UNL     1       5.838   5.698  17.483  0.00  0.00    +0.000 A 
ATOM     23  C   UNL     1       5.867   4.469  18.154  0.00  0.00    +0.000 A 
ATOM     24  C   UNL     1       4.863   4.147  19.072  0.00  0.00    +0.000 A 
ATOM     25  F   UNL     1       4.965   2.999  19.759  0.00  0.00    +0.000 F 
ATOM     26  C   UNL     1       3.817   5.035  19.351  0.00  0.00    +0.000 A 
ATOM     27  C   UNL     1       3.735   6.224  18.618  0.00  0.00    +0.000 A 
ATOM     28  C   UNL     1       4.741   6.547  17.693  0.00  0.00    +0.000 A 
BRANCH  26  29
ATOM     29  N   UNL     1       2.939   4.799  20.473  0.00  0.00    +0.000 N 
ATOM     30  H   UNL     1       3.437   4.513  21.320  0.00  0.00    +0.000 HD
BRANCH  29  31
ATOM     31  S   UNL     1       1.633   3.745  20.277  0.00  0.00    +0.000 S 
ATOM     32  C   UNL     1       1.730   3.391  18.535  0.00  0.00    +0.000 C 
ATOM     33  O   UNL     1       1.872   2.527  21.016  0.00  0.00    +0.000 OA
ATOM     34  O   UNL     1       0.453   4.553  20.495  0.00  0.00    +0.000 OA
ENDBRANCH  29  31
ENDBRANCH  26  29
BRANCH  27  35
ATOM     35  C   UNL     1       2.675   7.163  18.832  0.00  0.00    +0.000 C 
ATOM     36  N   UNL     1       1.805   7.909  19.004  0.00  0.00    +0.000 NA
ENDBRANCH  27  35
ENDBRANCH  21  22
ENDBRANCH   3  21
TORSDOF 8
ENDMDL
MODEL 8
REMARK VINA RESULT:      -8.2      2.547      3.407
REMARK  Name = 
REMARK  13 active torsions:
REMARK  status: ('A' for Active; 'I' for Inactive)
REMARK    1  A    between atoms: C_1  and  C_2
REMARK    2  A    between atoms: C_2  and  C_3
REMARK    3  A    between atoms: C_6  and  C_7
REMARK    4  A    between atoms: C_6  and  C_8
REMARK    5  A    between atoms: C_11  and  C_12
REMARK    6  A    between atoms: C_12  and  C_13
REMARK    7  A    between atoms: C_13  and  C_14
REMARK    8  A    between atoms: N_16  and  C_17
REMARK    9  A    between atoms: C_17  and  C_18
REMARK   10  A    between atoms: C_22  and  N_23
REMARK   11  A    between atoms: N_23  and  S_24
REMARK   12  A    between atoms: S_24  and  C_25
REMARK   13  A    between atoms: C_28  and  C_29
REMARK                            x       y       z     vdW  Elec       q    Type
REMARK                         _______ _______ _______ _____ _____    ______ ____
ROOT
ATOM      1  C   UNL     1      -0.257  10.005  18.591  0.00  0.00    +0.000 C 
ATOM      2  O   UNL     1      -0.159  10.232  19.794  0.00  0.00    +0.000 OA
ATOM      3  N   UNL     1       0.824   9.630  17.810  0.00  0.00    +0.000 N 
ATOM      4  H   UNL     1       0.676   9.473  16.821  0.00  0.00    +0.000 HD
ENDROOT
BRANCH   1   5
ATOM      5  C   UNL     1      -1.554  10.108  17.821  0.00  0.00    +0.000 C 
BRANCH   5   6
ATOM      6  C   UNL     1      -2.034  11.557  17.703  0.00  0.00    +0.000 C 
BRANCH   6  17
ATOM      7  C   UNL     1      -7.548  11.357  21.247  0.00  0.00    +0.000 C 
ATOM      8  C   UNL     1      -6.896  12.692  20.824  0.00  0.00    +0.000 C 
ATOM      9  C   UNL     1      -7.898  13.465  19.933  0.00  0.00    +0.000 C 
ATOM     10  C   UNL     1      -6.652  13.588  22.060  0.00  0.00    +0.000 C 
ATOM     11  C   UNL     1      -5.431  13.184  22.864  0.00  0.00    +0.000 C 
ATOM     12  C   UNL     1      -4.122  13.162  22.037  0.00  0.00    +0.000 C 
ATOM     13  C   UNL     1      -3.525  14.585  21.963  0.00  0.00    +0.000 C 
ATOM     14  C   UNL     1      -3.142  12.260  22.826  0.00  0.00    +0.000 C 
ATOM     15  C   UNL     1      -4.323  12.628  20.614  0.00  0.00    +0.000 A 
ATOM     16  C   UNL     1      -3.183  12.372  19.809  0.00  0.00    +0.000 A 
ATOM     17  C   UNL     1      -3.277  11.823  18.523  0.00  0.00    +0.000 A 
ATOM     18  C   UNL     1      -4.539  11.526  18.021  0.00  0.00    +0.000 A 
ATOM     19  C   UNL     1      -5.676  11.805  18.780  0.00  0.00    +0.000 A 
ATOM     20  C   UNL     1      -5.599  12.386  20.066  0.00  0.00    +0.000 A 
ENDBRANCH   6  17
ENDBRANCH   5   6
ENDBRANCH   1   5
BRANCH   3  21
ATOM     21  C   UNL     1       2.161   9.473  18.349  0.00  0.00    +0.000 C 
BRANCH  21  22
ATOM     22  C   UNL     1       2.506   8.017  18.550  0.00  0.00    +0.000 A 
ATOM     23  C   UNL     1       1.916   7.249  19.561  0.00  0.00    +0.000 A 
ATOM     24  C   UNL     1       2.140   5.869  19.615  0.00  0.00    +0.000 A 
ATOM     25  F   UNL     1       1.493   5.151  20.545  0.00  0.00    +0.000 F 
ATOM     26  C   UNL     1       2.940   5.222  18.667  0.00  0.00    +0.000 A 
ATOM     27  C   UNL     1       3.603   5.998  17.710  0.00  0.00    +0.000 A 
ATOM     28  C   UNL     1       3.383   7.384  17.656  0.00  0.00    +0.000 A 
BRANCH  26  29
ATOM     29  N   UNL     1       2.957   3.781  18.586  0.00  0.00    +0.000 N 
ATOM     30  H   UNL     1       2.031   3.361  18.705  0.00  0.00    +0.000 HD
BRANCH  29  31
ATOM     31  S   UNL     1       4.028   2.922  19.572  0.00  0.00    +0.000 S 
ATOM     32  C   UNL     1       4.070   1.345  18.748  0.00  0.00    +0.000 C 
ATOM     33  O   UNL     1       5.342   3.521  19.506  0.00  0.00    +0.000 OA
ATOM     34  O   UNL     1       3.331   2.743  20.827  0.00  0.00    +0.000 OA
ENDBRANCH  29  31
ENDBRANCH  26  29
BRANCH  27  35
ATOM     35  C   UNL     1       4.461   5.404  16.729  0.00  0.00    +0.000 C 
ATOM     36  N   UNL     1       5.157   4.938  15.927  0.00  0.00    +0.000 NA
ENDBRANCH  27  35
ENDBRANCH  21  22
ENDBRANCH   3  21
TORSDOF 8
ENDMDL
MODEL 9
REMARK VINA RESULT:      -8.2      5.061     10.898
REMARK  Name = 
REMARK  13 active torsions:
REMARK  status: ('A' for Active; 'I' for Inactive)
REMARK    1  A    between atoms: C_1  and  C_2
REMARK    2  A    between atoms: C_2  and  C_3
REMARK    3  A    between atoms: C_6  and  C_7
REMARK    4  A    between atoms: C_6  and  C_8
REMARK    5  A    between atoms: C_11  and  C_12
REMARK    6  A    between atoms: C_12  and  C_13
REMARK    7  A    between atoms: C_13  and  C_14
REMARK    8  A    between atoms: N_16  and  C_17
REMARK    9  A    between atoms: C_17  and  C_18
REMARK   10  A    between atoms: C_22  and  N_23
REMARK   11  A    between atoms: N_23  and  S_24
REMARK   12  A    between atoms: S_24  and  C_25
REMARK   13  A    between atoms: C_28  and  C_29
REMARK                            x       y       z     vdW  Elec       q    Type
REMARK                         _______ _______ _______ _____ _____    ______ ____
ROOT
ATOM      1  C   UNL     1       1.517  11.429  18.839  0.00  0.00    +0.000 C 
ATOM      2  O   UNL     1       1.665  12.620  18.576  0.00  0.00    +0.000 OA
ATOM      3  N   UNL     1       0.835  10.990  19.963  0.00  0.00    +0.000 N 
ATOM      4  H   UNL     1       0.765   9.994  20.128  0.00  0.00    +0.000 HD
ENDROOT
BRANCH   1   5
ATOM      5  C   UNL     1       2.058  10.307  17.982  0.00  0.00    +0.000 C 
BRANCH   5   6
ATOM      6  C   UNL     1       1.396   8.967  18.311  0.00  0.00    +0.000 C 
BRANCH   6  17
ATOM      7  C   UNL     1       6.259   4.573  18.105  0.00  0.00    +0.000 C 
ATOM      8  C   UNL     1       4.958   4.391  17.292  0.00  0.00    +0.000 C 
ATOM      9  C   UNL     1       5.321   4.360  15.787  0.00  0.00    +0.000 C 
ATOM     10  C   UNL     1       4.318   3.018  17.600  0.00  0.00    +0.000 C 
ATOM     11  C   UNL     1       3.564   2.987  18.916  0.00  0.00    +0.000 C 
ATOM     12  C   UNL     1       2.448   4.056  19.017  0.00  0.00    +0.000 C 
ATOM     13  C   UNL     1       1.161   3.537  18.340  0.00  0.00    +0.000 C 
ATOM     14  C   UNL     1       2.170   4.230  20.531  0.00  0.00    +0.000 C 
ATOM     15  C   UNL     1       2.844   5.395  18.383  0.00  0.00    +0.000 A 
ATOM     16  C   UNL     1       2.000   6.520  18.570  0.00  0.00    +0.000 A 
ATOM     17  C   UNL     1       2.321   7.793  18.080  0.00  0.00    +0.000 A 
ATOM     18  C   UNL     1       3.510   7.950  17.378  0.00  0.00    +0.000 A 
ATOM     19  C   UNL     1       4.338   6.850  17.149  0.00  0.00    +0.000 A 
ATOM     20  C   UNL     1       4.013   5.555  17.612  0.00  0.00    +0.000 A 
ENDBRANCH   6  17
ENDBRANCH   5   6
ENDBRANCH   1   5
BRANCH   3  21
ATOM     21  C   UNL     1       0.238  11.900  20.920  0.00  0.00    +0.000 C 
BRANCH  21  22
ATOM     22  C   UNL     1      -1.234  12.096  20.649  0.00  0.00    +0.000 A 
ATOM     23  C   UNL     1      -2.059  12.815  21.522  0.00  0.00    +0.000 A 
ATOM     24  C   UNL     1      -3.377  13.111  21.159  0.00  0.00    +0.000 A 
ATOM     25  F   UNL     1      -4.113  13.872  21.982  0.00  0.00    +0.000 F 
ATOM     26  C   UNL     1      -3.900  12.712  19.924  0.00  0.00    +0.000 A 
ATOM     27  C   UNL     1      -3.109  11.917  19.088  0.00  0.00    +0.000 A 
ATOM     28  C   UNL     1      -1.787  11.616  19.452  0.00  0.00    +0.000 A 
BRANCH  26  29
ATOM     29  N   UNL     1      -5.164  13.235  19.463  0.00  0.00    +0.000 N 
ATOM     30  H   UNL     1      -5.268  14.240  19.632  0.00  0.00    +0.000 HD
BRANCH  29  31
ATOM     31  S   UNL     1      -6.591  12.489  19.974  0.00  0.00    +0.000 S 
ATOM     32  C   UNL     1      -7.425  13.843  20.772  0.00  0.00    +0.000 C 
ATOM     33  O   UNL     1      -7.364  12.073  18.826  0.00  0.00    +0.000 OA
ATOM     34  O   UNL     1      -6.186  11.555  21.002  0.00  0.00    +0.000 OA
ENDBRANCH  29  31
ENDBRANCH  26  29
BRANCH  27  35
ATOM     35  C   UNL     1      -3.593  11.449  17.824  0.00  0.00    +0.000 C 
ATOM     36  N   UNL     1      -4.002  11.069  16.808  0.00  0.00    +0.000 NA
ENDBRANCH  27  35
ENDBRANCH  21  22
ENDBRANCH   3  21
TORSDOF 8
ENDMDL
