MODEL 1
REMARK VINA RESULT:      -7.2      0.000      0.000
REMARK  Name = 
REMARK  2 active torsions:
REMARK  status: ('A' for Active; 'I' for Inactive)
REMARK    1  A    between atoms: C_1  and  N_2
REMARK    2  A    between atoms: C_12  and  N_13
REMARK                            x       y       z     vdW  Elec       q    Type
REMARK                         _______ _______ _______ _____ _____    ______ ____
ROOT
ATOM      1  C   UNL     1       3.645   1.322  18.714  0.00  0.00    +0.000 C 
ATOM      2  N   UNL     1       3.421   2.615  19.315  0.00  0.00    +0.000 N 
ATOM      3  C   UNL     1       3.036   2.743  20.711  0.00  0.00    +0.000 C 
ATOM      4  C   UNL     1       1.601   3.267  20.798  0.00  0.00    +0.000 C 
ATOM      5  C   UNL     1       1.423   4.671  20.208  0.00  0.00    +0.000 C 
ATOM      6  C   UNL     1       1.763   4.747  18.717  0.00  0.00    +0.000 C 
ATOM      7  C   UNL     1       3.253   4.865  18.477  0.00  0.00    +0.000 A 
ATOM      8  C   UNL     1       4.057   3.725  18.758  0.00  0.00    +0.000 A 
ATOM      9  N   UNL     1       5.391   3.701  18.560  0.00  0.00    +0.000 NA
ATOM     10  C   UNL     1       5.943   4.852  18.141  0.00  0.00    +0.000 A 
ATOM     11  C   UNL     1       5.239   6.010  17.857  0.00  0.00    +0.000 A 
ATOM     12  C   UNL     1       3.859   6.022  17.964  0.00  0.00    +0.000 A 
ATOM     13  C   UNL     1       6.142   7.126  17.455  0.00  0.00    +0.000 C 
ATOM     14  C   UNL     1       7.542   6.507  17.507  0.00  0.00    +0.000 C 
ATOM     15  C   UNL     1       7.421   5.052  17.987  0.00  0.00    +0.000 C 
ENDROOT
BRANCH  12  16
ATOM     16  N   UNL     1       3.159   7.227  17.800  0.00  0.00    +0.000 N 
ATOM     17  H   UNL     1       2.187   7.172  18.079  0.00  0.00    +0.000 HD
ATOM     18  H   UNL     1       3.611   8.035  18.212  0.00  0.00    +0.000 HD
ENDBRANCH  12  16
TORSDOF 1
ENDMDL
MODEL 2
REMARK VINA RESULT:      -7.0      1.420      1.683
REMARK  Name = 
REMARK  2 active torsions:
REMARK  status: ('A' for Active; 'I' for Inactive)
REMARK    1  A    between atoms: C_1  and  N_2
REMARK    2  A    between atoms: C_12  and  N_13
REMARK                            x       y       z     vdW  Elec       q    Type
REMARK                         _______ _______ _______ _____ _____    ______ ____
ROOT
ATOM      1  C   UNL     1       4.441   1.809  20.046  0.00  0.00    +0.000 C 
ATOM      2  N   UNL     1       3.896   3.034  19.513  0.00  0.00    +0.000 N 
ATOM      3  C   UNL     1       2.661   3.600  20.031  0.00  0.00    +0.000 C 
ATOM      4  C   UNL     1       1.570   3.507  18.962  0.00  0.00    +0.000 C 
ATOM      5  C   UNL     1       1.879   4.319  17.698  0.00  0.00    +0.000 C 
ATOM      6  C   UNL     1       3.150   3.859  16.980  0.00  0.00    +0.000 C 
ATOM      7  C   UNL     1       4.401   4.427  17.615  0.00  0.00    +0.000 A 
ATOM      8  C   UNL     1       4.766   3.936  18.900  0.00  0.00    +0.000 A 
ATOM      9  N   UNL     1       5.872   4.348  19.555  0.00  0.00    +0.000 NA
ATOM     10  C   UNL     1       6.588   5.312  18.951  0.00  0.00    +0.000 A 
ATOM     11  C   UNL     1       6.297   5.854  17.710  0.00  0.00    +0.000 A 
ATOM     12  C   UNL     1       5.221   5.375  16.984  0.00  0.00    +0.000 A 
ATOM     13  C   UNL     1       7.255   6.932  17.336  0.00  0.00    +0.000 C 
ATOM     14  C   UNL     1       8.223   6.995  18.521  0.00  0.00    +0.000 C 
ATOM     15  C   UNL     1       7.773   5.979  19.582  0.00  0.00    +0.000 C 
ENDROOT
BRANCH  12  16
ATOM     16  N   UNL     1       4.851   6.009  15.788  0.00  0.00    +0.000 N 
ATOM     17  H   UNL     1       4.837   7.019  15.852  0.00  0.00    +0.000 HD
ATOM     18  H   UNL     1       5.370   5.703  14.973  0.00  0.00    +0.000 HD
ENDBRANCH  12  16
TORSDOF 1
ENDMDL
MODEL 3
REMARK VINA RESULT:      -6.8      1.332      4.584
REMARK  Name = 
REMARK  2 active torsions:
REMARK  status: ('A' for Active; 'I' for Inactive)
REMARK    1  A    between atoms: C_1  and  N_2
REMARK    2  A    between atoms: C_12  and  N_13
REMARK                            x       y       z     vdW  Elec       q    Type
REMARK                         _______ _______ _______ _____ _____    ______ ____
ROOT
ATOM      1  C   UNL     1       7.826   4.549  18.293  0.00  0.00    +0.000 C 
ATOM      2  N   UNL     1       6.601   4.705  17.547  0.00  0.00    +0.000 N 
ATOM      3  C   UNL     1       6.504   4.288  16.157  0.00  0.00    +0.000 C 
ATOM      4  C   UNL     1       6.348   5.520  15.265  0.00  0.00    +0.000 C 
ATOM      5  C   UNL     1       5.062   6.313  15.531  0.00  0.00    +0.000 C 
ATOM      6  C   UNL     1       4.977   6.866  16.955  0.00  0.00    +0.000 C 
ATOM      7  C   UNL     1       4.507   5.823  17.946  0.00  0.00    +0.000 A 
ATOM      8  C   UNL     1       5.397   4.756  18.250  0.00  0.00    +0.000 A 
ATOM      9  N   UNL     1       5.100   3.782  19.135  0.00  0.00    +0.000 NA
ATOM     10  C   UNL     1       3.869   3.834  19.674  0.00  0.00    +0.000 A 
ATOM     11  C   UNL     1       2.937   4.827  19.424  0.00  0.00    +0.000 A 
ATOM     12  C   UNL     1       3.262   5.885  18.592  0.00  0.00    +0.000 A 
ATOM     13  C   UNL     1       1.654   4.579  20.140  0.00  0.00    +0.000 C 
ATOM     14  C   UNL     1       1.904   3.277  20.907  0.00  0.00    +0.000 C 
ATOM     15  C   UNL     1       3.318   2.773  20.578  0.00  0.00    +0.000 C 
ENDROOT
BRANCH  12  16
ATOM     16  N   UNL     1       2.278   6.820  18.239  0.00  0.00    +0.000 N 
ATOM     17  H   UNL     1       2.618   7.556  17.631  0.00  0.00    +0.000 HD
ATOM     18  H   UNL     1       1.424   6.414  17.877  0.00  0.00    +0.000 HD
ENDBRANCH  12  16
TORSDOF 1
ENDMDL
MODEL 4
REMARK VINA RESULT:      -6.7      1.499      1.530
REMARK  Name = 
REMARK  2 active torsions:
REMARK  status: ('A' for Active; 'I' for Inactive)
REMARK    1  A    between atoms: C_1  and  N_2
REMARK    2  A    between atoms: C_12  and  N_13
REMARK                            x       y       z     vdW  Elec       q    Type
REMARK                         _______ _______ _______ _____ _____    ______ ____
ROOT
ATOM      1  C   UNL     1       1.959   1.546  18.667  0.00  0.00    +0.000 C 
ATOM      2  N   UNL     1       2.575   2.722  19.231  0.00  0.00    +0.000 N 
ATOM      3  C   UNL     1       3.055   2.739  20.604  0.00  0.00    +0.000 C 
ATOM      4  C   UNL     1       2.188   3.688  21.435  0.00  0.00    +0.000 C 
ATOM      5  C   UNL     1       2.259   5.148  20.972  0.00  0.00    +0.000 C 
ATOM      6  C   UNL     1       1.770   5.352  19.537  0.00  0.00    +0.000 C 
ATOM      7  C   UNL     1       2.834   5.006  18.517  0.00  0.00    +0.000 A 
ATOM      8  C   UNL     1       3.181   3.634  18.367  0.00  0.00    +0.000 A 
ATOM      9  N   UNL     1       4.095   3.202  17.474  0.00  0.00    +0.000 NA
ATOM     10  C   UNL     1       4.724   4.158  16.768  0.00  0.00    +0.000 A 
ATOM     11  C   UNL     1       4.459   5.514  16.861  0.00  0.00    +0.000 A 
ATOM     12  C   UNL     1       3.457   5.965  17.702  0.00  0.00    +0.000 A 
ATOM     13  C   UNL     1       5.354   6.317  15.980  0.00  0.00    +0.000 C 
ATOM     14  C   UNL     1       6.231   5.269  15.288  0.00  0.00    +0.000 C 
ATOM     15  C   UNL     1       5.855   3.879  15.823  0.00  0.00    +0.000 C 
ENDROOT
BRANCH  12  16
ATOM     16  N   UNL     1       3.275   7.343  17.892  0.00  0.00    +0.000 N 
ATOM     17  H   UNL     1       2.558   7.568  18.571  0.00  0.00    +0.000 HD
ATOM     18  H   UNL     1       4.128   7.857  18.078  0.00  0.00    +0.000 HD
ENDBRANCH  12  16
TORSDOF 1
ENDMDL
MODEL 5
REMARK VINA RESULT:      -6.7      1.470      5.189
REMARK  Name = 
REMARK  2 active torsions:
REMARK  status: ('A' for Active; 'I' for Inactive)
REMARK    1  A    between atoms: C_1  and  N_2
REMARK    2  A    between atoms: C_12  and  N_13
REMARK                            x       y       z     vdW  Elec       q    Type
REMARK                         _______ _______ _______ _____ _____    ______ ____
ROOT
ATOM      1  C   UNL     1       3.924   7.602  17.127  0.00  0.00    +0.000 C 
ATOM      2  N   UNL     1       4.711   6.444  17.475  0.00  0.00    +0.000 N 
ATOM      3  C   UNL     1       6.149   6.539  17.670  0.00  0.00    +0.000 C 
ATOM      4  C   UNL     1       6.866   5.783  16.549  0.00  0.00    +0.000 C 
ATOM      5  C   UNL     1       6.567   4.279  16.534  0.00  0.00    +0.000 C 
ATOM      6  C   UNL     1       5.086   3.960  16.316  0.00  0.00    +0.000 C 
ATOM      7  C   UNL     1       4.283   4.079  17.593  0.00  0.00    +0.000 A 
ATOM      8  C   UNL     1       4.081   5.383  18.125  0.00  0.00    +0.000 A 
ATOM      9  N   UNL     1       3.361   5.617  19.242  0.00  0.00    +0.000 NA
ATOM     10  C   UNL     1       2.894   4.529  19.878  0.00  0.00    +0.000 A 
ATOM     11  C   UNL     1       3.056   3.226  19.440  0.00  0.00    +0.000 A 
ATOM     12  C   UNL     1       3.709   2.976  18.245  0.00  0.00    +0.000 A 
ATOM     13  C   UNL     1       2.459   2.241  20.387  0.00  0.00    +0.000 C 
ATOM     14  C   UNL     1       1.871   3.111  21.502  0.00  0.00    +0.000 C 
ATOM     15  C   UNL     1       2.184   4.584  21.198  0.00  0.00    +0.000 C 
ENDROOT
BRANCH  12  16
ATOM     16  N   UNL     1       3.983   1.653  17.865  0.00  0.00    +0.000 N 
ATOM     17  H   UNL     1       3.628   0.963  18.516  0.00  0.00    +0.000 HD
ATOM     18  H   UNL     1       3.720   1.427  16.913  0.00  0.00    +0.000 HD
ENDBRANCH  12  16
TORSDOF 1
ENDMDL
MODEL 6
REMARK VINA RESULT:      -6.4      1.567      5.223
REMARK  Name = 
REMARK  2 active torsions:
REMARK  status: ('A' for Active; 'I' for Inactive)
REMARK    1  A    between atoms: C_1  and  N_2
REMARK    2  A    between atoms: C_12  and  N_13
REMARK                            x       y       z     vdW  Elec       q    Type
REMARK                         _______ _______ _______ _____ _____    ______ ____
ROOT
ATOM      1  C   UNL     1       5.513   5.909  15.076  0.00  0.00    +0.000 C 
ATOM      2  N   UNL     1       5.619   5.917  16.515  0.00  0.00    +0.000 N 
ATOM      3  C   UNL     1       6.057   7.103  17.234  0.00  0.00    +0.000 C 
ATOM      4  C   UNL     1       7.426   6.841  17.864  0.00  0.00    +0.000 C 
ATOM      5  C   UNL     1       7.415   5.723  18.914  0.00  0.00    +0.000 C 
ATOM      6  C   UNL     1       6.996   4.365  18.346  0.00  0.00    +0.000 C 
ATOM      7  C   UNL     1       5.492   4.235  18.232  0.00  0.00    +0.000 A 
ATOM      8  C   UNL     1       4.836   5.022  17.244  0.00  0.00    +0.000 A 
ATOM      9  N   UNL     1       3.505   4.972  17.031  0.00  0.00    +0.000 NA
ATOM     10  C   UNL     1       2.807   4.177  17.861  0.00  0.00    +0.000 A 
ATOM     11  C   UNL     1       3.361   3.390  18.855  0.00  0.00    +0.000 A 
ATOM     12  C   UNL     1       4.735   3.357  19.024  0.00  0.00    +0.000 A 
ATOM     13  C   UNL     1       2.320   2.658  19.631  0.00  0.00    +0.000 C 
ATOM     14  C   UNL     1       1.003   3.081  18.973  0.00  0.00    +0.000 C 
ATOM     15  C   UNL     1       1.310   4.091  17.857  0.00  0.00    +0.000 C 
ENDROOT
BRANCH  12  16
ATOM     16  N   UNL     1       5.286   2.660  20.109  0.00  0.00    +0.000 N 
ATOM     17  H   UNL     1       5.402   3.230  20.939  0.00  0.00    +0.000 HD
ATOM     18  H   UNL     1       4.821   1.788  20.328  0.00  0.00    +0.000 HD
ENDBRANCH  12  16
TORSDOF 1
ENDMDL
MODEL 7
REMARK VINA RESULT:      -6.1      2.113      3.486
REMARK  Name = 
REMARK  2 active torsions:
REMARK  status: ('A' for Active; 'I' for Inactive)
REMARK    1  A    between atoms: C_1  and  N_2
REMARK    2  A    between atoms: C_12  and  N_13
REMARK                            x       y       z     vdW  Elec       q    Type
REMARK                         _______ _______ _______ _____ _____    ______ ____
ROOT
ATOM      1  C   UNL     1       2.231   3.575  21.774  0.00  0.00    +0.000 C 
ATOM      2  N   UNL     1       2.138   3.575  20.334  0.00  0.00    +0.000 N 
ATOM      3  C   UNL     1       1.213   2.697  19.636  0.00  0.00    +0.000 C 
ATOM      4  C   UNL     1       2.001   1.643  18.856  0.00  0.00    +0.000 C 
ATOM      5  C   UNL     1       2.893   2.232  17.756  0.00  0.00    +0.000 C 
ATOM      6  C   UNL     1       3.965   3.183  18.293  0.00  0.00    +0.000 C 
ATOM      7  C   UNL     1       3.419   4.570  18.554  0.00  0.00    +0.000 A 
ATOM      8  C   UNL     1       2.517   4.727  19.644  0.00  0.00    +0.000 A 
ATOM      9  N   UNL     1       1.984   5.918  19.990  0.00  0.00    +0.000 NA
ATOM     10  C   UNL     1       2.301   6.955  19.196  0.00  0.00    +0.000 A 
ATOM     11  C   UNL     1       3.157   6.889  18.110  0.00  0.00    +0.000 A 
ATOM     12  C   UNL     1       3.787   5.695  17.800  0.00  0.00    +0.000 A 
ATOM     13  C   UNL     1       3.270   8.199  17.409  0.00  0.00    +0.000 C 
ATOM     14  C   UNL     1       2.364   9.131  18.220  0.00  0.00    +0.000 C 
ATOM     15  C   UNL     1       1.707   8.324  19.349  0.00  0.00    +0.000 C 
ENDROOT
BRANCH  12  16
ATOM     16  N   UNL     1       4.552   5.596  16.629  0.00  0.00    +0.000 N 
ATOM     17  H   UNL     1       5.534   5.801  16.768  0.00  0.00    +0.000 HD
ATOM     18  H   UNL     1       4.430   4.729  16.120  0.00  0.00    +0.000 HD
ENDBRANCH  12  16
TORSDOF 1
ENDMDL
MODEL 8
REMARK VINA RESULT:      -6.1      1.160      5.270
REMARK  Name = 
REMARK  2 active torsions:
REMARK  status: ('A' for Active; 'I' for Inactive)
REMARK    1  A    between atoms: C_1  and  N_2
REMARK    2  A    between atoms: C_12  and  N_13
REMARK                            x       y       z     vdW  Elec       q    Type
REMARK                         _______ _______ _______ _____ _____    ______ ____
ROOT
ATOM      1  C   UNL     1       4.613   7.107  15.914  0.00  0.00    +0.000 C 
ATOM      2  N   UNL     1       5.258   6.584  17.094  0.00  0.00    +0.000 N 
ATOM      3  C   UNL     1       6.325   7.315  17.759  0.00  0.00    +0.000 C 
ATOM      4  C   UNL     1       7.643   6.557  17.592  0.00  0.00    +0.000 C 
ATOM      5  C   UNL     1       7.643   5.172  18.250  0.00  0.00    +0.000 C 
ATOM      6  C   UNL     1       6.589   4.227  17.668  0.00  0.00    +0.000 C 
ATOM      7  C   UNL     1       5.216   4.475  18.254  0.00  0.00    +0.000 A 
ATOM      8  C   UNL     1       4.554   5.682  17.892  0.00  0.00    +0.000 A 
ATOM      9  N   UNL     1       3.318   6.001  18.329  0.00  0.00    +0.000 NA
ATOM     10  C   UNL     1       2.761   5.137  19.195  0.00  0.00    +0.000 A 
ATOM     11  C   UNL     1       3.338   3.949  19.611  0.00  0.00    +0.000 A 
ATOM     12  C   UNL     1       4.564   3.561  19.097  0.00  0.00    +0.000 A 
ATOM     13  C   UNL     1       2.489   3.235  20.606  0.00  0.00    +0.000 C 
ATOM     14  C   UNL     1       1.262   4.138  20.760  0.00  0.00    +0.000 C 
ATOM     15  C   UNL     1       1.451   5.385  19.882  0.00  0.00    +0.000 C 
ENDROOT
BRANCH  12  16
ATOM     16  N   UNL     1       5.206   2.425  19.611  0.00  0.00    +0.000 N 
ATOM     17  H   UNL     1       5.739   2.607  20.453  0.00  0.00    +0.000 HD
ATOM     18  H   UNL     1       4.602   1.619  19.729  0.00  0.00    +0.000 HD
ENDBRANCH  12  16
TORSDOF 1
ENDMDL
MODEL 9
REMARK VINA RESULT:      -6.0      1.836      2.698
REMARK  Name = 
REMARK  2 active torsions:
REMARK  status: ('A' for Active; 'I' for Inactive)
REMARK    1  A    between atoms: C_1  and  N_2
REMARK    2  A    between atoms: C_12  and  N_13
REMARK                            x       y       z     vdW  Elec       q    Type
REMARK                         _______ _______ _______ _____ _____    ______ ____
ROOT
ATOM      1  C   UNL     1       1.023   4.262  17.452  0.00  0.00    +0.000 C 
ATOM      2  N   UNL     1       2.131   3.606  18.104  0.00  0.00    +0.000 N 
ATOM      3  C   UNL     1       2.000   2.264  18.649  0.00  0.00    +0.000 C 
ATOM      4  C   UNL     1       2.084   2.322  20.175  0.00  0.00    +0.000 C 
ATOM      5  C   UNL     1       3.434   2.831  20.697  0.00  0.00    +0.000 C 
ATOM      6  C   UNL     1       3.756   4.258  20.247  0.00  0.00    +0.000 C 
ATOM      7  C   UNL     1       4.315   4.301  18.841  0.00  0.00    +0.000 A 
ATOM      8  C   UNL     1       3.427   4.001  17.770  0.00  0.00    +0.000 A 
ATOM      9  N   UNL     1       3.803   4.031  16.475  0.00  0.00    +0.000 NA
ATOM     10  C   UNL     1       5.100   4.297  16.246  0.00  0.00    +0.000 A 
ATOM     11  C   UNL     1       6.034   4.586  17.227  0.00  0.00    +0.000 A 
ATOM     12  C   UNL     1       5.643   4.653  18.553  0.00  0.00    +0.000 A 
ATOM     13  C   UNL     1       7.395   4.793  16.656  0.00  0.00    +0.000 C 
ATOM     14  C   UNL     1       7.196   4.608  15.148  0.00  0.00    +0.000 C 
ATOM     15  C   UNL     1       5.726   4.249  14.884  0.00  0.00    +0.000 C 
ENDROOT
BRANCH  12  16
ATOM     16  N   UNL     1       6.610   4.819  19.556  0.00  0.00    +0.000 N 
ATOM     17  H   UNL     1       7.029   5.741  19.565  0.00  0.00    +0.000 HD
ATOM     18  H   UNL     1       6.304   4.549  20.483  0.00  0.00    +0.000 HD
ENDBRANCH  12  16
TORSDOF 1
ENDMDL
