MODEL 1
REMARK VINA RESULT:      -7.2      0.000      0.000
REMARK  Name = 
REMARK  1 active torsions:
REMARK  status: ('A' for Active; 'I' for Inactive)
REMARK    1  A    between atoms: C_1  and  C_2
REMARK                            x       y       z     vdW  Elec       q    Type
REMARK                         _______ _______ _______ _____ _____    ______ ____
ROOT
ATOM      1  C   UNL     1       1.688   5.767  20.598  0.00  0.00    +0.000 C 
ATOM      2  C   UNL     1       1.925   4.735  19.484  0.00  0.00    +0.000 C 
ATOM      3  C   UNL     1       1.439   3.348  19.908  0.00  0.00    +0.000 C 
ATOM      4  C   UNL     1       2.400   2.735  20.908  0.00  0.00    +0.000 C 
ATOM      5  C   UNL     1       3.760   2.580  20.265  0.00  0.00    +0.000 C 
ATOM      6  C   UNL     1       4.246   3.785  19.476  0.00  0.00    +0.000 A 
ATOM      7  N   UNL     1       5.512   3.806  19.177  0.00  0.00    +0.000 NA
ATOM      8  C   UNL     1       5.930   4.850  18.420  0.00  0.00    +0.000 A 
ATOM      9  C   UNL     1       5.163   5.834  17.962  0.00  0.00    +0.000 A 
ATOM     10  C   UNL     1       3.739   5.819  18.274  0.00  0.00    +0.000 A 
ATOM     11  O   UNL     1       3.009   6.718  17.866  0.00  0.00    +0.000 OA
ATOM     12  N   UNL     1       3.330   4.737  19.053  0.00  0.00    +0.000 N 
ATOM     13  C   UNL     1       5.912   6.857  17.199  0.00  0.00    +0.000 C 
ATOM     14  C   UNL     1       7.361   6.502  17.561  0.00  0.00    +0.000 C 
ATOM     15  C   UNL     1       7.350   5.031  17.995  0.00  0.00    +0.000 C 
ENDROOT
TORSDOF 0
ENDMDL
MODEL 2
REMARK VINA RESULT:      -7.2      2.067      2.846
REMARK  Name = 
REMARK  1 active torsions:
REMARK  status: ('A' for Active; 'I' for Inactive)
REMARK    1  A    between atoms: C_1  and  C_2
REMARK                            x       y       z     vdW  Elec       q    Type
REMARK                         _______ _______ _______ _____ _____    ______ ____
ROOT
ATOM      1  C   UNL     1       1.050   2.392  18.712  0.00  0.00    +0.000 C 
ATOM      2  C   UNL     1       2.253   2.889  19.529  0.00  0.00    +0.000 C 
ATOM      3  C   UNL     1       1.802   3.486  20.864  0.00  0.00    +0.000 C 
ATOM      4  C   UNL     1       1.174   4.849  20.646  0.00  0.00    +0.000 C 
ATOM      5  C   UNL     1       2.199   5.781  20.037  0.00  0.00    +0.000 C 
ATOM      6  C   UNL     1       3.011   5.194  18.893  0.00  0.00    +0.000 A 
ATOM      7  N   UNL     1       3.667   6.043  18.159  0.00  0.00    +0.000 NA
ATOM      8  C   UNL     1       4.439   5.512  17.179  0.00  0.00    +0.000 A 
ATOM      9  C   UNL     1       4.582   4.217  16.917  0.00  0.00    +0.000 A 
ATOM     10  C   UNL     1       3.866   3.251  17.740  0.00  0.00    +0.000 A 
ATOM     11  O   UNL     1       3.977   2.049  17.518  0.00  0.00    +0.000 OA
ATOM     12  N   UNL     1       3.078   3.817  18.743  0.00  0.00    +0.000 N 
ATOM     13  C   UNL     1       5.459   3.945  15.756  0.00  0.00    +0.000 C 
ATOM     14  C   UNL     1       5.565   5.340  15.125  0.00  0.00    +0.000 C 
ATOM     15  C   UNL     1       5.250   6.344  16.241  0.00  0.00    +0.000 C 
ENDROOT
TORSDOF 0
ENDMDL
MODEL 3
REMARK VINA RESULT:      -7.0      1.696      1.852
REMARK  Name = 
REMARK  1 active torsions:
REMARK  status: ('A' for Active; 'I' for Inactive)
REMARK    1  A    between atoms: C_1  and  C_2
REMARK                            x       y       z     vdW  Elec       q    Type
REMARK                         _______ _______ _______ _____ _____    ______ ____
ROOT
ATOM      1  C   UNL     1       1.915   4.434  17.437  0.00  0.00    +0.000 C 
ATOM      2  C   UNL     1       3.053   3.406  17.340  0.00  0.00    +0.000 C 
ATOM      3  C   UNL     1       2.677   2.101  18.047  0.00  0.00    +0.000 C 
ATOM      4  C   UNL     1       2.743   2.280  19.551  0.00  0.00    +0.000 C 
ATOM      5  C   UNL     1       4.156   2.641  19.952  0.00  0.00    +0.000 C 
ATOM      6  C   UNL     1       4.823   3.703  19.092  0.00  0.00    +0.000 A 
ATOM      7  N   UNL     1       5.897   4.250  19.582  0.00  0.00    +0.000 NA
ATOM      8  C   UNL     1       6.523   5.151  18.786  0.00  0.00    +0.000 A 
ATOM      9  C   UNL     1       6.140   5.510  17.566  0.00  0.00    +0.000 A 
ATOM     10  C   UNL     1       4.948   4.895  16.994  0.00  0.00    +0.000 A 
ATOM     11  O   UNL     1       4.570   5.211  15.870  0.00  0.00    +0.000 OA
ATOM     12  N   UNL     1       4.319   3.971  17.828  0.00  0.00    +0.000 N 
ATOM     13  C   UNL     1       7.002   6.549  16.960  0.00  0.00    +0.000 C 
ATOM     14  C   UNL     1       7.804   7.023  18.180  0.00  0.00    +0.000 C 
ATOM     15  C   UNL     1       7.762   5.877  19.197  0.00  0.00    +0.000 C 
ENDROOT
TORSDOF 0
ENDMDL
MODEL 4
REMARK VINA RESULT:      -7.0      1.591      1.635
REMARK  Name = 
REMARK  1 active torsions:
REMARK  status: ('A' for Active; 'I' for Inactive)
REMARK    1  A    between atoms: C_1  and  C_2
REMARK                            x       y       z     vdW  Elec       q    Type
REMARK                         _______ _______ _______ _____ _____    ______ ____
ROOT
ATOM      1  C   UNL     1       2.293   5.173  20.844  0.00  0.00    +0.000 C 
ATOM      2  C   UNL     1       1.660   4.655  19.542  0.00  0.00    +0.000 C 
ATOM      3  C   UNL     1       0.805   3.413  19.804  0.00  0.00    +0.000 C 
ATOM      4  C   UNL     1       1.691   2.207  20.049  0.00  0.00    +0.000 C 
ATOM      5  C   UNL     1       2.535   1.947  18.820  0.00  0.00    +0.000 C 
ATOM      6  C   UNL     1       3.184   3.177  18.207  0.00  0.00    +0.000 A 
ATOM      7  N   UNL     1       4.143   2.959  17.356  0.00  0.00    +0.000 NA
ATOM      8  C   UNL     1       4.677   4.056  16.764  0.00  0.00    +0.000 A 
ATOM      9  C   UNL     1       4.302   5.313  16.974  0.00  0.00    +0.000 A 
ATOM     10  C   UNL     1       3.217   5.575  17.912  0.00  0.00    +0.000 A 
ATOM     11  O   UNL     1       2.853   6.728  18.127  0.00  0.00    +0.000 OA
ATOM     12  N   UNL     1       2.682   4.435  18.509  0.00  0.00    +0.000 N 
ATOM     13  C   UNL     1       5.101   6.300  16.214  0.00  0.00    +0.000 C 
ATOM     14  C   UNL     1       6.281   5.438  15.748  0.00  0.00    +0.000 C 
ATOM     15  C   UNL     1       5.791   3.984  15.772  0.00  0.00    +0.000 C 
ENDROOT
TORSDOF 0
ENDMDL
MODEL 5
REMARK VINA RESULT:      -6.8      1.981      2.654
REMARK  Name = 
REMARK  1 active torsions:
REMARK  status: ('A' for Active; 'I' for Inactive)
REMARK    1  A    between atoms: C_1  and  C_2
REMARK                            x       y       z     vdW  Elec       q    Type
REMARK                         _______ _______ _______ _____ _____    ______ ____
ROOT
ATOM      1  C   UNL     1       3.692   2.512  20.784  0.00  0.00    +0.000 C 
ATOM      2  C   UNL     1       3.266   3.889  20.253  0.00  0.00    +0.000 C 
ATOM      3  C   UNL     1       1.745   4.055  20.314  0.00  0.00    +0.000 C 
ATOM      4  C   UNL     1       1.083   3.243  19.218  0.00  0.00    +0.000 C 
ATOM      5  C   UNL     1       1.557   3.740  17.870  0.00  0.00    +0.000 C 
ATOM      6  C   UNL     1       3.054   3.979  17.756  0.00  0.00    +0.000 A 
ATOM      7  N   UNL     1       3.526   4.106  16.551  0.00  0.00    +0.000 NA
ATOM      8  C   UNL     1       4.850   4.380  16.455  0.00  0.00    +0.000 A 
ATOM      9  C   UNL     1       5.689   4.534  17.474  0.00  0.00    +0.000 A 
ATOM     10  C   UNL     1       5.173   4.411  18.833  0.00  0.00    +0.000 A 
ATOM     11  O   UNL     1       5.926   4.546  19.792  0.00  0.00    +0.000 OA
ATOM     12  N   UNL     1       3.809   4.129  18.909  0.00  0.00    +0.000 N 
ATOM     13  C   UNL     1       7.085   4.785  17.055  0.00  0.00    +0.000 C 
ATOM     14  C   UNL     1       7.024   4.415  15.567  0.00  0.00    +0.000 C 
ATOM     15  C   UNL     1       5.555   4.548  15.149  0.00  0.00    +0.000 C 
ENDROOT
TORSDOF 0
ENDMDL
MODEL 6
REMARK VINA RESULT:      -6.8      1.642      5.082
REMARK  Name = 
REMARK  1 active torsions:
REMARK  status: ('A' for Active; 'I' for Inactive)
REMARK    1  A    between atoms: C_1  and  C_2
REMARK                            x       y       z     vdW  Elec       q    Type
REMARK                         _______ _______ _______ _____ _____    ______ ____
ROOT
ATOM      1  C   UNL     1       6.928   5.404  19.222  0.00  0.00    +0.000 C 
ATOM      2  C   UNL     1       6.017   4.855  18.112  0.00  0.00    +0.000 C 
ATOM      3  C   UNL     1       6.080   5.737  16.863  0.00  0.00    +0.000 C 
ATOM      4  C   UNL     1       5.310   7.024  17.088  0.00  0.00    +0.000 C 
ATOM      5  C   UNL     1       3.858   6.698  17.361  0.00  0.00    +0.000 C 
ATOM      6  C   UNL     1       3.621   5.561  18.342  0.00  0.00    +0.000 A 
ATOM      7  N   UNL     1       2.419   5.460  18.827  0.00  0.00    +0.000 NA
ATOM      8  C   UNL     1       2.195   4.409  19.653  0.00  0.00    +0.000 A 
ATOM      9  C   UNL     1       3.087   3.486  19.997  0.00  0.00    +0.000 A 
ATOM     10  C   UNL     1       4.436   3.574  19.450  0.00  0.00    +0.000 A 
ATOM     11  O   UNL     1       5.280   2.736  19.753  0.00  0.00    +0.000 OA
ATOM     12  N   UNL     1       4.645   4.662  18.602  0.00  0.00    +0.000 N 
ATOM     13  C   UNL     1       2.560   2.484  20.950  0.00  0.00    +0.000 C 
ATOM     14  C   UNL     1       1.260   3.158  21.408  0.00  0.00    +0.000 C 
ATOM     15  C   UNL     1       0.875   4.150  20.303  0.00  0.00    +0.000 C 
ENDROOT
TORSDOF 0
ENDMDL
MODEL 7
REMARK VINA RESULT:      -6.8      1.889      5.129
REMARK  Name = 
REMARK  1 active torsions:
REMARK  status: ('A' for Active; 'I' for Inactive)
REMARK    1  A    between atoms: C_1  and  C_2
REMARK                            x       y       z     vdW  Elec       q    Type
REMARK                         _______ _______ _______ _____ _____    ______ ____
ROOT
ATOM      1  C   UNL     1       6.427   4.218  17.224  0.00  0.00    +0.000 C 
ATOM      2  C   UNL     1       5.094   4.570  16.544  0.00  0.00    +0.000 C 
ATOM      3  C   UNL     1       5.203   5.884  15.768  0.00  0.00    +0.000 C 
ATOM      4  C   UNL     1       5.216   7.061  16.725  0.00  0.00    +0.000 C 
ATOM      5  C   UNL     1       3.922   7.083  17.509  0.00  0.00    +0.000 C 
ATOM      6  C   UNL     1       3.474   5.739  18.059  0.00  0.00    +0.000 A 
ATOM      7  N   UNL     1       2.553   5.770  18.978  0.00  0.00    +0.000 NA
ATOM      8  C   UNL     1       2.111   4.568  19.421  0.00  0.00    +0.000 A 
ATOM      9  C   UNL     1       2.530   3.381  18.997  0.00  0.00    +0.000 A 
ATOM     10  C   UNL     1       3.550   3.326  17.957  0.00  0.00    +0.000 A 
ATOM     11  O   UNL     1       3.957   2.242  17.549  0.00  0.00    +0.000 OA
ATOM     12  N   UNL     1       3.990   4.573  17.514  0.00  0.00    +0.000 N 
ATOM     13  C   UNL     1       1.893   2.246  19.701  0.00  0.00    +0.000 C 
ATOM     14  C   UNL     1       1.242   2.959  20.894  0.00  0.00    +0.000 C 
ATOM     15  C   UNL     1       1.066   4.425  20.478  0.00  0.00    +0.000 C 
ENDROOT
TORSDOF 0
ENDMDL
MODEL 8
REMARK VINA RESULT:      -6.7      2.034      5.017
REMARK  Name = 
REMARK  1 active torsions:
REMARK  status: ('A' for Active; 'I' for Inactive)
REMARK    1  A    between atoms: C_1  and  C_2
REMARK                            x       y       z     vdW  Elec       q    Type
REMARK                         _______ _______ _______ _____ _____    ______ ____
ROOT
ATOM      1  C   UNL     1       7.082   6.422  17.788  0.00  0.00    +0.000 C 
ATOM      2  C   UNL     1       6.912   4.915  17.542  0.00  0.00    +0.000 C 
ATOM      3  C   UNL     1       7.472   4.515  16.175  0.00  0.00    +0.000 C 
ATOM      4  C   UNL     1       6.537   4.970  15.070  0.00  0.00    +0.000 C 
ATOM      5  C   UNL     1       5.193   4.297  15.243  0.00  0.00    +0.000 C 
ATOM      6  C   UNL     1       4.648   4.291  16.662  0.00  0.00    +0.000 A 
ATOM      7  N   UNL     1       3.386   4.005  16.793  0.00  0.00    +0.000 NA
ATOM      8  C   UNL     1       2.918   3.940  18.063  0.00  0.00    +0.000 A 
ATOM      9  C   UNL     1       3.632   4.135  19.167  0.00  0.00    +0.000 A 
ATOM     10  C   UNL     1       5.052   4.441  19.039  0.00  0.00    +0.000 A 
ATOM     11  O   UNL     1       5.734   4.628  20.042  0.00  0.00    +0.000 OA
ATOM     12  N   UNL     1       5.514   4.503  17.725  0.00  0.00    +0.000 N 
ATOM     13  C   UNL     1       2.834   4.040  20.409  0.00  0.00    +0.000 C 
ATOM     14  C   UNL     1       1.404   4.088  19.853  0.00  0.00    +0.000 C 
ATOM     15  C   UNL     1       1.493   3.632  18.391  0.00  0.00    +0.000 C 
ENDROOT
TORSDOF 0
ENDMDL
MODEL 9
REMARK VINA RESULT:      -6.7      1.619      2.912
REMARK  Name = 
REMARK  1 active torsions:
REMARK  status: ('A' for Active; 'I' for Inactive)
REMARK    1  A    between atoms: C_1  and  C_2
REMARK                            x       y       z     vdW  Elec       q    Type
REMARK                         _______ _______ _______ _____ _____    ______ ____
ROOT
ATOM      1  C   UNL     1       3.488   1.600  19.348  0.00  0.00    +0.000 C 
ATOM      2  C   UNL     1       3.581   2.737  20.377  0.00  0.00    +0.000 C 
ATOM      3  C   UNL     1       2.518   2.580  21.467  0.00  0.00    +0.000 C 
ATOM      4  C   UNL     1       1.151   2.955  20.927  0.00  0.00    +0.000 C 
ATOM      5  C   UNL     1       1.165   4.403  20.490  0.00  0.00    +0.000 C 
ATOM      6  C   UNL     1       2.378   4.823  19.675  0.00  0.00    +0.000 A 
ATOM      7  N   UNL     1       2.279   5.950  19.034  0.00  0.00    +0.000 NA
ATOM      8  C   UNL     1       3.383   6.352  18.359  0.00  0.00    +0.000 A 
ATOM      9  C   UNL     1       4.542   5.703  18.306  0.00  0.00    +0.000 A 
ATOM     10  C   UNL     1       4.676   4.446  19.032  0.00  0.00    +0.000 A 
ATOM     11  O   UNL     1       5.734   3.824  18.997  0.00  0.00    +0.000 OA
ATOM     12  N   UNL     1       3.529   4.051  19.720  0.00  0.00    +0.000 N 
ATOM     13  C   UNL     1       5.551   6.368  17.453  0.00  0.00    +0.000 C 
ATOM     14  C   UNL     1       4.685   7.388  16.701  0.00  0.00    +0.000 C 
ATOM     15  C   UNL     1       3.437   7.616  17.564  0.00  0.00    +0.000 C 
ENDROOT
TORSDOF 0
ENDMDL
