MODEL 1
REMARK VINA RESULT:      -8.4      0.000      0.000
REMARK  Name = 
REMARK  4 active torsions:
REMARK  status: ('A' for Active; 'I' for Inactive)
REMARK    1  A    between atoms: C_2  and  C_5
REMARK    2  A    between atoms: N_13  and  C_14
REMARK    3  A    between atoms: C_14  and  C_15
REMARK    4  A    between atoms: N_18  and  C_19
REMARK                            x       y       z     vdW  Elec       q    Type
REMARK                         _______ _______ _______ _____ _____    ______ ____
ROOT
ATOM      1  C   UNL     1       3.545   4.359  18.011  0.00  0.00    +0.000 A 
ATOM      2  C   UNL     1       4.796   4.366  17.449  0.00  0.00    +0.000 A 
ATOM      3  C   UNL     1       5.193   3.803  16.238  0.00  0.00    +0.000 A 
ATOM      4  N   UNL     1       6.521   3.971  15.946  0.00  0.00    +0.000 NA
ATOM      5  C   UNL     1       7.356   4.652  16.815  0.00  0.00    +0.000 A 
ATOM      6  C   UNL     1       7.025   5.244  18.041  0.00  0.00    +0.000 A 
ATOM      7  C   UNL     1       5.669   5.074  18.340  0.00  0.00    +0.000 A 
ATOM      8  N   UNL     1       4.964   5.495  19.402  0.00  0.00    +0.000 NA
ATOM      9  N   UNL     1       3.696   5.050  19.191  0.00  0.00    +0.000 N 
ENDROOT
BRANCH   1  11
ATOM     10  F   UNL     1       1.747   2.918  18.479  0.00  0.00    +0.000 F 
ATOM     11  C   UNL     1       2.256   3.798  17.581  0.00  0.00    +0.000 C 
ATOM     12  F   UNL     1       2.374   3.128  16.408  0.00  0.00    +0.000 F 
ATOM     13  F   UNL     1       1.320   4.758  17.404  0.00  0.00    +0.000 F 
ENDBRANCH   1  11
BRANCH   9  14
ATOM     14  C   UNL     1       2.666   5.417  20.163  0.00  0.00    +0.000 C 
BRANCH  14  15
ATOM     15  C   UNL     1       2.209   6.825  19.976  0.00  0.00    +0.000 A 
ATOM     16  C   UNL     1       2.287   7.616  18.812  0.00  0.00    +0.000 A 
ATOM     17  C   UNL     1       1.667   8.796  19.141  0.00  0.00    +0.000 A 
ATOM     18  N   UNL     1       1.237   8.682  20.446  0.00  0.00    +0.000 N 
ATOM     19  N   UNL     1       1.588   7.475  20.970  0.00  0.00    +0.000 NA
BRANCH  18  20
ATOM     20  C   UNL     1       0.504   9.633  21.211  0.00  0.00    +0.000 A 
ATOM     21  C   UNL     1      -0.150   9.261  22.394  0.00  0.00    +0.000 A 
ATOM     22  C   UNL     1      -0.858  10.213  23.134  0.00  0.00    +0.000 A 
ATOM     23  C   UNL     1      -0.926  11.534  22.696  0.00  0.00    +0.000 A 
ATOM     24  C   UNL     1      -0.279  11.911  21.522  0.00  0.00    +0.000 A 
ATOM     25  C   UNL     1       0.440  10.967  20.782  0.00  0.00    +0.000 A 
ENDBRANCH  18  20
ENDBRANCH  14  15
ENDBRANCH   9  14
TORSDOF 4
ENDMDL
MODEL 2
REMARK VINA RESULT:      -8.4      0.050      1.233
REMARK  Name = 
REMARK  4 active torsions:
REMARK  status: ('A' for Active; 'I' for Inactive)
REMARK    1  A    between atoms: C_2  and  C_5
REMARK    2  A    between atoms: N_13  and  C_14
REMARK    3  A    between atoms: C_14  and  C_15
REMARK    4  A    between atoms: N_18  and  C_19
REMARK                            x       y       z     vdW  Elec       q    Type
REMARK                         _______ _______ _______ _____ _____    ______ ____
ROOT
ATOM      1  C   UNL     1       3.527   4.376  18.038  0.00  0.00    +0.000 A 
ATOM      2  C   UNL     1       4.781   4.372  17.482  0.00  0.00    +0.000 A 
ATOM      3  C   UNL     1       5.180   3.803  16.276  0.00  0.00    +0.000 A 
ATOM      4  N   UNL     1       6.511   3.960  15.990  0.00  0.00    +0.000 NA
ATOM      5  C   UNL     1       7.346   4.638  16.861  0.00  0.00    +0.000 A 
ATOM      6  C   UNL     1       7.013   5.237  18.083  0.00  0.00    +0.000 A 
ATOM      7  C   UNL     1       5.654   5.078  18.376  0.00  0.00    +0.000 A 
ATOM      8  N   UNL     1       4.947   5.507  19.432  0.00  0.00    +0.000 NA
ATOM      9  N   UNL     1       3.676   5.070  19.216  0.00  0.00    +0.000 N 
ENDROOT
BRANCH   1  11
ATOM     10  F   UNL     1       1.311   4.786  17.368  0.00  0.00    +0.000 F 
ATOM     11  C   UNL     1       2.236   3.823  17.603  0.00  0.00    +0.000 C 
ATOM     12  F   UNL     1       1.708   3.001  18.543  0.00  0.00    +0.000 F 
ATOM     13  F   UNL     1       2.352   3.108  16.461  0.00  0.00    +0.000 F 
ENDBRANCH   1  11
BRANCH   9  14
ATOM     14  C   UNL     1       2.644   5.448  20.182  0.00  0.00    +0.000 C 
BRANCH  14  15
ATOM     15  C   UNL     1       2.193   6.856  19.984  0.00  0.00    +0.000 A 
ATOM     16  C   UNL     1       2.275   7.638  18.813  0.00  0.00    +0.000 A 
ATOM     17  C   UNL     1       1.660   8.823  19.134  0.00  0.00    +0.000 A 
ATOM     18  N   UNL     1       1.231   8.722  20.440  0.00  0.00    +0.000 N 
ATOM     19  N   UNL     1       1.577   7.517  20.973  0.00  0.00    +0.000 NA
BRANCH  18  20
ATOM     20  C   UNL     1       0.503   9.683  21.198  0.00  0.00    +0.000 A 
ATOM     21  C   UNL     1       0.380  11.009  20.759  0.00  0.00    +0.000 A 
ATOM     22  C   UNL     1      -0.345  11.934  21.515  0.00  0.00    +0.000 A 
ATOM     23  C   UNL     1      -0.943  11.547  22.712  0.00  0.00    +0.000 A 
ATOM     24  C   UNL     1      -0.826  10.232  23.154  0.00  0.00    +0.000 A 
ATOM     25  C   UNL     1      -0.111   9.298  22.399  0.00  0.00    +0.000 A 
ENDBRANCH  18  20
ENDBRANCH  14  15
ENDBRANCH   9  14
TORSDOF 4
ENDMDL
MODEL 3
REMARK VINA RESULT:      -8.2      4.377      6.700
REMARK  Name = 
REMARK  4 active torsions:
REMARK  status: ('A' for Active; 'I' for Inactive)
REMARK    1  A    between atoms: C_2  and  C_5
REMARK    2  A    between atoms: N_13  and  C_14
REMARK    3  A    between atoms: C_14  and  C_15
REMARK    4  A    between atoms: N_18  and  C_19
REMARK                            x       y       z     vdW  Elec       q    Type
REMARK                         _______ _______ _______ _____ _____    ______ ____
ROOT
ATOM      1  C   UNL     1       5.688   4.628  17.458  0.00  0.00    +0.000 A 
ATOM      2  C   UNL     1       4.411   4.365  17.884  0.00  0.00    +0.000 A 
ATOM      3  C   UNL     1       3.389   3.731  17.182  0.00  0.00    +0.000 A 
ATOM      4  N   UNL     1       2.213   3.617  17.877  0.00  0.00    +0.000 NA
ATOM      5  C   UNL     1       2.103   4.107  19.167  0.00  0.00    +0.000 A 
ATOM      6  C   UNL     1       3.086   4.748  19.931  0.00  0.00    +0.000 A 
ATOM      7  C   UNL     1       4.288   4.864  19.223  0.00  0.00    +0.000 A 
ATOM      8  N   UNL     1       5.458   5.401  19.601  0.00  0.00    +0.000 NA
ATOM      9  N   UNL     1       6.282   5.258  18.527  0.00  0.00    +0.000 N 
ENDROOT
BRANCH   1  11
ATOM     10  F   UNL     1       5.995   3.211  15.608  0.00  0.00    +0.000 F 
ATOM     11  C   UNL     1       6.400   4.363  16.199  0.00  0.00    +0.000 C 
ATOM     12  F   UNL     1       7.735   4.246  16.401  0.00  0.00    +0.000 F 
ATOM     13  F   UNL     1       6.213   5.351  15.295  0.00  0.00    +0.000 F 
ENDBRANCH   1  11
BRANCH   9  14
ATOM     14  C   UNL     1       7.671   5.696  18.661  0.00  0.00    +0.000 C 
BRANCH  14  15
ATOM     15  C   UNL     1       7.833   7.134  18.300  0.00  0.00    +0.000 A 
ATOM     16  C   UNL     1       7.103   7.879  17.350  0.00  0.00    +0.000 A 
ATOM     17  C   UNL     1       7.587   9.159  17.454  0.00  0.00    +0.000 A 
ATOM     18  N   UNL     1       8.554   9.153  18.436  0.00  0.00    +0.000 N 
ATOM     19  N   UNL     1       8.722   7.901  18.945  0.00  0.00    +0.000 NA
BRANCH  18  20
ATOM     20  C   UNL     1       9.307  10.257  18.929  0.00  0.00    +0.000 A 
ATOM     21  C   UNL     1       9.314  10.577  20.294  0.00  0.00    +0.000 A 
ATOM     22  C   UNL     1      10.066  11.661  20.757  0.00  0.00    +0.000 A 
ATOM     23  C   UNL     1      10.806  12.435  19.865  0.00  0.00    +0.000 A 
ATOM     24  C   UNL     1      10.804  12.122  18.507  0.00  0.00    +0.000 A 
ATOM     25  C   UNL     1      10.063  11.034  18.037  0.00  0.00    +0.000 A 
ENDBRANCH  18  20
ENDBRANCH  14  15
ENDBRANCH   9  14
TORSDOF 4
ENDMDL
MODEL 4
REMARK VINA RESULT:      -8.2      2.767      3.990
REMARK  Name = 
REMARK  4 active torsions:
REMARK  status: ('A' for Active; 'I' for Inactive)
REMARK    1  A    between atoms: C_2  and  C_5
REMARK    2  A    between atoms: N_13  and  C_14
REMARK    3  A    between atoms: C_14  and  C_15
REMARK    4  A    between atoms: N_18  and  C_19
REMARK                            x       y       z     vdW  Elec       q    Type
REMARK                         _______ _______ _______ _____ _____    ______ ____
ROOT
ATOM      1  C   UNL     1       6.609   4.897  17.666  0.00  0.00    +0.000 A 
ATOM      2  C   UNL     1       6.690   4.847  16.298  0.00  0.00    +0.000 A 
ATOM      3  C   UNL     1       7.666   5.409  15.478  0.00  0.00    +0.000 A 
ATOM      4  N   UNL     1       7.472   5.192  14.139  0.00  0.00    +0.000 NA
ATOM      5  C   UNL     1       6.382   4.466  13.690  0.00  0.00    +0.000 A 
ATOM      6  C   UNL     1       5.371   3.871  14.455  0.00  0.00    +0.000 A 
ATOM      7  C   UNL     1       5.567   4.092  15.823  0.00  0.00    +0.000 A 
ATOM      8  N   UNL     1       4.836   3.686  16.872  0.00  0.00    +0.000 NA
ATOM      9  N   UNL     1       5.471   4.185  17.967  0.00  0.00    +0.000 N 
ENDROOT
BRANCH   1  11
ATOM     10  F   UNL     1       6.781   5.731  19.858  0.00  0.00    +0.000 F 
ATOM     11  C   UNL     1       7.453   5.516  18.699  0.00  0.00    +0.000 C 
ATOM     12  F   UNL     1       7.924   6.722  18.296  0.00  0.00    +0.000 F 
ATOM     13  F   UNL     1       8.522   4.747  19.005  0.00  0.00    +0.000 F 
ENDBRANCH   1  11
BRANCH   9  14
ATOM     14  C   UNL     1       4.938   3.847  19.287  0.00  0.00    +0.000 C 
BRANCH  14  15
ATOM     15  C   UNL     1       3.733   4.661  19.619  0.00  0.00    +0.000 A 
ATOM     16  C   UNL     1       2.672   4.330  20.487  0.00  0.00    +0.000 A 
ATOM     17  C   UNL     1       1.862   5.439  20.499  0.00  0.00    +0.000 A 
ATOM     18  N   UNL     1       2.444   6.379  19.676  0.00  0.00    +0.000 N 
ATOM     19  N   UNL     1       3.587   5.894  19.116  0.00  0.00    +0.000 NA
BRANCH  18  20
ATOM     20  C   UNL     1       1.994   7.704  19.407  0.00  0.00    +0.000 A 
ATOM     21  C   UNL     1       1.333   8.456  20.388  0.00  0.00    +0.000 A 
ATOM     22  C   UNL     1       0.906   9.757  20.105  0.00  0.00    +0.000 A 
ATOM     23  C   UNL     1       1.128  10.311  18.846  0.00  0.00    +0.000 A 
ATOM     24  C   UNL     1       1.786   9.570  17.867  0.00  0.00    +0.000 A 
ATOM     25  C   UNL     1       2.225   8.271  18.145  0.00  0.00    +0.000 A 
ENDBRANCH  18  20
ENDBRANCH  14  15
ENDBRANCH   9  14
TORSDOF 4
ENDMDL
MODEL 5
REMARK VINA RESULT:      -8.1      4.369      6.770
REMARK  Name = 
REMARK  4 active torsions:
REMARK  status: ('A' for Active; 'I' for Inactive)
REMARK    1  A    between atoms: C_2  and  C_5
REMARK    2  A    between atoms: N_13  and  C_14
REMARK    3  A    between atoms: C_14  and  C_15
REMARK    4  A    between atoms: N_18  and  C_19
REMARK                            x       y       z     vdW  Elec       q    Type
REMARK                         _______ _______ _______ _____ _____    ______ ____
ROOT
ATOM      1  C   UNL     1       5.652   4.619  17.429  0.00  0.00    +0.000 A 
ATOM      2  C   UNL     1       4.371   4.366  17.851  0.00  0.00    +0.000 A 
ATOM      3  C   UNL     1       3.343   3.750  17.141  0.00  0.00    +0.000 A 
ATOM      4  N   UNL     1       2.165   3.643  17.833  0.00  0.00    +0.000 NA
ATOM      5  C   UNL     1       2.058   4.121  19.127  0.00  0.00    +0.000 A 
ATOM      6  C   UNL     1       3.048   4.744  19.899  0.00  0.00    +0.000 A 
ATOM      7  C   UNL     1       4.252   4.854  19.195  0.00  0.00    +0.000 A 
ATOM      8  N   UNL     1       5.427   5.374  19.579  0.00  0.00    +0.000 NA
ATOM      9  N   UNL     1       6.251   5.232  18.505  0.00  0.00    +0.000 N 
ENDROOT
BRANCH   1  11
ATOM     10  F   UNL     1       6.118   5.306  15.230  0.00  0.00    +0.000 F 
ATOM     11  C   UNL     1       6.362   4.358  16.169  0.00  0.00    +0.000 C 
ATOM     12  F   UNL     1       5.990   3.172  15.628  0.00  0.00    +0.000 F 
ATOM     13  F   UNL     1       7.703   4.319  16.343  0.00  0.00    +0.000 F 
ENDBRANCH   1  11
BRANCH   9  14
ATOM     14  C   UNL     1       7.645   5.653  18.646  0.00  0.00    +0.000 C 
BRANCH  14  15
ATOM     15  C   UNL     1       7.821   7.096  18.308  0.00  0.00    +0.000 A 
ATOM     16  C   UNL     1       7.094   7.865  17.377  0.00  0.00    +0.000 A 
ATOM     17  C   UNL     1       7.594   9.138  17.499  0.00  0.00    +0.000 A 
ATOM     18  N   UNL     1       8.567   9.103  18.475  0.00  0.00    +0.000 N 
ATOM     19  N   UNL     1       8.724   7.840  18.960  0.00  0.00    +0.000 NA
BRANCH  18  20
ATOM     20  C   UNL     1       9.337  10.189  18.982  0.00  0.00    +0.000 A 
ATOM     21  C   UNL     1      10.209  10.908  18.152  0.00  0.00    +0.000 A 
ATOM     22  C   UNL     1      10.949  11.975  18.668  0.00  0.00    +0.000 A 
ATOM     23  C   UNL     1      10.831  12.327  20.011  0.00  0.00    +0.000 A 
ATOM     24  C   UNL     1       9.966  11.619  20.841  0.00  0.00    +0.000 A 
ATOM     25  C   UNL     1       9.214  10.556  20.330  0.00  0.00    +0.000 A 
ENDBRANCH  18  20
ENDBRANCH  14  15
ENDBRANCH   9  14
TORSDOF 4
ENDMDL
MODEL 6
REMARK VINA RESULT:      -7.9      2.270      7.988
REMARK  Name = 
REMARK  4 active torsions:
REMARK  status: ('A' for Active; 'I' for Inactive)
REMARK    1  A    between atoms: C_2  and  C_5
REMARK    2  A    between atoms: N_13  and  C_14
REMARK    3  A    between atoms: C_14  and  C_15
REMARK    4  A    between atoms: N_18  and  C_19
REMARK                            x       y       z     vdW  Elec       q    Type
REMARK                         _______ _______ _______ _____ _____    ______ ____
ROOT
ATOM      1  C   UNL     1       2.321   5.146  19.982  0.00  0.00    +0.000 A 
ATOM      2  C   UNL     1       1.955   6.468  20.011  0.00  0.00    +0.000 A 
ATOM      3  C   UNL     1       1.294   7.151  21.029  0.00  0.00    +0.000 A 
ATOM      4  N   UNL     1       1.060   8.475  20.762  0.00  0.00    +0.000 NA
ATOM      5  C   UNL     1       1.469   9.038  19.565  0.00  0.00    +0.000 A 
ATOM      6  C   UNL     1       2.139   8.414  18.505  0.00  0.00    +0.000 A 
ATOM      7  C   UNL     1       2.379   7.063  18.776  0.00  0.00    +0.000 A 
ATOM      8  N   UNL     1       2.995   6.133  18.030  0.00  0.00    +0.000 NA
ATOM      9  N   UNL     1       2.943   4.990  18.765  0.00  0.00    +0.000 N 
ENDROOT
BRANCH   1  11
ATOM     10  F   UNL     1       0.879   3.616  21.034  0.00  0.00    +0.000 F 
ATOM     11  C   UNL     1       2.163   4.042  20.940  0.00  0.00    +0.000 C 
ATOM     12  F   UNL     1       2.540   4.412  22.189  0.00  0.00    +0.000 F 
ATOM     13  F   UNL     1       2.907   2.965  20.597  0.00  0.00    +0.000 F 
ENDBRANCH   1  11
BRANCH   9  14
ATOM     14  C   UNL     1       3.603   3.797  18.233  0.00  0.00    +0.000 C 
BRANCH  14  15
ATOM     15  C   UNL     1       4.843   4.144  17.480  0.00  0.00    +0.000 A 
ATOM     16  C   UNL     1       6.113   4.469  17.999  0.00  0.00    +0.000 A 
ATOM     17  C   UNL     1       6.917   4.631  16.897  0.00  0.00    +0.000 A 
ATOM     18  N   UNL     1       6.138   4.396  15.784  0.00  0.00    +0.000 N 
ATOM     19  N   UNL     1       4.853   4.117  16.140  0.00  0.00    +0.000 NA
BRANCH  18  20
ATOM     20  C   UNL     1       6.541   4.404  14.418  0.00  0.00    +0.000 A 
ATOM     21  C   UNL     1       7.525   5.290  13.959  0.00  0.00    +0.000 A 
ATOM     22  C   UNL     1       7.910   5.275  12.615  0.00  0.00    +0.000 A 
ATOM     23  C   UNL     1       7.314   4.385  11.723  0.00  0.00    +0.000 A 
ATOM     24  C   UNL     1       6.337   3.501  12.173  0.00  0.00    +0.000 A 
ATOM     25  C   UNL     1       5.953   3.503  13.517  0.00  0.00    +0.000 A 
ENDBRANCH  18  20
ENDBRANCH  14  15
ENDBRANCH   9  14
TORSDOF 4
ENDMDL
MODEL 7
REMARK VINA RESULT:      -7.8      0.996      1.341
REMARK  Name = 
REMARK  4 active torsions:
REMARK  status: ('A' for Active; 'I' for Inactive)
REMARK    1  A    between atoms: C_2  and  C_5
REMARK    2  A    between atoms: N_13  and  C_14
REMARK    3  A    between atoms: C_14  and  C_15
REMARK    4  A    between atoms: N_18  and  C_19
REMARK                            x       y       z     vdW  Elec       q    Type
REMARK                         _______ _______ _______ _____ _____    ______ ____
ROOT
ATOM      1  C   UNL     1       3.538   4.592  17.823  0.00  0.00    +0.000 A 
ATOM      2  C   UNL     1       4.716   4.489  17.127  0.00  0.00    +0.000 A 
ATOM      3  C   UNL     1       5.011   3.639  16.064  0.00  0.00    +0.000 A 
ATOM      4  N   UNL     1       6.285   3.766  15.576  0.00  0.00    +0.000 NA
ATOM      5  C   UNL     1       7.167   4.679  16.129  0.00  0.00    +0.000 A 
ATOM      6  C   UNL     1       6.936   5.564  17.190  0.00  0.00    +0.000 A 
ATOM      7  C   UNL     1       5.635   5.437  17.689  0.00  0.00    +0.000 A 
ATOM      8  N   UNL     1       5.028   6.101  18.684  0.00  0.00    +0.000 NA
ATOM      9  N   UNL     1       3.775   5.575  18.755  0.00  0.00    +0.000 N 
ENDROOT
BRANCH   1  11
ATOM     10  F   UNL     1       1.873   3.316  18.884  0.00  0.00    +0.000 F 
ATOM     11  C   UNL     1       2.247   3.895  17.716  0.00  0.00    +0.000 C 
ATOM     12  F   UNL     1       2.294   2.905  16.791  0.00  0.00    +0.000 F 
ATOM     13  F   UNL     1       1.248   4.734  17.359  0.00  0.00    +0.000 F 
ENDBRANCH   1  11
BRANCH   9  14
ATOM     14  C   UNL     1       2.838   6.153  19.718  0.00  0.00    +0.000 C 
BRANCH  14  15
ATOM     15  C   UNL     1       2.300   7.462  19.246  0.00  0.00    +0.000 A 
ATOM     16  C   UNL     1       2.401   8.030  17.959  0.00  0.00    +0.000 A 
ATOM     17  C   UNL     1       1.682   9.198  18.028  0.00  0.00    +0.000 A 
ATOM     18  N   UNL     1       1.177   9.292  19.307  0.00  0.00    +0.000 N 
ATOM     19  N   UNL     1       1.575   8.234  20.066  0.00  0.00    +0.000 NA
BRANCH  18  20
ATOM     20  C   UNL     1       0.333  10.308  19.840  0.00  0.00    +0.000 A 
ATOM     21  C   UNL     1      -0.852  10.679  19.190  0.00  0.00    +0.000 A 
ATOM     22  C   UNL     1      -1.670  11.673  19.736  0.00  0.00    +0.000 A 
ATOM     23  C   UNL     1      -1.308  12.307  20.923  0.00  0.00    +0.000 A 
ATOM     24  C   UNL     1      -0.133  11.943  21.574  0.00  0.00    +0.000 A 
ATOM     25  C   UNL     1       0.686  10.943  21.041  0.00  0.00    +0.000 A 
ENDBRANCH  18  20
ENDBRANCH  14  15
ENDBRANCH   9  14
TORSDOF 4
ENDMDL
MODEL 8
REMARK VINA RESULT:      -7.8      1.103      1.535
REMARK  Name = 
REMARK  4 active torsions:
REMARK  status: ('A' for Active; 'I' for Inactive)
REMARK    1  A    between atoms: C_2  and  C_5
REMARK    2  A    between atoms: N_13  and  C_14
REMARK    3  A    between atoms: C_14  and  C_15
REMARK    4  A    between atoms: N_18  and  C_19
REMARK                            x       y       z     vdW  Elec       q    Type
REMARK                         _______ _______ _______ _____ _____    ______ ____
ROOT
ATOM      1  C   UNL     1       3.523   4.626  17.799  0.00  0.00    +0.000 A 
ATOM      2  C   UNL     1       4.701   4.523  17.104  0.00  0.00    +0.000 A 
ATOM      3  C   UNL     1       4.999   3.666  16.047  0.00  0.00    +0.000 A 
ATOM      4  N   UNL     1       6.272   3.794  15.558  0.00  0.00    +0.000 NA
ATOM      5  C   UNL     1       7.150   4.716  16.102  0.00  0.00    +0.000 A 
ATOM      6  C   UNL     1       6.916   5.608  17.157  0.00  0.00    +0.000 A 
ATOM      7  C   UNL     1       5.616   5.479  17.657  0.00  0.00    +0.000 A 
ATOM      8  N   UNL     1       5.007   6.148  18.647  0.00  0.00    +0.000 NA
ATOM      9  N   UNL     1       3.756   5.618  18.723  0.00  0.00    +0.000 N 
ENDROOT
BRANCH   1  11
ATOM     10  F   UNL     1       1.227   4.741  17.305  0.00  0.00    +0.000 F 
ATOM     11  C   UNL     1       2.235   3.923  17.698  0.00  0.00    +0.000 C 
ATOM     12  F   UNL     1       1.864   3.397  18.892  0.00  0.00    +0.000 F 
ATOM     13  F   UNL     1       2.282   2.907  16.808  0.00  0.00    +0.000 F 
ENDBRANCH   1  11
BRANCH   9  14
ATOM     14  C   UNL     1       2.817   6.199  19.682  0.00  0.00    +0.000 C 
BRANCH  14  15
ATOM     15  C   UNL     1       2.275   7.503  19.201  0.00  0.00    +0.000 A 
ATOM     16  C   UNL     1       2.328   8.038  17.897  0.00  0.00    +0.000 A 
ATOM     17  C   UNL     1       1.626   9.216  17.968  0.00  0.00    +0.000 A 
ATOM     18  N   UNL     1       1.176   9.348  19.264  0.00  0.00    +0.000 N 
ATOM     19  N   UNL     1       1.593   8.303  20.031  0.00  0.00    +0.000 NA
BRANCH  18  20
ATOM     20  C   UNL     1       0.367  10.386  19.807  0.00  0.00    +0.000 A 
ATOM     21  C   UNL     1       0.806  11.151  20.897  0.00  0.00    +0.000 A 
ATOM     22  C   UNL     1      -0.002  12.171  21.409  0.00  0.00    +0.000 A 
ATOM     23  C   UNL     1      -1.251  12.428  20.846  0.00  0.00    +0.000 A 
ATOM     24  C   UNL     1      -1.693  11.673  19.763  0.00  0.00    +0.000 A 
ATOM     25  C   UNL     1      -0.887  10.658  19.238  0.00  0.00    +0.000 A 
ENDBRANCH  18  20
ENDBRANCH  14  15
ENDBRANCH   9  14
TORSDOF 4
ENDMDL
MODEL 9
REMARK VINA RESULT:      -7.8      2.330      7.968
REMARK  Name = 
REMARK  4 active torsions:
REMARK  status: ('A' for Active; 'I' for Inactive)
REMARK    1  A    between atoms: C_2  and  C_5
REMARK    2  A    between atoms: N_13  and  C_14
REMARK    3  A    between atoms: C_14  and  C_15
REMARK    4  A    between atoms: N_18  and  C_19
REMARK                            x       y       z     vdW  Elec       q    Type
REMARK                         _______ _______ _______ _____ _____    ______ ____
ROOT
ATOM      1  C   UNL     1       2.495   4.843  20.068  0.00  0.00    +0.000 A 
ATOM      2  C   UNL     1       2.071   6.146  20.130  0.00  0.00    +0.000 A 
ATOM      3  C   UNL     1       1.348   6.764  21.147  0.00  0.00    +0.000 A 
ATOM      4  N   UNL     1       1.066   8.085  20.918  0.00  0.00    +0.000 NA
ATOM      5  C   UNL     1       1.488   8.707  19.756  0.00  0.00    +0.000 A 
ATOM      6  C   UNL     1       2.219   8.151  18.699  0.00  0.00    +0.000 A 
ATOM      7  C   UNL     1       2.509   6.802  18.931  0.00  0.00    +0.000 A 
ATOM      8  N   UNL     1       3.188   5.927  18.175  0.00  0.00    +0.000 NA
ATOM      9  N   UNL     1       3.162   4.756  18.868  0.00  0.00    +0.000 N 
ENDROOT
BRANCH   1  11
ATOM     10  F   UNL     1       1.184   3.037  20.807  0.00  0.00    +0.000 F 
ATOM     11  C   UNL     1       2.354   3.699  20.981  0.00  0.00    +0.000 C 
ATOM     12  F   UNL     1       2.385   4.094  22.278  0.00  0.00    +0.000 F 
ATOM     13  F   UNL     1       3.343   2.793  20.812  0.00  0.00    +0.000 F 
ENDBRANCH   1  11
BRANCH   9  14
ATOM     14  C   UNL     1       3.890   3.613  18.318  0.00  0.00    +0.000 C 
BRANCH  14  15
ATOM     15  C   UNL     1       5.065   4.046  17.508  0.00  0.00    +0.000 A 
ATOM     16  C   UNL     1       6.324   4.485  17.969  0.00  0.00    +0.000 A 
ATOM     17  C   UNL     1       7.066   4.691  16.832  0.00  0.00    +0.000 A 
ATOM     18  N   UNL     1       6.266   4.371  15.757  0.00  0.00    +0.000 N 
ATOM     19  N   UNL     1       5.024   3.993  16.170  0.00  0.00    +0.000 NA
BRANCH  18  20
ATOM     20  C   UNL     1       6.611   4.385  14.375  0.00  0.00    +0.000 A 
ATOM     21  C   UNL     1       6.006   3.503  13.469  0.00  0.00    +0.000 A 
ATOM     22  C   UNL     1       6.355   3.539  12.115  0.00  0.00    +0.000 A 
ATOM     23  C   UNL     1       7.311   4.445  11.660  0.00  0.00    +0.000 A 
ATOM     24  C   UNL     1       7.916   5.324  12.555  0.00  0.00    +0.000 A 
ATOM     25  C   UNL     1       7.565   5.302  13.908  0.00  0.00    +0.000 A 
ENDBRANCH  18  20
ENDBRANCH  14  15
ENDBRANCH   9  14
TORSDOF 4
ENDMDL
