MODEL 1
REMARK VINA RESULT:      -7.7      0.000      0.000
REMARK  Name = 
REMARK  5 active torsions:
REMARK  status: ('A' for Active; 'I' for Inactive)
REMARK    1  A    between atoms: C_1  and  C_2
REMARK    2  A    between atoms: C_2  and  C_3
REMARK    3  A    between atoms: C_3  and  O_4
REMARK    4  A    between atoms: O_4  and  C_5
REMARK    5  A    between atoms: C_15  and  N_16
REMARK                            x       y       z     vdW  Elec       q    Type
REMARK                         _______ _______ _______ _____ _____    ______ ____
ROOT
ATOM      1  C   UNL     1       7.855   6.343  18.576  0.00  0.00    +0.000 C 
ATOM      2  C   UNL     1       6.614   5.569  18.128  0.00  0.00    +0.000 C 
ATOM      3  C   UNL     1       5.789   6.383  17.083  0.00  0.00    +0.000 C 
ATOM      4  N   UNL     1       5.896   5.529  15.932  0.00  0.00    +0.000 N 
ATOM      5  C   UNL     1       5.487   5.504  14.655  0.00  0.00    +0.000 A 
ATOM      6  C   UNL     1       6.021   4.302  14.188  0.00  0.00    +0.000 A 
ATOM      7  N   UNL     1       6.729   3.625  15.184  0.00  0.00    +0.000 NA
ATOM      8  C   UNL     1       6.615   4.423  16.206  0.00  0.00    +0.000 A 
ATOM      9  O   UNL     1       7.072   4.348  17.444  0.00  0.00    +0.000 OA
ENDROOT
BRANCH   6  10
ATOM     10  N   UNL     1       5.899   3.760  12.852  0.00  0.00    +0.000 N 
ATOM     11  O   UNL     1       4.749   3.504  12.463  0.00  0.00    +0.000 OA
ATOM     12  O   UNL     1       6.935   3.591  12.196  0.00  0.00    +0.000 OA
ENDBRANCH   6  10
BRANCH   2  13
ATOM     13  C   UNL     1       5.715   5.162  19.311  0.00  0.00    +0.000 C 
BRANCH  13  14
ATOM     14  O   UNL     1       5.461   3.755  19.289  0.00  0.00    +0.000 OA
BRANCH  14  15
ATOM     15  C   UNL     1       4.150   3.373  19.200  0.00  0.00    +0.000 A 
ATOM     16  C   UNL     1       3.169   3.597  20.171  0.00  0.00    +0.000 A 
ATOM     17  C   UNL     1       1.857   3.172  19.953  0.00  0.00    +0.000 A 
ATOM     18  C   UNL     1       1.528   2.527  18.768  0.00  0.00    +0.000 A 
ATOM     19  F   UNL     1       0.269   2.117  18.567  0.00  0.00    +0.000 F 
ATOM     20  C   UNL     1       2.488   2.308  17.788  0.00  0.00    +0.000 A 
ATOM     21  C   UNL     1       3.797   2.739  18.003  0.00  0.00    +0.000 A 
ENDBRANCH  14  15
ENDBRANCH  13  14
ENDBRANCH   2  13
TORSDOF 4
ENDMDL
MODEL 2
REMARK VINA RESULT:      -7.7      0.229      1.270
REMARK  Name = 
REMARK  5 active torsions:
REMARK  status: ('A' for Active; 'I' for Inactive)
REMARK    1  A    between atoms: C_1  and  C_2
REMARK    2  A    between atoms: C_2  and  C_3
REMARK    3  A    between atoms: C_3  and  O_4
REMARK    4  A    between atoms: O_4  and  C_5
REMARK    5  A    between atoms: C_15  and  N_16
REMARK                            x       y       z     vdW  Elec       q    Type
REMARK                         _______ _______ _______ _____ _____    ______ ____
ROOT
ATOM      1  C   UNL     1       7.684   6.633  18.348  0.00  0.00    +0.000 C 
ATOM      2  C   UNL     1       6.562   5.657  17.993  0.00  0.00    +0.000 C 
ATOM      3  C   UNL     1       5.545   6.302  17.001  0.00  0.00    +0.000 C 
ATOM      4  N   UNL     1       5.715   5.455  15.852  0.00  0.00    +0.000 N 
ATOM      5  C   UNL     1       5.232   5.338  14.606  0.00  0.00    +0.000 A 
ATOM      6  C   UNL     1       5.927   4.233  14.113  0.00  0.00    +0.000 A 
ATOM      7  N   UNL     1       6.803   3.702  15.063  0.00  0.00    +0.000 NA
ATOM      8  C   UNL     1       6.626   4.489  16.084  0.00  0.00    +0.000 A 
ATOM      9  O   UNL     1       7.170   4.515  17.289  0.00  0.00    +0.000 OA
ENDROOT
BRANCH   6  10
ATOM     10  N   UNL     1       5.809   3.652  12.793  0.00  0.00    +0.000 N 
ATOM     11  O   UNL     1       6.871   3.378  12.214  0.00  0.00    +0.000 OA
ATOM     12  O   UNL     1       4.673   3.468  12.338  0.00  0.00    +0.000 OA
ENDBRANCH   6  10
BRANCH   2  13
ATOM     13  C   UNL     1       5.824   5.129  19.238  0.00  0.00    +0.000 C 
BRANCH  13  14
ATOM     14  O   UNL     1       5.577   3.725  19.120  0.00  0.00    +0.000 OA
BRANCH  14  15
ATOM     15  C   UNL     1       4.278   3.350  18.912  0.00  0.00    +0.000 A 
ATOM     16  C   UNL     1       3.774   2.776  17.740  0.00  0.00    +0.000 A 
ATOM     17  C   UNL     1       2.426   2.421  17.656  0.00  0.00    +0.000 A 
ATOM     18  C   UNL     1       1.587   2.638  18.741  0.00  0.00    +0.000 A 
ATOM     19  F   UNL     1       0.294   2.299  18.654  0.00  0.00    +0.000 F 
ATOM     20  C   UNL     1       2.075   3.195  19.917  0.00  0.00    +0.000 A 
ATOM     21  C   UNL     1       3.422   3.543  20.002  0.00  0.00    +0.000 A 
ENDBRANCH  14  15
ENDBRANCH  13  14
ENDBRANCH   2  13
TORSDOF 4
ENDMDL
MODEL 3
REMARK VINA RESULT:      -7.4      0.965      1.384
REMARK  Name = 
REMARK  5 active torsions:
REMARK  status: ('A' for Active; 'I' for Inactive)
REMARK    1  A    between atoms: C_1  and  C_2
REMARK    2  A    between atoms: C_2  and  C_3
REMARK    3  A    between atoms: C_3  and  O_4
REMARK    4  A    between atoms: O_4  and  C_5
REMARK    5  A    between atoms: C_15  and  N_16
REMARK                            x       y       z     vdW  Elec       q    Type
REMARK                         _______ _______ _______ _____ _____    ______ ____
ROOT
ATOM      1  C   UNL     1       7.825   6.327  18.741  0.00  0.00    +0.000 C 
ATOM      2  C   UNL     1       6.553   5.635  18.248  0.00  0.00    +0.000 C 
ATOM      3  C   UNL     1       5.823   6.498  17.173  0.00  0.00    +0.000 C 
ATOM      4  N   UNL     1       5.915   5.635  16.027  0.00  0.00    +0.000 N 
ATOM      5  C   UNL     1       5.552   5.632  14.736  0.00  0.00    +0.000 A 
ATOM      6  C   UNL     1       6.023   4.397  14.290  0.00  0.00    +0.000 A 
ATOM      7  N   UNL     1       6.648   3.678  15.311  0.00  0.00    +0.000 NA
ATOM      8  C   UNL     1       6.549   4.485  16.329  0.00  0.00    +0.000 A 
ATOM      9  O   UNL     1       6.955   4.384  17.583  0.00  0.00    +0.000 OA
ENDROOT
BRANCH   6  10
ATOM     10  N   UNL     1       5.915   3.859  12.951  0.00  0.00    +0.000 N 
ATOM     11  O   UNL     1       4.782   3.505  12.589  0.00  0.00    +0.000 OA
ATOM     12  O   UNL     1       6.943   3.791  12.267  0.00  0.00    +0.000 OA
ENDBRANCH   6  10
BRANCH   2  13
ATOM     13  C   UNL     1       5.586   5.292  19.398  0.00  0.00    +0.000 C 
BRANCH  13  14
ATOM     14  O   UNL     1       4.303   5.882  19.170  0.00  0.00    +0.000 OA
BRANCH  14  15
ATOM     15  C   UNL     1       3.246   5.020  19.070  0.00  0.00    +0.000 A 
ATOM     16  C   UNL     1       2.649   4.598  17.877  0.00  0.00    +0.000 A 
ATOM     17  C   UNL     1       1.581   3.698  17.907  0.00  0.00    +0.000 A 
ATOM     18  C   UNL     1       1.114   3.222  19.125  0.00  0.00    +0.000 A 
ATOM     19  F   UNL     1       0.087   2.363  19.147  0.00  0.00    +0.000 F 
ATOM     20  C   UNL     1       1.704   3.622  20.318  0.00  0.00    +0.000 A 
ATOM     21  C   UNL     1       2.774   4.515  20.287  0.00  0.00    +0.000 A 
ENDBRANCH  14  15
ENDBRANCH  13  14
ENDBRANCH   2  13
TORSDOF 4
ENDMDL
MODEL 4
REMARK VINA RESULT:      -7.3      3.585      4.577
REMARK  Name = 
REMARK  5 active torsions:
REMARK  status: ('A' for Active; 'I' for Inactive)
REMARK    1  A    between atoms: C_1  and  C_2
REMARK    2  A    between atoms: C_2  and  C_3
REMARK    3  A    between atoms: C_3  and  O_4
REMARK    4  A    between atoms: O_4  and  C_5
REMARK    5  A    between atoms: C_15  and  N_16
REMARK                            x       y       z     vdW  Elec       q    Type
REMARK                         _______ _______ _______ _____ _____    ______ ____
ROOT
ATOM      1  C   UNL     1       3.365   2.524  19.692  0.00  0.00    +0.000 C 
ATOM      2  C   UNL     1       3.504   3.882  19.002  0.00  0.00    +0.000 C 
ATOM      3  C   UNL     1       4.943   4.459  19.177  0.00  0.00    +0.000 C 
ATOM      4  N   UNL     1       5.389   4.488  17.811  0.00  0.00    +0.000 N 
ATOM      5  C   UNL     1       6.484   4.832  17.116  0.00  0.00    +0.000 A 
ATOM      6  C   UNL     1       6.109   4.553  15.801  0.00  0.00    +0.000 A 
ATOM      7  N   UNL     1       4.806   4.057  15.725  0.00  0.00    +0.000 NA
ATOM      8  C   UNL     1       4.434   4.042  16.973  0.00  0.00    +0.000 A 
ATOM      9  O   UNL     1       3.308   3.671  17.558  0.00  0.00    +0.000 OA
ENDROOT
BRANCH   6  10
ATOM     10  N   UNL     1       6.917   4.727  14.613  0.00  0.00    +0.000 N 
ATOM     11  O   UNL     1       7.866   5.521  14.703  0.00  0.00    +0.000 OA
ATOM     12  O   UNL     1       6.612   4.082  13.602  0.00  0.00    +0.000 OA
ENDBRANCH   6  10
BRANCH   2  13
ATOM     13  C   UNL     1       2.461   4.903  19.495  0.00  0.00    +0.000 C 
BRANCH  13  14
ATOM     14  O   UNL     1       3.089   6.146  19.824  0.00  0.00    +0.000 OA
BRANCH  14  15
ATOM     15  C   UNL     1       2.450   7.281  19.406  0.00  0.00    +0.000 A 
ATOM     16  C   UNL     1       2.451   7.782  18.100  0.00  0.00    +0.000 A 
ATOM     17  C   UNL     1       1.743   8.946  17.795  0.00  0.00    +0.000 A 
ATOM     18  C   UNL     1       1.036   9.605  18.792  0.00  0.00    +0.000 A 
ATOM     19  F   UNL     1       0.362  10.724  18.495  0.00  0.00    +0.000 F 
ATOM     20  C   UNL     1       1.014   9.113  20.092  0.00  0.00    +0.000 A 
ATOM     21  C   UNL     1       1.715   7.947  20.394  0.00  0.00    +0.000 A 
ENDBRANCH  14  15
ENDBRANCH  13  14
ENDBRANCH   2  13
TORSDOF 4
ENDMDL
MODEL 5
REMARK VINA RESULT:      -7.2      1.687      2.213
REMARK  Name = 
REMARK  5 active torsions:
REMARK  status: ('A' for Active; 'I' for Inactive)
REMARK    1  A    between atoms: C_1  and  C_2
REMARK    2  A    between atoms: C_2  and  C_3
REMARK    3  A    between atoms: C_3  and  O_4
REMARK    4  A    between atoms: O_4  and  C_5
REMARK    5  A    between atoms: C_15  and  N_16
REMARK                            x       y       z     vdW  Elec       q    Type
REMARK                         _______ _______ _______ _____ _____    ______ ____
ROOT
ATOM      1  C   UNL     1       6.056   4.623  18.952  0.00  0.00    +0.000 C 
ATOM      2  C   UNL     1       5.362   5.232  17.733  0.00  0.00    +0.000 C 
ATOM      3  C   UNL     1       6.373   6.021  16.844  0.00  0.00    +0.000 C 
ATOM      4  N   UNL     1       6.322   5.251  15.631  0.00  0.00    +0.000 N 
ATOM      5  C   UNL     1       6.882   5.253  14.412  0.00  0.00    +0.000 A 
ATOM      6  C   UNL     1       6.292   4.145  13.804  0.00  0.00    +0.000 A 
ATOM      7  N   UNL     1       5.389   3.504  14.655  0.00  0.00    +0.000 NA
ATOM      8  C   UNL     1       5.460   4.221  15.739  0.00  0.00    +0.000 A 
ATOM      9  O   UNL     1       4.853   4.123  16.909  0.00  0.00    +0.000 OA
ENDROOT
BRANCH   6  10
ATOM     10  N   UNL     1       6.535   3.659  12.463  0.00  0.00    +0.000 N 
ATOM     11  O   UNL     1       7.397   4.263  11.805  0.00  0.00    +0.000 OA
ATOM     12  O   UNL     1       5.879   2.687  12.069  0.00  0.00    +0.000 OA
ENDBRANCH   6  10
BRANCH   2  13
ATOM     13  C   UNL     1       4.179   6.140  18.121  0.00  0.00    +0.000 C 
BRANCH  13  14
ATOM     14  O   UNL     1       2.936   5.518  17.783  0.00  0.00    +0.000 OA
BRANCH  14  15
ATOM     15  C   UNL     1       2.363   4.737  18.748  0.00  0.00    +0.000 A 
ATOM     16  C   UNL     1       1.608   3.582  18.519  0.00  0.00    +0.000 A 
ATOM     17  C   UNL     1       1.088   2.859  19.595  0.00  0.00    +0.000 A 
ATOM     18  C   UNL     1       1.324   3.289  20.894  0.00  0.00    +0.000 A 
ATOM     19  F   UNL     1       0.819   2.594  21.921  0.00  0.00    +0.000 F 
ATOM     20  C   UNL     1       2.083   4.427  21.139  0.00  0.00    +0.000 A 
ATOM     21  C   UNL     1       2.607   5.145  20.065  0.00  0.00    +0.000 A 
ENDBRANCH  14  15
ENDBRANCH  13  14
ENDBRANCH   2  13
TORSDOF 4
ENDMDL
MODEL 6
REMARK VINA RESULT:      -7.2      3.528      4.707
REMARK  Name = 
REMARK  5 active torsions:
REMARK  status: ('A' for Active; 'I' for Inactive)
REMARK    1  A    between atoms: C_1  and  C_2
REMARK    2  A    between atoms: C_2  and  C_3
REMARK    3  A    between atoms: C_3  and  O_4
REMARK    4  A    between atoms: O_4  and  C_5
REMARK    5  A    between atoms: C_15  and  N_16
REMARK                            x       y       z     vdW  Elec       q    Type
REMARK                         _______ _______ _______ _____ _____    ______ ____
ROOT
ATOM      1  C   UNL     1       2.200   2.148  18.934  0.00  0.00    +0.000 C 
ATOM      2  C   UNL     1       2.739   3.577  18.856  0.00  0.00    +0.000 C 
ATOM      3  C   UNL     1       4.213   3.652  19.361  0.00  0.00    +0.000 C 
ATOM      4  N   UNL     1       4.889   4.062  18.160  0.00  0.00    +0.000 N 
ATOM      5  C   UNL     1       6.136   4.338  17.750  0.00  0.00    +0.000 A 
ATOM      6  C   UNL     1       5.948   4.668  16.408  0.00  0.00    +0.000 A 
ATOM      7  N   UNL     1       4.604   4.595  16.036  0.00  0.00    +0.000 NA
ATOM      8  C   UNL     1       4.024   4.221  17.140  0.00  0.00    +0.000 A 
ATOM      9  O   UNL     1       2.760   3.969  17.437  0.00  0.00    +0.000 OA
ENDROOT
BRANCH   6  10
ATOM     10  N   UNL     1       6.970   5.049  15.456  0.00  0.00    +0.000 N 
ATOM     11  O   UNL     1       7.686   6.011  15.772  0.00  0.00    +0.000 OA
ATOM     12  O   UNL     1       7.061   4.397  14.408  0.00  0.00    +0.000 OA
ENDBRANCH   6  10
BRANCH   2  13
ATOM     13  C   UNL     1       1.863   4.580  19.630  0.00  0.00    +0.000 C 
BRANCH  13  14
ATOM     14  O   UNL     1       2.644   5.696  20.070  0.00  0.00    +0.000 OA
BRANCH  14  15
ATOM     15  C   UNL     1       2.196   6.935  19.703  0.00  0.00    +0.000 A 
ATOM     16  C   UNL     1       1.557   7.852  20.544  0.00  0.00    +0.000 A 
ATOM     17  C   UNL     1       1.160   9.097  20.052  0.00  0.00    +0.000 A 
ATOM     18  C   UNL     1       1.403   9.423  18.724  0.00  0.00    +0.000 A 
ATOM     19  F   UNL     1       1.016  10.617  18.256  0.00  0.00    +0.000 F 
ATOM     20  C   UNL     1       2.048   8.529  17.878  0.00  0.00    +0.000 A 
ATOM     21  C   UNL     1       2.450   7.288  18.372  0.00  0.00    +0.000 A 
ENDBRANCH  14  15
ENDBRANCH  13  14
ENDBRANCH   2  13
TORSDOF 4
ENDMDL
MODEL 7
REMARK VINA RESULT:      -7.2      1.736      2.066
REMARK  Name = 
REMARK  5 active torsions:
REMARK  status: ('A' for Active; 'I' for Inactive)
REMARK    1  A    between atoms: C_1  and  C_2
REMARK    2  A    between atoms: C_2  and  C_3
REMARK    3  A    between atoms: C_3  and  O_4
REMARK    4  A    between atoms: O_4  and  C_5
REMARK    5  A    between atoms: C_15  and  N_16
REMARK                            x       y       z     vdW  Elec       q    Type
REMARK                         _______ _______ _______ _____ _____    ______ ____
ROOT
ATOM      1  C   UNL     1       5.960   4.490  18.818  0.00  0.00    +0.000 C 
ATOM      2  C   UNL     1       5.377   5.196  17.592  0.00  0.00    +0.000 C 
ATOM      3  C   UNL     1       6.496   5.889  16.756  0.00  0.00    +0.000 C 
ATOM      4  N   UNL     1       6.405   5.155  15.523  0.00  0.00    +0.000 N 
ATOM      5  C   UNL     1       7.004   5.123  14.323  0.00  0.00    +0.000 A 
ATOM      6  C   UNL     1       6.320   4.098  13.670  0.00  0.00    +0.000 A 
ATOM      7  N   UNL     1       5.324   3.539  14.475  0.00  0.00    +0.000 NA
ATOM      8  C   UNL     1       5.435   4.222  15.578  0.00  0.00    +0.000 A 
ATOM      9  O   UNL     1       4.781   4.166  16.726  0.00  0.00    +0.000 OA
ENDROOT
BRANCH   6  10
ATOM     10  N   UNL     1       6.556   3.616  12.326  0.00  0.00    +0.000 N 
ATOM     11  O   UNL     1       7.374   4.255  11.646  0.00  0.00    +0.000 OA
ATOM     12  O   UNL     1       5.936   2.613  11.950  0.00  0.00    +0.000 OA
ENDBRANCH   6  10
BRANCH   2  13
ATOM     13  C   UNL     1       4.285   6.217  17.965  0.00  0.00    +0.000 C 
BRANCH  13  14
ATOM     14  O   UNL     1       2.984   5.654  17.777  0.00  0.00    +0.000 OA
BRANCH  14  15
ATOM     15  C   UNL     1       2.470   4.944  18.828  0.00  0.00    +0.000 A 
ATOM     16  C   UNL     1       2.659   5.242  20.181  0.00  0.00    +0.000 A 
ATOM     17  C   UNL     1       2.066   4.446  21.164  0.00  0.00    +0.000 A 
ATOM     18  C   UNL     1       1.286   3.359  20.794  0.00  0.00    +0.000 A 
ATOM     19  F   UNL     1       0.723   2.597  21.740  0.00  0.00    +0.000 F 
ATOM     20  C   UNL     1       1.077   3.057  19.453  0.00  0.00    +0.000 A 
ATOM     21  C   UNL     1       1.665   3.856  18.473  0.00  0.00    +0.000 A 
ENDBRANCH  14  15
ENDBRANCH  13  14
ENDBRANCH   2  13
TORSDOF 4
ENDMDL
MODEL 8
REMARK VINA RESULT:      -7.2      0.768      1.021
REMARK  Name = 
REMARK  5 active torsions:
REMARK  status: ('A' for Active; 'I' for Inactive)
REMARK    1  A    between atoms: C_1  and  C_2
REMARK    2  A    between atoms: C_2  and  C_3
REMARK    3  A    between atoms: C_3  and  O_4
REMARK    4  A    between atoms: O_4  and  C_5
REMARK    5  A    between atoms: C_15  and  N_16
REMARK                            x       y       z     vdW  Elec       q    Type
REMARK                         _______ _______ _______ _____ _____    ______ ____
ROOT
ATOM      1  C   UNL     1       7.537   7.316  17.706  0.00  0.00    +0.000 C 
ATOM      2  C   UNL     1       6.703   6.042  17.559  0.00  0.00    +0.000 C 
ATOM      3  C   UNL     1       5.418   6.303  16.715  0.00  0.00    +0.000 C 
ATOM      4  N   UNL     1       5.663   5.455  15.580  0.00  0.00    +0.000 N 
ATOM      5  C   UNL     1       5.066   5.116  14.428  0.00  0.00    +0.000 A 
ATOM      6  C   UNL     1       5.973   4.215  13.869  0.00  0.00    +0.000 A 
ATOM      7  N   UNL     1       7.086   4.021  14.689  0.00  0.00    +0.000 NA
ATOM      8  C   UNL     1       6.834   4.801  15.701  0.00  0.00    +0.000 A 
ATOM      9  O   UNL     1       7.510   5.066  16.806  0.00  0.00    +0.000 OA
ENDROOT
BRANCH   6  10
ATOM     10  N   UNL     1       5.844   3.528  12.602  0.00  0.00    +0.000 N 
ATOM     11  O   UNL     1       6.896   3.116  12.089  0.00  0.00    +0.000 OA
ATOM     12  O   UNL     1       4.711   3.400  12.122  0.00  0.00    +0.000 OA
ENDBRANCH   6  10
BRANCH   2  13
ATOM     13  C   UNL     1       6.327   5.423  18.918  0.00  0.00    +0.000 C 
BRANCH  13  14
ATOM     14  O   UNL     1       5.890   4.071  18.753  0.00  0.00    +0.000 OA
BRANCH  14  15
ATOM     15  C   UNL     1       4.538   3.863  18.757  0.00  0.00    +0.000 A 
ATOM     16  C   UNL     1       3.618   4.503  19.593  0.00  0.00    +0.000 A 
ATOM     17  C   UNL     1       2.256   4.215  19.490  0.00  0.00    +0.000 A 
ATOM     18  C   UNL     1       1.816   3.290  18.552  0.00  0.00    +0.000 A 
ATOM     19  F   UNL     1       0.509   3.014  18.459  0.00  0.00    +0.000 F 
ATOM     20  C   UNL     1       2.715   2.654  17.704  0.00  0.00    +0.000 A 
ATOM     21  C   UNL     1       4.075   2.948  17.804  0.00  0.00    +0.000 A 
ENDBRANCH  14  15
ENDBRANCH  13  14
ENDBRANCH   2  13
TORSDOF 4
ENDMDL
MODEL 9
REMARK VINA RESULT:      -7.1      3.797      4.568
REMARK  Name = 
REMARK  5 active torsions:
REMARK  status: ('A' for Active; 'I' for Inactive)
REMARK    1  A    between atoms: C_1  and  C_2
REMARK    2  A    between atoms: C_2  and  C_3
REMARK    3  A    between atoms: C_3  and  O_4
REMARK    4  A    between atoms: O_4  and  C_5
REMARK    5  A    between atoms: C_15  and  N_16
REMARK                            x       y       z     vdW  Elec       q    Type
REMARK                         _______ _______ _______ _____ _____    ______ ____
ROOT
ATOM      1  C   UNL     1       3.714   3.060  20.002  0.00  0.00    +0.000 C 
ATOM      2  C   UNL     1       3.896   4.349  19.200  0.00  0.00    +0.000 C 
ATOM      3  C   UNL     1       5.388   4.806  19.197  0.00  0.00    +0.000 C 
ATOM      4  N   UNL     1       5.698   4.702  17.797  0.00  0.00    +0.000 N 
ATOM      5  C   UNL     1       6.743   4.898  16.980  0.00  0.00    +0.000 A 
ATOM      6  C   UNL     1       6.220   4.564  15.731  0.00  0.00    +0.000 A 
ATOM      7  N   UNL     1       4.879   4.183  15.813  0.00  0.00    +0.000 NA
ATOM      8  C   UNL     1       4.631   4.286  17.088  0.00  0.00    +0.000 A 
ATOM      9  O   UNL     1       3.542   4.058  17.801  0.00  0.00    +0.000 OA
ENDROOT
BRANCH   6  10
ATOM     10  N   UNL     1       6.918   4.584  14.463  0.00  0.00    +0.000 N 
ATOM     11  O   UNL     1       7.884   5.358  14.378  0.00  0.00    +0.000 OA
ATOM     12  O   UNL     1       6.512   3.838  13.564  0.00  0.00    +0.000 OA
ENDBRANCH   6  10
BRANCH   2  13
ATOM     13  C   UNL     1       2.994   5.491  19.708  0.00  0.00    +0.000 C 
BRANCH  13  14
ATOM     14  O   UNL     1       3.100   6.633  18.854  0.00  0.00    +0.000 OA
BRANCH  14  15
ATOM     15  C   UNL     1       2.285   7.692  19.149  0.00  0.00    +0.000 A 
ATOM     16  C   UNL     1       1.673   7.928  20.384  0.00  0.00    +0.000 A 
ATOM     17  C   UNL     1       0.873   9.058  20.566  0.00  0.00    +0.000 A 
ATOM     18  C   UNL     1       0.689   9.949  19.517  0.00  0.00    +0.000 A 
ATOM     19  F   UNL     1      -0.083  11.029  19.695  0.00  0.00    +0.000 F 
ATOM     20  C   UNL     1       1.301   9.736  18.287  0.00  0.00    +0.000 A 
ATOM     21  C   UNL     1       2.104   8.611  18.109  0.00  0.00    +0.000 A 
ENDBRANCH  14  15
ENDBRANCH  13  14
ENDBRANCH   2  13
TORSDOF 4
ENDMDL
