MODEL 1
REMARK VINA RESULT:      -8.7      0.000      0.000
REMARK  Name = 
REMARK  3 active torsions:
REMARK  status: ('A' for Active; 'I' for Inactive)
REMARK    1  A    between atoms: C_5  and  C_6
REMARK    2  A    between atoms: N_12  and  C_13
REMARK    3  A    between atoms: C_13  and  C_14
REMARK                            x       y       z     vdW  Elec       q    Type
REMARK                         _______ _______ _______ _____ _____    ______ ____
ROOT
ATOM      1  C   UNL     1       2.206   6.544  19.910  0.00  0.00    +0.000 A 
ATOM      2  C   UNL     1       1.500   5.670  20.755  0.00  0.00    +0.000 A 
ATOM      3  C   UNL     1       1.933   4.352  20.980  0.00  0.00    +0.000 A 
ATOM      4  C   UNL     1       3.088   3.905  20.326  0.00  0.00    +0.000 A 
ATOM      5  N   UNL     1       3.733   2.699  20.360  0.00  0.00    +0.000 NA
ATOM      6  N   UNL     1       4.775   2.763  19.540  0.00  0.00    +0.000 NA
ATOM      7  N   UNL     1       4.780   3.991  18.988  0.00  0.00    +0.000 N 
ATOM      8  C   UNL     1       3.763   4.768  19.474  0.00  0.00    +0.000 A 
ATOM      9  C   UNL     1       3.361   6.090  19.250  0.00  0.00    +0.000 A 
ENDROOT
BRANCH   1  14
ATOM     10  C   UNL     1      -0.227  10.992  21.843  0.00  0.00    +0.000 A 
ATOM     11  C   UNL     1       0.047   9.846  22.584  0.00  0.00    +0.000 A 
ATOM     12  C   UNL     1       0.726   8.768  22.004  0.00  0.00    +0.000 A 
ATOM     13  C   UNL     1       1.121   8.831  20.649  0.00  0.00    +0.000 A 
ATOM     14  C   UNL     1       1.780   7.932  19.740  0.00  0.00    +0.000 A 
ATOM     15  C   UNL     1       1.895   8.598  18.534  0.00  0.00    +0.000 A 
ATOM     16  N   UNL     1       1.345   9.844  18.673  0.00  0.00    +0.000 N 
ATOM     17  C   UNL     1       0.845  10.006  19.944  0.00  0.00    +0.000 A 
ATOM     18  C   UNL     1       0.175  11.097  20.510  0.00  0.00    +0.000 A 
ATOM     19  H   UNL     1       1.281  10.538  17.941  0.00  0.00    +0.000 HD
ENDBRANCH   1  14
BRANCH   7  20
ATOM     20  C   UNL     1       5.778   4.338  17.996  0.00  0.00    +0.000 C 
BRANCH  20  21
ATOM     21  C   UNL     1       5.208   4.456  16.574  0.00  0.00    +0.000 C 
ATOM     22  C   UNL     1       6.043   3.662  15.572  0.00  0.00    +0.000 C 
ATOM     23  C   UNL     1       6.973   4.690  14.965  0.00  0.00    +0.000 C 
ATOM     24  N   UNL     1       6.182   5.917  14.902  0.00  0.00    +0.000 NA
ATOM     25  C   UNL     1       5.238   5.885  16.026  0.00  0.00    +0.000 C 
ATOM     26  H   UNL     1       5.649   5.925  14.031  0.00  0.00    +0.000 HD
ENDBRANCH  20  21
ENDBRANCH   7  20
TORSDOF 3
ENDMDL
MODEL 2
REMARK VINA RESULT:      -8.6      0.978      1.152
REMARK  Name = 
REMARK  3 active torsions:
REMARK  status: ('A' for Active; 'I' for Inactive)
REMARK    1  A    between atoms: C_5  and  C_6
REMARK    2  A    between atoms: N_12  and  C_13
REMARK    3  A    between atoms: C_13  and  C_14
REMARK                            x       y       z     vdW  Elec       q    Type
REMARK                         _______ _______ _______ _____ _____    ______ ____
ROOT
ATOM      1  C   UNL     1       2.212   6.782  19.349  0.00  0.00    +0.000 A 
ATOM      2  C   UNL     1       1.788   6.198  20.556  0.00  0.00    +0.000 A 
ATOM      3  C   UNL     1       2.148   4.885  20.906  0.00  0.00    +0.000 A 
ATOM      4  C   UNL     1       2.933   4.145  20.014  0.00  0.00    +0.000 A 
ATOM      5  N   UNL     1       3.428   2.872  20.092  0.00  0.00    +0.000 NA
ATOM      6  N   UNL     1       4.096   2.617  18.973  0.00  0.00    +0.000 NA
ATOM      7  N   UNL     1       4.014   3.714  18.195  0.00  0.00    +0.000 N 
ATOM      8  C   UNL     1       3.324   4.722  18.814  0.00  0.00    +0.000 A 
ATOM      9  C   UNL     1       2.995   6.034  18.453  0.00  0.00    +0.000 A 
ENDROOT
BRANCH   1  14
ATOM     10  C   UNL     1      -0.286  11.435  20.596  0.00  0.00    +0.000 A 
ATOM     11  C   UNL     1      -0.191  10.330  21.436  0.00  0.00    +0.000 A 
ATOM     12  C   UNL     1       0.521   9.192  21.040  0.00  0.00    +0.000 A 
ATOM     13  C   UNL     1       1.133   9.152  19.766  0.00  0.00    +0.000 A 
ATOM     14  C   UNL     1       1.886   8.171  19.032  0.00  0.00    +0.000 A 
ATOM     15  C   UNL     1       2.227   8.753  17.825  0.00  0.00    +0.000 A 
ATOM     16  N   UNL     1       1.722  10.026  17.799  0.00  0.00    +0.000 N 
ATOM     17  C   UNL     1       1.032  10.288  18.960  0.00  0.00    +0.000 A 
ATOM     18  C   UNL     1       0.331  11.439  19.343  0.00  0.00    +0.000 A 
ATOM     19  H   UNL     1       1.811  10.672  17.028  0.00  0.00    +0.000 HD
ENDBRANCH   1  14
BRANCH   7  20
ATOM     20  C   UNL     1       4.603   3.711  16.872  0.00  0.00    +0.000 C 
BRANCH  20  21
ATOM     21  C   UNL     1       5.527   4.912  16.614  0.00  0.00    +0.000 C 
ATOM     22  C   UNL     1       5.488   5.341  15.149  0.00  0.00    +0.000 C 
ATOM     23  C   UNL     1       6.691   4.662  14.530  0.00  0.00    +0.000 C 
ATOM     24  N   UNL     1       7.707   4.675  15.579  0.00  0.00    +0.000 NA
ATOM     25  C   UNL     1       7.006   4.604  16.867  0.00  0.00    +0.000 C 
ATOM     26  H   UNL     1       8.218   5.558  15.536  0.00  0.00    +0.000 HD
ENDBRANCH  20  21
ENDBRANCH   7  20
TORSDOF 3
ENDMDL
MODEL 3
REMARK VINA RESULT:      -8.4      1.668      3.864
REMARK  Name = 
REMARK  3 active torsions:
REMARK  status: ('A' for Active; 'I' for Inactive)
REMARK    1  A    between atoms: C_5  and  C_6
REMARK    2  A    between atoms: N_12  and  C_13
REMARK    3  A    between atoms: C_13  and  C_14
REMARK                            x       y       z     vdW  Elec       q    Type
REMARK                         _______ _______ _______ _____ _____    ______ ____
ROOT
ATOM      1  C   UNL     1       2.891   7.214  18.072  0.00  0.00    +0.000 A 
ATOM      2  C   UNL     1       4.213   7.365  17.619  0.00  0.00    +0.000 A 
ATOM      3  C   UNL     1       4.977   6.264  17.194  0.00  0.00    +0.000 A 
ATOM      4  C   UNL     1       4.401   4.989  17.246  0.00  0.00    +0.000 A 
ATOM      5  N   UNL     1       4.896   3.762  16.899  0.00  0.00    +0.000 NA
ATOM      6  N   UNL     1       3.966   2.850  17.160  0.00  0.00    +0.000 NA
ATOM      7  N   UNL     1       2.902   3.495  17.676  0.00  0.00    +0.000 N 
ATOM      8  C   UNL     1       3.103   4.849  17.719  0.00  0.00    +0.000 A 
ATOM      9  C   UNL     1       2.318   5.933  18.129  0.00  0.00    +0.000 A 
ENDROOT
BRANCH   1  14
ATOM     10  C   UNL     1      -0.178   9.852  21.687  0.00  0.00    +0.000 A 
ATOM     11  C   UNL     1       0.535   8.685  21.946  0.00  0.00    +0.000 A 
ATOM     12  C   UNL     1       1.340   8.108  20.957  0.00  0.00    +0.000 A 
ATOM     13  C   UNL     1       1.417   8.700  19.676  0.00  0.00    +0.000 A 
ATOM     14  C   UNL     1       2.088   8.378  18.446  0.00  0.00    +0.000 A 
ATOM     15  C   UNL     1       1.773   9.378  17.546  0.00  0.00    +0.000 A 
ATOM     16  N   UNL     1       0.953  10.280  18.169  0.00  0.00    +0.000 N 
ATOM     17  C   UNL     1       0.702   9.882  19.462  0.00  0.00    +0.000 A 
ATOM     18  C   UNL     1      -0.102  10.478  20.441  0.00  0.00    +0.000 A 
ATOM     19  H   UNL     1       0.559  11.104  17.739  0.00  0.00    +0.000 HD
ENDBRANCH   1  14
BRANCH   7  20
ATOM     20  C   UNL     1       1.743   2.746  18.117  0.00  0.00    +0.000 C 
BRANCH  20  21
ATOM     21  C   UNL     1       1.846   2.263  19.572  0.00  0.00    +0.000 C 
ATOM     22  C   UNL     1       0.846   2.985  20.471  0.00  0.00    +0.000 C 
ATOM     23  C   UNL     1       1.650   4.104  21.099  0.00  0.00    +0.000 C 
ATOM     24  N   UNL     1       2.985   3.542  21.288  0.00  0.00    +0.000 NA
ATOM     25  C   UNL     1       3.203   2.564  20.215  0.00  0.00    +0.000 C 
ATOM     26  H   UNL     1       3.018   3.054  22.184  0.00  0.00    +0.000 HD
ENDBRANCH  20  21
ENDBRANCH   7  20
TORSDOF 3
ENDMDL
MODEL 4
REMARK VINA RESULT:      -8.3      1.580      1.987
REMARK  Name = 
REMARK  3 active torsions:
REMARK  status: ('A' for Active; 'I' for Inactive)
REMARK    1  A    between atoms: C_5  and  C_6
REMARK    2  A    between atoms: N_12  and  C_13
REMARK    3  A    between atoms: C_13  and  C_14
REMARK                            x       y       z     vdW  Elec       q    Type
REMARK                         _______ _______ _______ _____ _____    ______ ____
ROOT
ATOM      1  C   UNL     1       2.512   6.831  18.581  0.00  0.00    +0.000 A 
ATOM      2  C   UNL     1       1.718   5.776  18.098  0.00  0.00    +0.000 A 
ATOM      3  C   UNL     1       2.199   4.457  18.043  0.00  0.00    +0.000 A 
ATOM      4  C   UNL     1       3.509   4.203  18.467  0.00  0.00    +0.000 A 
ATOM      5  N   UNL     1       4.226   3.039  18.531  0.00  0.00    +0.000 NA
ATOM      6  N   UNL     1       5.442   3.325  18.982  0.00  0.00    +0.000 NA
ATOM      7  N   UNL     1       5.493   4.655  19.190  0.00  0.00    +0.000 N 
ATOM      8  C   UNL     1       4.293   5.256  18.919  0.00  0.00    +0.000 A 
ATOM      9  C   UNL     1       3.828   6.574  19.000  0.00  0.00    +0.000 A 
ENDROOT
BRANCH   1  14
ATOM     10  C   UNL     1      -0.140  10.620  21.418  0.00  0.00    +0.000 A 
ATOM     11  C   UNL     1       0.260   9.385  21.916  0.00  0.00    +0.000 A 
ATOM     12  C   UNL     1       0.986   8.494  21.117  0.00  0.00    +0.000 A 
ATOM     13  C   UNL     1       1.300   8.841  19.783  0.00  0.00    +0.000 A 
ATOM     14  C   UNL     1       1.974   8.186  18.694  0.00  0.00    +0.000 A 
ATOM     15  C   UNL     1       1.972   9.072  17.633  0.00  0.00    +0.000 A 
ATOM     16  N   UNL     1       1.337  10.219  18.028  0.00  0.00    +0.000 N 
ATOM     17  C   UNL     1       0.898  10.099  19.326  0.00  0.00    +0.000 A 
ATOM     18  C   UNL     1       0.179  11.005  20.114  0.00  0.00    +0.000 A 
ATOM     19  H   UNL     1       1.181  11.028  17.444  0.00  0.00    +0.000 HD
ENDBRANCH   1  14
BRANCH   7  20
ATOM     20  C   UNL     1       6.726   5.274  19.631  0.00  0.00    +0.000 C 
BRANCH  20  21
ATOM     21  C   UNL     1       7.705   5.569  18.484  0.00  0.00    +0.000 C 
ATOM     22  C   UNL     1       7.969   7.066  18.347  0.00  0.00    +0.000 C 
ATOM     23  C   UNL     1       7.020   7.513  17.255  0.00  0.00    +0.000 C 
ATOM     24  N   UNL     1       6.967   6.388  16.325  0.00  0.00    +0.000 NA
ATOM     25  C   UNL     1       7.167   5.163  17.109  0.00  0.00    +0.000 C 
ATOM     26  H   UNL     1       7.733   6.474  15.655  0.00  0.00    +0.000 HD
ENDBRANCH  20  21
ENDBRANCH   7  20
TORSDOF 3
ENDMDL
MODEL 5
REMARK VINA RESULT:      -8.2      1.945      7.559
REMARK  Name = 
REMARK  3 active torsions:
REMARK  status: ('A' for Active; 'I' for Inactive)
REMARK    1  A    between atoms: C_5  and  C_6
REMARK    2  A    between atoms: N_12  and  C_13
REMARK    3  A    between atoms: C_13  and  C_14
REMARK                            x       y       z     vdW  Elec       q    Type
REMARK                         _______ _______ _______ _____ _____    ______ ____
ROOT
ATOM      1  C   UNL     1       4.697   4.535  16.822  0.00  0.00    +0.000 A 
ATOM      2  C   UNL     1       4.251   3.215  17.015  0.00  0.00    +0.000 A 
ATOM      3  C   UNL     1       3.211   2.913  17.912  0.00  0.00    +0.000 A 
ATOM      4  C   UNL     1       2.626   3.958  18.636  0.00  0.00    +0.000 A 
ATOM      5  N   UNL     1       1.612   3.960  19.555  0.00  0.00    +0.000 NA
ATOM      6  N   UNL     1       1.440   5.207  19.980  0.00  0.00    +0.000 NA
ATOM      7  N   UNL     1       2.341   5.979  19.343  0.00  0.00    +0.000 N 
ATOM      8  C   UNL     1       3.091   5.253  18.456  0.00  0.00    +0.000 A 
ATOM      9  C   UNL     1       4.112   5.580  17.555  0.00  0.00    +0.000 A 
ENDROOT
BRANCH   1  14
ATOM     10  C   UNL     1       6.837   3.867  11.880  0.00  0.00    +0.000 A 
ATOM     11  C   UNL     1       5.605   3.369  12.290  0.00  0.00    +0.000 A 
ATOM     12  C   UNL     1       5.117   3.640  13.574  0.00  0.00    +0.000 A 
ATOM     13  C   UNL     1       5.890   4.409  14.473  0.00  0.00    +0.000 A 
ATOM     14  C   UNL     1       5.733   4.840  15.836  0.00  0.00    +0.000 A 
ATOM     15  C   UNL     1       6.848   5.595  16.146  0.00  0.00    +0.000 A 
ATOM     16  N   UNL     1       7.661   5.640  15.045  0.00  0.00    +0.000 N 
ATOM     17  C   UNL     1       7.113   4.908  14.017  0.00  0.00    +0.000 A 
ATOM     18  C   UNL     1       7.612   4.654  12.734  0.00  0.00    +0.000 A 
ATOM     19  H   UNL     1       8.552   6.113  14.998  0.00  0.00    +0.000 HD
ENDBRANCH   1  14
BRANCH   7  20
ATOM     20  C   UNL     1       2.433   7.392  19.649  0.00  0.00    +0.000 C 
BRANCH  20  21
ATOM     21  C   UNL     1       1.295   8.223  19.037  0.00  0.00    +0.000 C 
ATOM     22  C   UNL     1       1.713   8.848  17.708  0.00  0.00    +0.000 C 
ATOM     23  C   UNL     1       2.142  10.253  18.076  0.00  0.00    +0.000 C 
ATOM     24  N   UNL     1       1.243  10.644  19.160  0.00  0.00    +0.000 NA
ATOM     25  C   UNL     1       0.891   9.424  19.897  0.00  0.00    +0.000 C 
ATOM     26  H   UNL     1       0.391  11.039  18.759  0.00  0.00    +0.000 HD
ENDBRANCH  20  21
ENDBRANCH   7  20
TORSDOF 3
ENDMDL
MODEL 6
REMARK VINA RESULT:      -8.2      1.197      1.992
REMARK  Name = 
REMARK  3 active torsions:
REMARK  status: ('A' for Active; 'I' for Inactive)
REMARK    1  A    between atoms: C_5  and  C_6
REMARK    2  A    between atoms: N_12  and  C_13
REMARK    3  A    between atoms: C_13  and  C_14
REMARK                            x       y       z     vdW  Elec       q    Type
REMARK                         _______ _______ _______ _____ _____    ______ ____
ROOT
ATOM      1  C   UNL     1       1.881   6.048  20.216  0.00  0.00    +0.000 A 
ATOM      2  C   UNL     1       1.079   4.920  20.462  0.00  0.00    +0.000 A 
ATOM      3  C   UNL     1       1.584   3.614  20.332  0.00  0.00    +0.000 A 
ATOM      4  C   UNL     1       2.915   3.448  19.930  0.00  0.00    +0.000 A 
ATOM      5  N   UNL     1       3.661   2.318  19.730  0.00  0.00    +0.000 NA
ATOM      6  N   UNL     1       4.871   2.687  19.325  0.00  0.00    +0.000 NA
ATOM      7  N   UNL     1       4.883   4.032  19.260  0.00  0.00    +0.000 N 
ATOM      8  C   UNL     1       3.690   4.569  19.666  0.00  0.00    +0.000 A 
ATOM      9  C   UNL     1       3.214   5.878  19.807  0.00  0.00    +0.000 A 
ENDROOT
BRANCH   1  14
ATOM     10  C   UNL     1       1.363  11.195  18.576  0.00  0.00    +0.000 A 
ATOM     11  C   UNL     1       1.929  10.171  17.824  0.00  0.00    +0.000 A 
ATOM     12  C   UNL     1       1.970   8.862  18.318  0.00  0.00    +0.000 A 
ATOM     13  C   UNL     1       1.451   8.577  19.602  0.00  0.00    +0.000 A 
ATOM     14  C   UNL     1       1.360   7.399  20.422  0.00  0.00    +0.000 A 
ATOM     15  C   UNL     1       0.717   7.774  21.587  0.00  0.00    +0.000 A 
ATOM     16  N   UNL     1       0.418   9.108  21.507  0.00  0.00    +0.000 N 
ATOM     17  C   UNL     1       0.874   9.629  20.318  0.00  0.00    +0.000 A 
ATOM     18  C   UNL     1       0.816  10.942  19.836  0.00  0.00    +0.000 A 
ATOM     19  H   UNL     1      -0.040   9.646  22.229  0.00  0.00    +0.000 HD
ENDBRANCH   1  14
BRANCH   7  20
ATOM     20  C   UNL     1       6.063   4.726  18.786  0.00  0.00    +0.000 C 
BRANCH  20  21
ATOM     21  C   UNL     1       5.822   5.531  17.499  0.00  0.00    +0.000 C 
ATOM     22  C   UNL     1       5.430   4.621  16.338  0.00  0.00    +0.000 C 
ATOM     23  C   UNL     1       6.727   4.387  15.594  0.00  0.00    +0.000 C 
ATOM     24  N   UNL     1       7.457   5.647  15.714  0.00  0.00    +0.000 NA
ATOM     25  C   UNL     1       7.073   6.254  16.994  0.00  0.00    +0.000 C 
ATOM     26  H   UNL     1       7.170   6.271  14.959  0.00  0.00    +0.000 HD
ENDBRANCH  20  21
ENDBRANCH   7  20
TORSDOF 3
ENDMDL
MODEL 7
REMARK VINA RESULT:      -8.0      3.346      5.771
REMARK  Name = 
REMARK  3 active torsions:
REMARK  status: ('A' for Active; 'I' for Inactive)
REMARK    1  A    between atoms: C_5  and  C_6
REMARK    2  A    between atoms: N_12  and  C_13
REMARK    3  A    between atoms: C_13  and  C_14
REMARK                            x       y       z     vdW  Elec       q    Type
REMARK                         _______ _______ _______ _____ _____    ______ ____
ROOT
ATOM      1  C   UNL     1       4.941   5.244  17.793  0.00  0.00    +0.000 A 
ATOM      2  C   UNL     1       6.099   5.969  18.125  0.00  0.00    +0.000 A 
ATOM      3  C   UNL     1       7.127   6.185  17.191  0.00  0.00    +0.000 A 
ATOM      4  C   UNL     1       6.989   5.644  15.907  0.00  0.00    +0.000 A 
ATOM      5  N   UNL     1       7.811   5.698  14.814  0.00  0.00    +0.000 NA
ATOM      6  N   UNL     1       7.245   5.001  13.835  0.00  0.00    +0.000 NA
ATOM      7  N   UNL     1       6.086   4.506  14.310  0.00  0.00    +0.000 N 
ATOM      8  C   UNL     1       5.853   4.909  15.598  0.00  0.00    +0.000 A 
ATOM      9  C   UNL     1       4.808   4.698  16.506  0.00  0.00    +0.000 A 
ENDROOT
BRANCH   1  14
ATOM     10  C   UNL     1       0.541   2.585  19.532  0.00  0.00    +0.000 A 
ATOM     11  C   UNL     1       1.375   2.162  18.502  0.00  0.00    +0.000 A 
ATOM     12  C   UNL     1       2.517   2.895  18.161  0.00  0.00    +0.000 A 
ATOM     13  C   UNL     1       2.820   4.090  18.854  0.00  0.00    +0.000 A 
ATOM     14  C   UNL     1       3.851   5.088  18.756  0.00  0.00    +0.000 A 
ATOM     15  C   UNL     1       3.600   6.018  19.746  0.00  0.00    +0.000 A 
ATOM     16  N   UNL     1       2.479   5.632  20.430  0.00  0.00    +0.000 N 
ATOM     17  C   UNL     1       1.969   4.471  19.895  0.00  0.00    +0.000 A 
ATOM     18  C   UNL     1       0.828   3.746  20.255  0.00  0.00    +0.000 A 
ATOM     19  H   UNL     1       2.061   6.139  21.197  0.00  0.00    +0.000 HD
ENDBRANCH   1  14
BRANCH   7  20
ATOM     20  C   UNL     1       5.269   3.646  13.478  0.00  0.00    +0.000 C 
BRANCH  20  21
ATOM     21  C   UNL     1       5.766   3.549  12.027  0.00  0.00    +0.000 C 
ATOM     22  C   UNL     1       4.937   2.553  11.220  0.00  0.00    +0.000 C 
ATOM     23  C   UNL     1       5.742   1.272  11.267  0.00  0.00    +0.000 C 
ATOM     24  N   UNL     1       7.136   1.709  11.244  0.00  0.00    +0.000 NA
ATOM     25  C   UNL     1       7.196   3.015  11.912  0.00  0.00    +0.000 C 
ATOM     26  H   UNL     1       7.432   1.826  10.274  0.00  0.00    +0.000 HD
ENDBRANCH  20  21
ENDBRANCH   7  20
TORSDOF 3
ENDMDL
MODEL 8
REMARK VINA RESULT:      -8.0      1.947      7.688
REMARK  Name = 
REMARK  3 active torsions:
REMARK  status: ('A' for Active; 'I' for Inactive)
REMARK    1  A    between atoms: C_5  and  C_6
REMARK    2  A    between atoms: N_12  and  C_13
REMARK    3  A    between atoms: C_13  and  C_14
REMARK                            x       y       z     vdW  Elec       q    Type
REMARK                         _______ _______ _______ _____ _____    ______ ____
ROOT
ATOM      1  C   UNL     1       4.556   4.787  17.282  0.00  0.00    +0.000 A 
ATOM      2  C   UNL     1       4.108   3.469  17.483  0.00  0.00    +0.000 A 
ATOM      3  C   UNL     1       3.048   3.176  18.359  0.00  0.00    +0.000 A 
ATOM      4  C   UNL     1       2.444   4.229  19.054  0.00  0.00    +0.000 A 
ATOM      5  N   UNL     1       1.408   4.241  19.949  0.00  0.00    +0.000 NA
ATOM      6  N   UNL     1       1.222   5.493  20.352  0.00  0.00    +0.000 NA
ATOM      7  N   UNL     1       2.137   6.259  19.726  0.00  0.00    +0.000 N 
ATOM      8  C   UNL     1       2.910   5.523  18.867  0.00  0.00    +0.000 A 
ATOM      9  C   UNL     1       3.951   5.841  17.987  0.00  0.00    +0.000 A 
ENDROOT
BRANCH   1  14
ATOM     10  C   UNL     1       6.806   4.069  12.397  0.00  0.00    +0.000 A 
ATOM     11  C   UNL     1       5.564   3.576  12.784  0.00  0.00    +0.000 A 
ATOM     12  C   UNL     1       5.048   3.860  14.053  0.00  0.00    +0.000 A 
ATOM     13  C   UNL     1       5.801   4.636  14.963  0.00  0.00    +0.000 A 
ATOM     14  C   UNL     1       5.614   5.082  16.317  0.00  0.00    +0.000 A 
ATOM     15  C   UNL     1       6.723   5.838  16.645  0.00  0.00    +0.000 A 
ATOM     16  N   UNL     1       7.561   5.871  15.562  0.00  0.00    +0.000 N 
ATOM     17  C   UNL     1       7.036   5.129  14.530  0.00  0.00    +0.000 A 
ATOM     18  C   UNL     1       7.563   4.863  13.261  0.00  0.00    +0.000 A 
ATOM     19  H   UNL     1       8.453   6.343  15.531  0.00  0.00    +0.000 HD
ENDBRANCH   1  14
BRANCH   7  20
ATOM     20  C   UNL     1       2.217   7.676  20.015  0.00  0.00    +0.000 C 
BRANCH  20  21
ATOM     21  C   UNL     1       1.011   8.207  20.804  0.00  0.00    +0.000 C 
ATOM     22  C   UNL     1       0.273   9.296  20.028  0.00  0.00    +0.000 C 
ATOM     23  C   UNL     1       0.829  10.590  20.583  0.00  0.00    +0.000 C 
ATOM     24  N   UNL     1       1.067  10.317  21.998  0.00  0.00    +0.000 NA
ATOM     25  C   UNL     1       1.400   8.892  22.117  0.00  0.00    +0.000 C 
ATOM     26  H   UNL     1       0.208  10.494  22.520  0.00  0.00    +0.000 HD
ENDBRANCH  20  21
ENDBRANCH   7  20
TORSDOF 3
ENDMDL
MODEL 9
REMARK VINA RESULT:      -7.9      1.398      2.219
REMARK  Name = 
REMARK  3 active torsions:
REMARK  status: ('A' for Active; 'I' for Inactive)
REMARK    1  A    between atoms: C_5  and  C_6
REMARK    2  A    between atoms: N_12  and  C_13
REMARK    3  A    between atoms: C_13  and  C_14
REMARK                            x       y       z     vdW  Elec       q    Type
REMARK                         _______ _______ _______ _____ _____    ______ ____
ROOT
ATOM      1  C   UNL     1       1.910   5.866  20.000  0.00  0.00    +0.000 A 
ATOM      2  C   UNL     1       1.514   4.790  20.814  0.00  0.00    +0.000 A 
ATOM      3  C   UNL     1       1.951   3.477  20.566  0.00  0.00    +0.000 A 
ATOM      4  C   UNL     1       2.787   3.247  19.467  0.00  0.00    +0.000 A 
ATOM      5  N   UNL     1       3.359   2.096  18.996  0.00  0.00    +0.000 NA
ATOM      6  N   UNL     1       4.051   2.394  17.902  0.00  0.00    +0.000 NA
ATOM      7  N   UNL     1       3.906   3.715  17.681  0.00  0.00    +0.000 N 
ATOM      8  C   UNL     1       3.151   4.312  18.655  0.00  0.00    +0.000 A 
ATOM      9  C   UNL     1       2.744   5.630  18.895  0.00  0.00    +0.000 A 
ENDROOT
BRANCH   1  14
ATOM     10  C   UNL     1       1.492  11.091  18.596  0.00  0.00    +0.000 A 
ATOM     11  C   UNL     1       1.894  10.065  17.746  0.00  0.00    +0.000 A 
ATOM     12  C   UNL     1       1.920   8.739  18.191  0.00  0.00    +0.000 A 
ATOM     13  C   UNL     1       1.557   8.435  19.523  0.00  0.00    +0.000 A 
ATOM     14  C   UNL     1       1.502   7.235  20.313  0.00  0.00    +0.000 A 
ATOM     15  C   UNL     1       1.039   7.601  21.563  0.00  0.00    +0.000 A 
ATOM     16  N   UNL     1       0.813   8.951  21.563  0.00  0.00    +0.000 N 
ATOM     17  C   UNL     1       1.140   9.490  20.340  0.00  0.00    +0.000 A 
ATOM     18  C   UNL     1       1.099  10.821  19.909  0.00  0.00    +0.000 A 
ATOM     19  H   UNL     1       0.485   9.487  22.354  0.00  0.00    +0.000 HD
ENDBRANCH   1  14
BRANCH   7  20
ATOM     20  C   UNL     1       4.506   4.325  16.512  0.00  0.00    +0.000 C 
BRANCH  20  21
ATOM     21  C   UNL     1       6.028   4.129  16.434  0.00  0.00    +0.000 C 
ATOM     22  C   UNL     1       6.737   4.798  17.609  0.00  0.00    +0.000 C 
ATOM     23  C   UNL     1       7.180   6.138  17.062  0.00  0.00    +0.000 C 
ATOM     24  N   UNL     1       7.525   5.875  15.667  0.00  0.00    +0.000 NA
ATOM     25  C   UNL     1       6.660   4.783  15.202  0.00  0.00    +0.000 C 
ATOM     26  H   UNL     1       8.496   5.565  15.617  0.00  0.00    +0.000 HD
ENDBRANCH  20  21
ENDBRANCH   7  20
TORSDOF 3
ENDMDL
