MODEL 1
REMARK VINA RESULT:      -6.6      0.000      0.000
REMARK  Name = 
REMARK  15 active torsions:
REMARK  status: ('A' for Active; 'I' for Inactive)
REMARK    1  A    between atoms: C_2  and  C_4
REMARK    2  A    between atoms: C_6  and  C_7
REMARK    3  A    between atoms: C_7  and  C_8
REMARK    4  A    between atoms: C_8  and  C_9
REMARK    5  A    between atoms: C_9  and  C_10
REMARK    6  A    between atoms: C_10  and  C_11
REMARK    7  A    between atoms: C_11  and  C_12
REMARK    8  A    between atoms: C_12  and  C_13
REMARK    9  A    between atoms: C_13  and  C_14
REMARK   10  A    between atoms: C_14  and  C_15
REMARK   11  A    between atoms: C_15  and  C_16
REMARK   12  A    between atoms: C_16  and  C_17
REMARK   13  A    between atoms: C_17  and  C_18
REMARK   14  A    between atoms: C_18  and  C_19
REMARK   15  A    between atoms: C_22  and  C_23
REMARK                            x       y       z     vdW  Elec       q    Type
REMARK                         _______ _______ _______ _____ _____    ______ ____
ROOT
ATOM      1  C   UNL     1       2.429   2.102  18.755  0.00  0.00    +0.000 C 
ENDROOT
BRANCH   1   2
ATOM      2  C   UNL     1       3.624   2.774  18.071  0.00  0.00    +0.000 C 
BRANCH   2   3
ATOM      3  C   UNL     1       4.513   3.613  18.997  0.00  0.00    +0.000 C 
BRANCH   3   4
ATOM      4  C   UNL     1       4.973   4.942  18.386  0.00  0.00    +0.000 C 
BRANCH   4   5
ATOM      5  C   UNL     1       6.494   5.170  18.473  0.00  0.00    +0.000 C 
BRANCH   5   6
ATOM      6  C   UNL     1       7.364   4.357  17.498  0.00  0.00    +0.000 C 
BRANCH   6   9
ATOM      7  C   UNL     1       6.415   4.100  14.139  0.00  0.00    +0.000 A 
ATOM      8  N   UNL     1       6.250   3.635  15.364  0.00  0.00    +0.000 NA
ATOM      9  C   UNL     1       6.953   4.564  16.095  0.00  0.00    +0.000 A 
ATOM     10  N   UNL     1       7.380   5.619  15.408  0.00  0.00    +0.000 NA
ATOM     11  O   UNL     1       7.081   5.281  14.107  0.00  0.00    +0.000 OA
BRANCH   7  13
ATOM     12  N   UNL     1       6.770   2.851  12.154  0.00  0.00    +0.000 N 
ATOM     13  C   UNL     1       5.875   3.566  12.907  0.00  0.00    +0.000 C 
ATOM     14  O   UNL     1       4.712   3.654  12.516  0.00  0.00    +0.000 OA
ATOM     15  H   UNL     1       6.427   2.468  11.282  0.00  0.00    +0.000 HD
ATOM     16  H   UNL     1       7.763   2.958  12.308  0.00  0.00    +0.000 HD
ENDBRANCH   7  13
ENDBRANCH   6   9
ENDBRANCH   5   6
ENDBRANCH   4   5
ENDBRANCH   3   4
ENDBRANCH   2   3
ENDBRANCH   1   2
BRANCH   1  17
ATOM     17  C   UNL     1       2.146   2.635  20.163  0.00  0.00    +0.000 C 
BRANCH  17  18
ATOM     18  C   UNL     1       1.070   3.725  20.201  0.00  0.00    +0.000 C 
BRANCH  18  19
ATOM     19  C   UNL     1       1.627   5.090  20.602  0.00  0.00    +0.000 C 
BRANCH  19  20
ATOM     20  C   UNL     1       1.654   6.086  19.448  0.00  0.00    +0.000 C 
BRANCH  20  21
ATOM     21  C   UNL     1       2.230   7.439  19.877  0.00  0.00    +0.000 C 
BRANCH  21  22
ATOM     22  C   UNL     1       1.269   8.305  20.690  0.00  0.00    +0.000 C 
BRANCH  22  23
ATOM     23  C   UNL     1       0.759   9.536  20.001  0.00  0.00    +0.000 A 
ATOM     24  N   UNL     1      -0.464  10.037  20.233  0.00  0.00    +0.000 NA
ATOM     25  O   UNL     1      -0.430  11.276  19.582  0.00  0.00    +0.000 OA
ATOM     26  C   UNL     1       0.801  11.378  18.997  0.00  0.00    +0.000 A 
ATOM     27  N   UNL     1       1.540  10.314  19.172  0.00  0.00    +0.000 NA
BRANCH  26  28
ATOM     28  C   UNL     1       1.194  12.645  18.398  0.00  0.00    +0.000 C 
ATOM     29  N   UNL     1       2.357  12.657  17.668  0.00  0.00    +0.000 N 
ATOM     30  O   UNL     1       0.589  13.711  18.533  0.00  0.00    +0.000 OA
ATOM     31  H   UNL     1       2.998  11.869  17.698  0.00  0.00    +0.000 HD
ATOM     32  H   UNL     1       2.727  13.564  17.407  0.00  0.00    +0.000 HD
ENDBRANCH  26  28
ENDBRANCH  22  23
ENDBRANCH  21  22
ENDBRANCH  20  21
ENDBRANCH  19  20
ENDBRANCH  18  19
ENDBRANCH  17  18
ENDBRANCH   1  17
TORSDOF 15
ENDMDL
MODEL 2
REMARK VINA RESULT:      -6.4      1.928      2.761
REMARK  Name = 
REMARK  15 active torsions:
REMARK  status: ('A' for Active; 'I' for Inactive)
REMARK    1  A    between atoms: C_2  and  C_4
REMARK    2  A    between atoms: C_6  and  C_7
REMARK    3  A    between atoms: C_7  and  C_8
REMARK    4  A    between atoms: C_8  and  C_9
REMARK    5  A    between atoms: C_9  and  C_10
REMARK    6  A    between atoms: C_10  and  C_11
REMARK    7  A    between atoms: C_11  and  C_12
REMARK    8  A    between atoms: C_12  and  C_13
REMARK    9  A    between atoms: C_13  and  C_14
REMARK   10  A    between atoms: C_14  and  C_15
REMARK   11  A    between atoms: C_15  and  C_16
REMARK   12  A    between atoms: C_16  and  C_17
REMARK   13  A    between atoms: C_17  and  C_18
REMARK   14  A    between atoms: C_18  and  C_19
REMARK   15  A    between atoms: C_22  and  C_23
REMARK                            x       y       z     vdW  Elec       q    Type
REMARK                         _______ _______ _______ _____ _____    ______ ____
ROOT
ATOM      1  C   UNL     1       1.208   3.775  20.421  0.00  0.00    +0.000 C 
ENDROOT
BRANCH   1   2
ATOM      2  C   UNL     1       1.190   3.155  19.021  0.00  0.00    +0.000 C 
BRANCH   2   3
ATOM      3  C   UNL     1       1.980   1.847  18.881  0.00  0.00    +0.000 C 
BRANCH   3   4
ATOM      4  C   UNL     1       3.195   1.947  17.952  0.00  0.00    +0.000 C 
BRANCH   4   5
ATOM      5  C   UNL     1       3.490   3.380  17.469  0.00  0.00    +0.000 C 
BRANCH   5   6
ATOM      6  C   UNL     1       4.755   4.046  18.038  0.00  0.00    +0.000 C 
BRANCH   6   9
ATOM      7  C   UNL     1       6.659   4.903  15.228  0.00  0.00    +0.000 A 
ATOM      8  N   UNL     1       5.608   4.245  15.682  0.00  0.00    +0.000 NA
ATOM      9  C   UNL     1       5.554   4.696  16.979  0.00  0.00    +0.000 A 
ATOM     10  N   UNL     1       6.394   5.685  17.270  0.00  0.00    +0.000 NA
ATOM     11  O   UNL     1       7.167   5.776  16.133  0.00  0.00    +0.000 OA
BRANCH   7  13
ATOM     12  N   UNL     1       6.610   3.988  13.040  0.00  0.00    +0.000 N 
ATOM     13  C   UNL     1       7.214   4.877  13.893  0.00  0.00    +0.000 C 
ATOM     14  O   UNL     1       8.115   5.592  13.457  0.00  0.00    +0.000 OA
ATOM     15  H   UNL     1       6.977   3.940  12.098  0.00  0.00    +0.000 HD
ATOM     16  H   UNL     1       6.050   3.232  13.409  0.00  0.00    +0.000 HD
ENDBRANCH   7  13
ENDBRANCH   6   9
ENDBRANCH   5   6
ENDBRANCH   4   5
ENDBRANCH   3   4
ENDBRANCH   2   3
ENDBRANCH   1   2
BRANCH   1  17
ATOM     17  C   UNL     1       2.378   4.735  20.654  0.00  0.00    +0.000 C 
BRANCH  17  18
ATOM     18  C   UNL     1       2.043   6.198  20.341  0.00  0.00    +0.000 C 
BRANCH  18  19
ATOM     19  C   UNL     1       1.818   6.444  18.850  0.00  0.00    +0.000 C 
BRANCH  19  20
ATOM     20  C   UNL     1       2.847   7.389  18.240  0.00  0.00    +0.000 C 
BRANCH  20  21
ATOM     21  C   UNL     1       2.238   8.755  17.905  0.00  0.00    +0.000 C 
BRANCH  21  22
ATOM     22  C   UNL     1       1.395   9.362  19.026  0.00  0.00    +0.000 C 
BRANCH  22  23
ATOM     23  C   UNL     1       0.153  10.083  18.590  0.00  0.00    +0.000 A 
ATOM     24  N   UNL     1      -0.637   9.626  17.607  0.00  0.00    +0.000 NA
ATOM     25  O   UNL     1      -1.765  10.452  17.695  0.00  0.00    +0.000 OA
ATOM     26  C   UNL     1      -1.521  11.342  18.702  0.00  0.00    +0.000 A 
ATOM     27  N   UNL     1      -0.337  11.198  19.237  0.00  0.00    +0.000 NA
BRANCH  26  28
ATOM     28  C   UNL     1      -2.597  12.216  19.147  0.00  0.00    +0.000 C 
ATOM     29  N   UNL     1      -2.237  13.422  19.694  0.00  0.00    +0.000 N 
ATOM     30  O   UNL     1      -3.798  11.936  19.111  0.00  0.00    +0.000 OA
ATOM     31  H   UNL     1      -1.269  13.614  19.940  0.00  0.00    +0.000 HD
ATOM     32  H   UNL     1      -2.963  13.948  20.168  0.00  0.00    +0.000 HD
ENDBRANCH  26  28
ENDBRANCH  22  23
ENDBRANCH  21  22
ENDBRANCH  20  21
ENDBRANCH  19  20
ENDBRANCH  18  19
ENDBRANCH  17  18
ENDBRANCH   1  17
TORSDOF 15
ENDMDL
MODEL 3
REMARK VINA RESULT:      -6.3      2.212      3.586
REMARK  Name = 
REMARK  15 active torsions:
REMARK  status: ('A' for Active; 'I' for Inactive)
REMARK    1  A    between atoms: C_2  and  C_4
REMARK    2  A    between atoms: C_6  and  C_7
REMARK    3  A    between atoms: C_7  and  C_8
REMARK    4  A    between atoms: C_8  and  C_9
REMARK    5  A    between atoms: C_9  and  C_10
REMARK    6  A    between atoms: C_10  and  C_11
REMARK    7  A    between atoms: C_11  and  C_12
REMARK    8  A    between atoms: C_12  and  C_13
REMARK    9  A    between atoms: C_13  and  C_14
REMARK   10  A    between atoms: C_14  and  C_15
REMARK   11  A    between atoms: C_15  and  C_16
REMARK   12  A    between atoms: C_16  and  C_17
REMARK   13  A    between atoms: C_17  and  C_18
REMARK   14  A    between atoms: C_18  and  C_19
REMARK   15  A    between atoms: C_22  and  C_23
REMARK                            x       y       z     vdW  Elec       q    Type
REMARK                         _______ _______ _______ _____ _____    ______ ____
ROOT
ATOM      1  C   UNL     1       1.067   4.009  20.004  0.00  0.00    +0.000 C 
ENDROOT
BRANCH   1   2
ATOM      2  C   UNL     1       1.543   2.593  19.666  0.00  0.00    +0.000 C 
BRANCH   2   3
ATOM      3  C   UNL     1       3.060   2.382  19.749  0.00  0.00    +0.000 C 
BRANCH   3   4
ATOM      4  C   UNL     1       3.781   2.491  18.401  0.00  0.00    +0.000 C 
BRANCH   4   5
ATOM      5  C   UNL     1       3.268   3.642  17.515  0.00  0.00    +0.000 C 
BRANCH   5   6
ATOM      6  C   UNL     1       4.219   4.130  16.409  0.00  0.00    +0.000 C 
BRANCH   6   9
ATOM      7  C   UNL     1       7.062   5.460  17.960  0.00  0.00    +0.000 A 
ATOM      8  N   UNL     1       5.778   5.173  18.082  0.00  0.00    +0.000 NA
ATOM      9  C   UNL     1       5.563   4.439  16.940  0.00  0.00    +0.000 A 
ATOM     10  N   UNL     1       6.656   4.141  16.243  0.00  0.00    +0.000 NA
ATOM     11  O   UNL     1       7.635   4.870  16.882  0.00  0.00    +0.000 OA
BRANCH   7  13
ATOM     12  N   UNL     1       8.224   5.517  20.027  0.00  0.00    +0.000 N 
ATOM     13  C   UNL     1       7.897   6.198  18.882  0.00  0.00    +0.000 C 
ATOM     14  O   UNL     1       8.364   7.323  18.713  0.00  0.00    +0.000 OA
ATOM     15  H   UNL     1       8.803   6.006  20.698  0.00  0.00    +0.000 HD
ATOM     16  H   UNL     1       7.681   4.713  20.312  0.00  0.00    +0.000 HD
ENDBRANCH   7  13
ENDBRANCH   6   9
ENDBRANCH   5   6
ENDBRANCH   4   5
ENDBRANCH   3   4
ENDBRANCH   2   3
ENDBRANCH   1   2
BRANCH   1  17
ATOM     17  C   UNL     1       2.109   4.847  20.749  0.00  0.00    +0.000 C 
BRANCH  17  18
ATOM     18  C   UNL     1       1.801   6.349  20.752  0.00  0.00    +0.000 C 
BRANCH  18  19
ATOM     19  C   UNL     1       2.342   7.063  19.514  0.00  0.00    +0.000 C 
BRANCH  19  20
ATOM     20  C   UNL     1       1.768   8.464  19.336  0.00  0.00    +0.000 C 
BRANCH  20  21
ATOM     21  C   UNL     1       0.975   8.916  20.567  0.00  0.00    +0.000 C 
BRANCH  21  22
ATOM     22  C   UNL     1       0.072  10.125  20.328  0.00  0.00    +0.000 C 
BRANCH  22  23
ATOM     23  C   UNL     1       0.747  11.464  20.383  0.00  0.00    +0.000 A 
ATOM     24  N   UNL     1       0.870  12.162  21.521  0.00  0.00    +0.000 NA
ATOM     25  O   UNL     1       1.743  13.198  21.167  0.00  0.00    +0.000 OA
ATOM     26  C   UNL     1       2.029  13.033  19.841  0.00  0.00    +0.000 A 
ATOM     27  N   UNL     1       1.395  12.025  19.302  0.00  0.00    +0.000 NA
BRANCH  26  28
ATOM     28  C   UNL     1       3.061  13.861  19.234  0.00  0.00    +0.000 C 
ATOM     29  N   UNL     1       3.085  13.926  17.864  0.00  0.00    +0.000 N 
ATOM     30  O   UNL     1       3.938  14.469  19.854  0.00  0.00    +0.000 OA
ATOM     31  H   UNL     1       2.527  13.287  17.303  0.00  0.00    +0.000 HD
ATOM     32  H   UNL     1       3.903  14.346  17.436  0.00  0.00    +0.000 HD
ENDBRANCH  26  28
ENDBRANCH  22  23
ENDBRANCH  21  22
ENDBRANCH  20  21
ENDBRANCH  19  20
ENDBRANCH  18  19
ENDBRANCH  17  18
ENDBRANCH   1  17
TORSDOF 15
ENDMDL
MODEL 4
REMARK VINA RESULT:      -6.3      2.614      7.964
REMARK  Name = 
REMARK  15 active torsions:
REMARK  status: ('A' for Active; 'I' for Inactive)
REMARK    1  A    between atoms: C_2  and  C_4
REMARK    2  A    between atoms: C_6  and  C_7
REMARK    3  A    between atoms: C_7  and  C_8
REMARK    4  A    between atoms: C_8  and  C_9
REMARK    5  A    between atoms: C_9  and  C_10
REMARK    6  A    between atoms: C_10  and  C_11
REMARK    7  A    between atoms: C_11  and  C_12
REMARK    8  A    between atoms: C_12  and  C_13
REMARK    9  A    between atoms: C_13  and  C_14
REMARK   10  A    between atoms: C_14  and  C_15
REMARK   11  A    between atoms: C_15  and  C_16
REMARK   12  A    between atoms: C_16  and  C_17
REMARK   13  A    between atoms: C_17  and  C_18
REMARK   14  A    between atoms: C_18  and  C_19
REMARK   15  A    between atoms: C_22  and  C_23
REMARK                            x       y       z     vdW  Elec       q    Type
REMARK                         _______ _______ _______ _____ _____    ______ ____
ROOT
ATOM      1  C   UNL     1       2.038   4.007  21.463  0.00  0.00    +0.000 C 
ENDROOT
BRANCH   1   2
ATOM      2  C   UNL     1       1.470   5.232  20.739  0.00  0.00    +0.000 C 
BRANCH   2   3
ATOM      3  C   UNL     1       2.503   6.070  19.974  0.00  0.00    +0.000 C 
BRANCH   3   4
ATOM      4  C   UNL     1       2.082   7.527  19.749  0.00  0.00    +0.000 C 
BRANCH   4   5
ATOM      5  C   UNL     1       2.546   8.103  18.397  0.00  0.00    +0.000 C 
BRANCH   5   6
ATOM      6  C   UNL     1       1.470   8.800  17.546  0.00  0.00    +0.000 C 
BRANCH   6   9
ATOM      7  C   UNL     1      -0.445  11.467  18.759  0.00  0.00    +0.000 A 
ATOM      8  N   UNL     1      -0.419  10.180  18.465  0.00  0.00    +0.000 NA
ATOM      9  C   UNL     1       0.922   9.991  18.224  0.00  0.00    +0.000 A 
ATOM     10  N   UNL     1       1.700  11.031  18.510  0.00  0.00    +0.000 NA
ATOM     11  O   UNL     1       0.790  12.024  18.801  0.00  0.00    +0.000 OA
BRANCH   7  13
ATOM     12  N   UNL     1      -1.305  13.584  19.395  0.00  0.00    +0.000 N 
ATOM     13  C   UNL     1      -1.588  12.266  19.143  0.00  0.00    +0.000 C 
ATOM     14  O   UNL     1      -2.757  11.891  19.212  0.00  0.00    +0.000 OA
ATOM     15  H   UNL     1      -2.081  14.171  19.672  0.00  0.00    +0.000 HD
ATOM     16  H   UNL     1      -0.355  13.872  19.585  0.00  0.00    +0.000 HD
ENDBRANCH   7  13
ENDBRANCH   6   9
ENDBRANCH   5   6
ENDBRANCH   4   5
ENDBRANCH   3   4
ENDBRANCH   2   3
ENDBRANCH   1   2
BRANCH   1  17
ATOM     17  C   UNL     1       1.491   2.675  20.941  0.00  0.00    +0.000 C 
BRANCH  17  18
ATOM     18  C   UNL     1       0.738   2.800  19.612  0.00  0.00    +0.000 C 
BRANCH  18  19
ATOM     19  C   UNL     1       1.339   1.926  18.511  0.00  0.00    +0.000 C 
BRANCH  19  20
ATOM     20  C   UNL     1       2.788   1.538  18.783  0.00  0.00    +0.000 C 
BRANCH  20  21
ATOM     21  C   UNL     1       3.767   2.604  18.279  0.00  0.00    +0.000 C 
BRANCH  21  22
ATOM     22  C   UNL     1       4.741   3.118  19.339  0.00  0.00    +0.000 C 
BRANCH  22  23
ATOM     23  C   UNL     1       5.432   4.410  19.016  0.00  0.00    +0.000 A 
ATOM     24  N   UNL     1       6.549   4.805  19.645  0.00  0.00    +0.000 NA
ATOM     25  O   UNL     1       6.967   5.908  18.890  0.00  0.00    +0.000 OA
ATOM     26  C   UNL     1       6.038   6.082  17.904  0.00  0.00    +0.000 A 
ATOM     27  N   UNL     1       5.048   5.230  17.977  0.00  0.00    +0.000 NA
BRANCH  26  28
ATOM     28  C   UNL     1       6.302   7.048  16.848  0.00  0.00    +0.000 C 
ATOM     29  N   UNL     1       5.596   6.907  15.680  0.00  0.00    +0.000 N 
ATOM     30  O   UNL     1       7.141   7.951  16.906  0.00  0.00    +0.000 OA
ATOM     31  H   UNL     1       5.052   6.068  15.499  0.00  0.00    +0.000 HD
ATOM     32  H   UNL     1       5.904   7.456  14.885  0.00  0.00    +0.000 HD
ENDBRANCH  26  28
ENDBRANCH  22  23
ENDBRANCH  21  22
ENDBRANCH  20  21
ENDBRANCH  19  20
ENDBRANCH  18  19
ENDBRANCH  17  18
ENDBRANCH   1  17
TORSDOF 15
ENDMDL
MODEL 5
REMARK VINA RESULT:      -6.3      2.355      3.560
REMARK  Name = 
REMARK  15 active torsions:
REMARK  status: ('A' for Active; 'I' for Inactive)
REMARK    1  A    between atoms: C_2  and  C_4
REMARK    2  A    between atoms: C_6  and  C_7
REMARK    3  A    between atoms: C_7  and  C_8
REMARK    4  A    between atoms: C_8  and  C_9
REMARK    5  A    between atoms: C_9  and  C_10
REMARK    6  A    between atoms: C_10  and  C_11
REMARK    7  A    between atoms: C_11  and  C_12
REMARK    8  A    between atoms: C_12  and  C_13
REMARK    9  A    between atoms: C_13  and  C_14
REMARK   10  A    between atoms: C_14  and  C_15
REMARK   11  A    between atoms: C_15  and  C_16
REMARK   12  A    between atoms: C_16  and  C_17
REMARK   13  A    between atoms: C_17  and  C_18
REMARK   14  A    between atoms: C_18  and  C_19
REMARK   15  A    between atoms: C_22  and  C_23
REMARK                            x       y       z     vdW  Elec       q    Type
REMARK                         _______ _______ _______ _____ _____    ______ ____
ROOT
ATOM      1  C   UNL     1       1.971   2.821  20.794  0.00  0.00    +0.000 C 
ENDROOT
BRANCH   1   2
ATOM      2  C   UNL     1       1.101   2.570  19.558  0.00  0.00    +0.000 C 
BRANCH   2   3
ATOM      3  C   UNL     1       1.877   2.349  18.253  0.00  0.00    +0.000 C 
BRANCH   3   4
ATOM      4  C   UNL     1       3.221   1.634  18.438  0.00  0.00    +0.000 C 
BRANCH   4   5
ATOM      5  C   UNL     1       4.435   2.583  18.421  0.00  0.00    +0.000 C 
BRANCH   5   6
ATOM      6  C   UNL     1       4.263   3.899  17.642  0.00  0.00    +0.000 C 
BRANCH   6   9
ATOM      7  C   UNL     1       6.889   6.210  17.544  0.00  0.00    +0.000 A 
ATOM      8  N   UNL     1       5.855   5.754  18.226  0.00  0.00    +0.000 NA
ATOM      9  C   UNL     1       5.541   4.625  17.505  0.00  0.00    +0.000 A 
ATOM     10  N   UNL     1       6.410   4.304  16.551  0.00  0.00    +0.000 NA
ATOM     11  O   UNL     1       7.263   5.385  16.536  0.00  0.00    +0.000 OA
BRANCH   7  13
ATOM     12  N   UNL     1       8.472   7.272  18.957  0.00  0.00    +0.000 N 
ATOM     13  C   UNL     1       7.696   7.376  17.831  0.00  0.00    +0.000 C 
ATOM     14  O   UNL     1       7.780   8.397  17.150  0.00  0.00    +0.000 OA
ATOM     15  H   UNL     1       9.045   8.072  19.191  0.00  0.00    +0.000 HD
ATOM     16  H   UNL     1       8.258   6.575  19.658  0.00  0.00    +0.000 HD
ENDBRANCH   7  13
ENDBRANCH   6   9
ENDBRANCH   5   6
ENDBRANCH   4   5
ENDBRANCH   3   4
ENDBRANCH   2   3
ENDBRANCH   1   2
BRANCH   1  17
ATOM     17  C   UNL     1       2.050   4.295  21.202  0.00  0.00    +0.000 C 
BRANCH  17  18
ATOM     18  C   UNL     1       1.642   5.263  20.086  0.00  0.00    +0.000 C 
BRANCH  18  19
ATOM     19  C   UNL     1       2.123   6.691  20.339  0.00  0.00    +0.000 C 
BRANCH  19  20
ATOM     20  C   UNL     1       2.810   7.312  19.129  0.00  0.00    +0.000 C 
BRANCH  20  21
ATOM     21  C   UNL     1       1.806   7.693  18.036  0.00  0.00    +0.000 C 
BRANCH  21  22
ATOM     22  C   UNL     1       1.624   9.197  17.841  0.00  0.00    +0.000 C 
BRANCH  22  23
ATOM     23  C   UNL     1       0.583   9.846  18.705  0.00  0.00    +0.000 A 
ATOM     24  N   UNL     1       0.732   9.986  20.030  0.00  0.00    +0.000 NA
ATOM     25  O   UNL     1      -0.330  10.828  20.383  0.00  0.00    +0.000 OA
ATOM     26  C   UNL     1      -1.028  11.080  19.236  0.00  0.00    +0.000 A 
ATOM     27  N   UNL     1      -0.546  10.452  18.195  0.00  0.00    +0.000 NA
BRANCH  26  28
ATOM     28  C   UNL     1      -2.088  12.077  19.260  0.00  0.00    +0.000 C 
ATOM     29  N   UNL     1      -3.047  11.994  18.283  0.00  0.00    +0.000 N 
ATOM     30  O   UNL     1      -2.163  13.013  20.061  0.00  0.00    +0.000 OA
ATOM     31  H   UNL     1      -2.922  11.380  17.482  0.00  0.00    +0.000 HD
ATOM     32  H   UNL     1      -3.675  12.784  18.185  0.00  0.00    +0.000 HD
ENDBRANCH  26  28
ENDBRANCH  22  23
ENDBRANCH  21  22
ENDBRANCH  20  21
ENDBRANCH  19  20
ENDBRANCH  18  19
ENDBRANCH  17  18
ENDBRANCH   1  17
TORSDOF 15
ENDMDL
MODEL 6
REMARK VINA RESULT:      -6.3      1.801      2.226
REMARK  Name = 
REMARK  15 active torsions:
REMARK  status: ('A' for Active; 'I' for Inactive)
REMARK    1  A    between atoms: C_2  and  C_4
REMARK    2  A    between atoms: C_6  and  C_7
REMARK    3  A    between atoms: C_7  and  C_8
REMARK    4  A    between atoms: C_8  and  C_9
REMARK    5  A    between atoms: C_9  and  C_10
REMARK    6  A    between atoms: C_10  and  C_11
REMARK    7  A    between atoms: C_11  and  C_12
REMARK    8  A    between atoms: C_12  and  C_13
REMARK    9  A    between atoms: C_13  and  C_14
REMARK   10  A    between atoms: C_14  and  C_15
REMARK   11  A    between atoms: C_15  and  C_16
REMARK   12  A    between atoms: C_16  and  C_17
REMARK   13  A    between atoms: C_17  and  C_18
REMARK   14  A    between atoms: C_18  and  C_19
REMARK   15  A    between atoms: C_22  and  C_23
REMARK                            x       y       z     vdW  Elec       q    Type
REMARK                         _______ _______ _______ _____ _____    ______ ____
ROOT
ATOM      1  C   UNL     1       3.913   2.688  19.043  0.00  0.00    +0.000 C 
ENDROOT
BRANCH   1   2
ATOM      2  C   UNL     1       4.945   3.496  18.251  0.00  0.00    +0.000 C 
BRANCH   2   3
ATOM      3  C   UNL     1       5.537   4.699  18.997  0.00  0.00    +0.000 C 
BRANCH   3   4
ATOM      4  C   UNL     1       5.791   5.922  18.108  0.00  0.00    +0.000 C 
BRANCH   4   5
ATOM      5  C   UNL     1       5.666   5.628  16.601  0.00  0.00    +0.000 C 
BRANCH   5   6
ATOM      6  C   UNL     1       6.985   5.452  15.828  0.00  0.00    +0.000 C 
BRANCH   6   9
ATOM      7  C   UNL     1       6.097   3.760  12.896  0.00  0.00    +0.000 A 
ATOM      8  N   UNL     1       5.704   4.166  14.089  0.00  0.00    +0.000 NA
ATOM      9  C   UNL     1       6.752   4.981  14.448  0.00  0.00    +0.000 A 
ATOM     10  N   UNL     1       7.647   5.206  13.491  0.00  0.00    +0.000 NA
ATOM     11  O   UNL     1       7.248   4.348  12.489  0.00  0.00    +0.000 OA
BRANCH   7  13
ATOM     12  N   UNL     1       6.068   1.748  11.639  0.00  0.00    +0.000 N 
ATOM     13  C   UNL     1       5.391   2.892  11.978  0.00  0.00    +0.000 C 
ATOM     14  O   UNL     1       4.258   3.061  11.530  0.00  0.00    +0.000 OA
ATOM     15  H   UNL     1       5.606   1.120  10.994  0.00  0.00    +0.000 HD
ATOM     16  H   UNL     1       7.066   1.688  11.782  0.00  0.00    +0.000 HD
ENDBRANCH   7  13
ENDBRANCH   6   9
ENDBRANCH   5   6
ENDBRANCH   4   5
ENDBRANCH   3   4
ENDBRANCH   2   3
ENDBRANCH   1   2
BRANCH   1  17
ATOM     17  C   UNL     1       2.464   3.095  18.762  0.00  0.00    +0.000 C 
BRANCH  17  18
ATOM     18  C   UNL     1       2.320   4.091  17.606  0.00  0.00    +0.000 C 
BRANCH  18  19
ATOM     19  C   UNL     1       1.462   5.301  17.973  0.00  0.00    +0.000 C 
BRANCH  19  20
ATOM     20  C   UNL     1       2.270   6.443  18.577  0.00  0.00    +0.000 C 
BRANCH  20  21
ATOM     21  C   UNL     1       2.397   7.625  17.611  0.00  0.00    +0.000 C 
BRANCH  21  22
ATOM     22  C   UNL     1       2.446   8.993  18.289  0.00  0.00    +0.000 C 
BRANCH  22  23
ATOM     23  C   UNL     1       1.117   9.602  18.627  0.00  0.00    +0.000 A 
ATOM     24  N   UNL     1       0.914  10.313  19.746  0.00  0.00    +0.000 NA
ATOM     25  O   UNL     1      -0.354  10.871  19.543  0.00  0.00    +0.000 OA
ATOM     26  C   UNL     1      -0.797  10.409  18.336  0.00  0.00    +0.000 A 
ATOM     27  N   UNL     1       0.039   9.581  17.766  0.00  0.00    +0.000 NA
BRANCH  26  28
ATOM     28  C   UNL     1      -2.018  10.967  17.772  0.00  0.00    +0.000 C 
ATOM     29  N   UNL     1      -1.906  12.150  17.085  0.00  0.00    +0.000 N 
ATOM     30  O   UNL     1      -3.145  10.483  17.903  0.00  0.00    +0.000 OA
ATOM     31  H   UNL     1      -1.049  12.696  17.125  0.00  0.00    +0.000 HD
ATOM     32  H   UNL     1      -2.767  12.631  16.852  0.00  0.00    +0.000 HD
ENDBRANCH  26  28
ENDBRANCH  22  23
ENDBRANCH  21  22
ENDBRANCH  20  21
ENDBRANCH  19  20
ENDBRANCH  18  19
ENDBRANCH  17  18
ENDBRANCH   1  17
TORSDOF 15
ENDMDL
MODEL 7
REMARK VINA RESULT:      -6.3      1.448      2.015
REMARK  Name = 
REMARK  15 active torsions:
REMARK  status: ('A' for Active; 'I' for Inactive)
REMARK    1  A    between atoms: C_2  and  C_4
REMARK    2  A    between atoms: C_6  and  C_7
REMARK    3  A    between atoms: C_7  and  C_8
REMARK    4  A    between atoms: C_8  and  C_9
REMARK    5  A    between atoms: C_9  and  C_10
REMARK    6  A    between atoms: C_10  and  C_11
REMARK    7  A    between atoms: C_11  and  C_12
REMARK    8  A    between atoms: C_12  and  C_13
REMARK    9  A    between atoms: C_13  and  C_14
REMARK   10  A    between atoms: C_14  and  C_15
REMARK   11  A    between atoms: C_15  and  C_16
REMARK   12  A    between atoms: C_16  and  C_17
REMARK   13  A    between atoms: C_17  and  C_18
REMARK   14  A    between atoms: C_18  and  C_19
REMARK   15  A    between atoms: C_22  and  C_23
REMARK                            x       y       z     vdW  Elec       q    Type
REMARK                         _______ _______ _______ _____ _____    ______ ____
ROOT
ATOM      1  C   UNL     1       2.646   3.825  17.317  0.00  0.00    +0.000 C 
ENDROOT
BRANCH   1   2
ATOM      2  C   UNL     1       4.052   4.340  16.997  0.00  0.00    +0.000 C 
BRANCH   2   3
ATOM      3  C   UNL     1       4.210   5.865  17.041  0.00  0.00    +0.000 C 
BRANCH   3   4
ATOM      4  C   UNL     1       5.580   6.366  16.571  0.00  0.00    +0.000 C 
BRANCH   4   5
ATOM      5  C   UNL     1       6.765   5.698  17.295  0.00  0.00    +0.000 C 
BRANCH   5   6
ATOM      6  C   UNL     1       7.525   4.616  16.507  0.00  0.00    +0.000 C 
BRANCH   6   9
ATOM      7  C   UNL     1       6.497   3.814  13.259  0.00  0.00    +0.000 A 
ATOM      8  N   UNL     1       6.294   3.630  14.550  0.00  0.00    +0.000 NA
ATOM      9  C   UNL     1       7.122   4.588  15.087  0.00  0.00    +0.000 A 
ATOM     10  N   UNL     1       7.670   5.420  14.206  0.00  0.00    +0.000 NA
ATOM     11  O   UNL     1       7.309   4.868  12.997  0.00  0.00    +0.000 OA
BRANCH   7  13
ATOM     12  N   UNL     1       6.584   2.045  11.681  0.00  0.00    +0.000 N 
ATOM     13  C   UNL     1       5.874   3.118  12.154  0.00  0.00    +0.000 C 
ATOM     14  O   UNL     1       4.778   3.367  11.654  0.00  0.00    +0.000 OA
ATOM     15  H   UNL     1       6.180   1.538  10.904  0.00  0.00    +0.000 HD
ATOM     16  H   UNL     1       7.570   1.957  11.890  0.00  0.00    +0.000 HD
ENDBRANCH   7  13
ENDBRANCH   6   9
ENDBRANCH   5   6
ENDBRANCH   4   5
ENDBRANCH   3   4
ENDBRANCH   2   3
ENDBRANCH   1   2
BRANCH   1  17
ATOM     17  C   UNL     1       2.620   2.725  18.382  0.00  0.00    +0.000 C 
BRANCH  17  18
ATOM     18  C   UNL     1       1.222   2.451  18.948  0.00  0.00    +0.000 C 
BRANCH  18  19
ATOM     19  C   UNL     1       0.666   3.634  19.740  0.00  0.00    +0.000 C 
BRANCH  19  20
ATOM     20  C   UNL     1       1.587   4.081  20.869  0.00  0.00    +0.000 C 
BRANCH  20  21
ATOM     21  C   UNL     1       2.289   5.403  20.542  0.00  0.00    +0.000 C 
BRANCH  21  22
ATOM     22  C   UNL     1       1.591   6.643  21.099  0.00  0.00    +0.000 C 
BRANCH  22  23
ATOM     23  C   UNL     1       1.580   7.844  20.200  0.00  0.00    +0.000 A 
ATOM     24  N   UNL     1       2.086   7.818  18.957  0.00  0.00    +0.000 NA
ATOM     25  O   UNL     1       1.662   9.038  18.415  0.00  0.00    +0.000 OA
ATOM     26  C   UNL     1       0.973   9.686  19.401  0.00  0.00    +0.000 A 
ATOM     27  N   UNL     1       0.949   9.026  20.529  0.00  0.00    +0.000 NA
BRANCH  26  28
ATOM     28  C   UNL     1       0.255  10.909  19.072  0.00  0.00    +0.000 C 
ATOM     29  N   UNL     1       0.669  12.063  19.687  0.00  0.00    +0.000 N 
ATOM     30  O   UNL     1      -0.721  10.977  18.320  0.00  0.00    +0.000 OA
ATOM     31  H   UNL     1       1.323  12.032  20.465  0.00  0.00    +0.000 HD
ATOM     32  H   UNL     1       0.064  12.872  19.605  0.00  0.00    +0.000 HD
ENDBRANCH  26  28
ENDBRANCH  22  23
ENDBRANCH  21  22
ENDBRANCH  20  21
ENDBRANCH  19  20
ENDBRANCH  18  19
ENDBRANCH  17  18
ENDBRANCH   1  17
TORSDOF 15
ENDMDL
MODEL 8
REMARK VINA RESULT:      -6.3      1.922      8.881
REMARK  Name = 
REMARK  15 active torsions:
REMARK  status: ('A' for Active; 'I' for Inactive)
REMARK    1  A    between atoms: C_2  and  C_4
REMARK    2  A    between atoms: C_6  and  C_7
REMARK    3  A    between atoms: C_7  and  C_8
REMARK    4  A    between atoms: C_8  and  C_9
REMARK    5  A    between atoms: C_9  and  C_10
REMARK    6  A    between atoms: C_10  and  C_11
REMARK    7  A    between atoms: C_11  and  C_12
REMARK    8  A    between atoms: C_12  and  C_13
REMARK    9  A    between atoms: C_13  and  C_14
REMARK   10  A    between atoms: C_14  and  C_15
REMARK   11  A    between atoms: C_15  and  C_16
REMARK   12  A    between atoms: C_16  and  C_17
REMARK   13  A    between atoms: C_17  and  C_18
REMARK   14  A    between atoms: C_18  and  C_19
REMARK   15  A    between atoms: C_22  and  C_23
REMARK                            x       y       z     vdW  Elec       q    Type
REMARK                         _______ _______ _______ _____ _____    ______ ____
ROOT
ATOM      1  C   UNL     1       1.422   4.716  18.740  0.00  0.00    +0.000 C 
ENDROOT
BRANCH   1   2
ATOM      2  C   UNL     1       2.089   5.959  18.143  0.00  0.00    +0.000 C 
BRANCH   2   3
ATOM      3  C   UNL     1       2.716   6.914  19.168  0.00  0.00    +0.000 C 
BRANCH   3   4
ATOM      4  C   UNL     1       1.969   8.243  19.322  0.00  0.00    +0.000 C 
BRANCH   4   5
ATOM      5  C   UNL     1       1.096   8.320  20.589  0.00  0.00    +0.000 C 
BRANCH   5   6
ATOM      6  C   UNL     1       0.941   9.711  21.229  0.00  0.00    +0.000 C 
BRANCH   6   9
ATOM      7  C   UNL     1      -1.525  11.240  19.273  0.00  0.00    +0.000 A 
ATOM      8  N   UNL     1      -0.786  10.162  19.460  0.00  0.00    +0.000 NA
ATOM      9  C   UNL     1      -0.221  10.439  20.683  0.00  0.00    +0.000 A 
ATOM     10  N   UNL     1      -0.697  11.520  21.294  0.00  0.00    +0.000 NA
ATOM     11  O   UNL     1      -1.509  12.083  20.334  0.00  0.00    +0.000 OA
BRANCH   7  13
ATOM     12  N   UNL     1      -3.592  12.116  18.506  0.00  0.00    +0.000 N 
ATOM     13  C   UNL     1      -2.401  11.532  18.159  0.00  0.00    +0.000 C 
ATOM     14  O   UNL     1      -2.158  11.353  16.966  0.00  0.00    +0.000 OA
ATOM     15  H   UNL     1      -4.232  12.329  17.751  0.00  0.00    +0.000 HD
ATOM     16  H   UNL     1      -3.927  12.058  19.458  0.00  0.00    +0.000 HD
ENDBRANCH   7  13
ENDBRANCH   6   9
ENDBRANCH   5   6
ENDBRANCH   4   5
ENDBRANCH   3   4
ENDBRANCH   2   3
ENDBRANCH   1   2
BRANCH   1  17
ATOM     17  C   UNL     1       1.583   3.459  17.881  0.00  0.00    +0.000 C 
BRANCH  17  18
ATOM     18  C   UNL     1       1.913   2.201  18.692  0.00  0.00    +0.000 C 
BRANCH  18  19
ATOM     19  C   UNL     1       2.101   2.492  20.180  0.00  0.00    +0.000 C 
BRANCH  19  20
ATOM     20  C   UNL     1       3.559   2.426  20.620  0.00  0.00    +0.000 C 
BRANCH  20  21
ATOM     21  C   UNL     1       4.518   2.716  19.460  0.00  0.00    +0.000 C 
BRANCH  21  22
ATOM     22  C   UNL     1       5.086   4.134  19.450  0.00  0.00    +0.000 C 
BRANCH  22  23
ATOM     23  C   UNL     1       5.989   4.467  18.299  0.00  0.00    +0.000 A 
ATOM     24  N   UNL     1       7.322   4.543  18.427  0.00  0.00    +0.000 NA
ATOM     25  O   UNL     1       7.765   4.636  17.102  0.00  0.00    +0.000 OA
ATOM     26  C   UNL     1       6.648   4.640  16.315  0.00  0.00    +0.000 A 
ATOM     27  N   UNL     1       5.537   4.602  17.003  0.00  0.00    +0.000 NA
BRANCH  26  28
ATOM     28  C   UNL     1       6.802   4.546  14.870  0.00  0.00    +0.000 C 
ATOM     29  N   UNL     1       7.750   5.350  14.289  0.00  0.00    +0.000 N 
ATOM     30  O   UNL     1       6.118   3.836  14.129  0.00  0.00    +0.000 OA
ATOM     31  H   UNL     1       8.192   6.099  14.816  0.00  0.00    +0.000 HD
ATOM     32  H   UNL     1       7.736   5.424  13.278  0.00  0.00    +0.000 HD
ENDBRANCH  26  28
ENDBRANCH  22  23
ENDBRANCH  21  22
ENDBRANCH  20  21
ENDBRANCH  19  20
ENDBRANCH  18  19
ENDBRANCH  17  18
ENDBRANCH   1  17
TORSDOF 15
ENDMDL
MODEL 9
REMARK VINA RESULT:      -6.3      6.868      8.784
REMARK  Name = 
REMARK  15 active torsions:
REMARK  status: ('A' for Active; 'I' for Inactive)
REMARK    1  A    between atoms: C_2  and  C_4
REMARK    2  A    between atoms: C_6  and  C_7
REMARK    3  A    between atoms: C_7  and  C_8
REMARK    4  A    between atoms: C_8  and  C_9
REMARK    5  A    between atoms: C_9  and  C_10
REMARK    6  A    between atoms: C_10  and  C_11
REMARK    7  A    between atoms: C_11  and  C_12
REMARK    8  A    between atoms: C_12  and  C_13
REMARK    9  A    between atoms: C_13  and  C_14
REMARK   10  A    between atoms: C_14  and  C_15
REMARK   11  A    between atoms: C_15  and  C_16
REMARK   12  A    between atoms: C_16  and  C_17
REMARK   13  A    between atoms: C_17  and  C_18
REMARK   14  A    between atoms: C_18  and  C_19
REMARK   15  A    between atoms: C_22  and  C_23
REMARK                            x       y       z     vdW  Elec       q    Type
REMARK                         _______ _______ _______ _____ _____    ______ ____
ROOT
ATOM      1  C   UNL     1       7.825   8.001  17.582  0.00  0.00    +0.000 C 
ENDROOT
BRANCH   1   2
ATOM      2  C   UNL     1       7.504   6.608  18.132  0.00  0.00    +0.000 C 
BRANCH   2   3
ATOM      3  C   UNL     1       7.197   5.545  17.069  0.00  0.00    +0.000 C 
BRANCH   3   4
ATOM      4  C   UNL     1       6.143   5.975  16.042  0.00  0.00    +0.000 C 
BRANCH   4   5
ATOM      5  C   UNL     1       5.215   4.830  15.592  0.00  0.00    +0.000 C 
BRANCH   5   6
ATOM      6  C   UNL     1       4.964   3.711  16.617  0.00  0.00    +0.000 C 
BRANCH   6   9
ATOM      7  C   UNL     1       2.432   4.198  18.984  0.00  0.00    +0.000 A 
ATOM      8  N   UNL     1       3.646   4.538  18.591  0.00  0.00    +0.000 NA
ATOM      9  C   UNL     1       3.707   3.922  17.362  0.00  0.00    +0.000 A 
ATOM     10  N   UNL     1       2.566   3.385  16.942  0.00  0.00    +0.000 NA
ATOM     11  O   UNL     1       1.744   3.510  18.040  0.00  0.00    +0.000 OA
BRANCH   7  13
ATOM     12  N   UNL     1       2.456   5.453  20.997  0.00  0.00    +0.000 N 
ATOM     13  C   UNL     1       1.758   4.576  20.207  0.00  0.00    +0.000 C 
ATOM     14  O   UNL     1       0.633   4.230  20.563  0.00  0.00    +0.000 OA
ATOM     15  H   UNL     1       2.016   5.735  21.864  0.00  0.00    +0.000 HD
ATOM     16  H   UNL     1       3.452   5.568  20.870  0.00  0.00    +0.000 HD
ENDBRANCH   7  13
ENDBRANCH   6   9
ENDBRANCH   5   6
ENDBRANCH   4   5
ENDBRANCH   3   4
ENDBRANCH   2   3
ENDBRANCH   1   2
BRANCH   1  17
ATOM     17  C   UNL     1       8.575   8.896  18.572  0.00  0.00    +0.000 C 
BRANCH  17  18
ATOM     18  C   UNL     1       8.864  10.301  18.031  0.00  0.00    +0.000 C 
BRANCH  18  19
ATOM     19  C   UNL     1       9.275  11.281  19.129  0.00  0.00    +0.000 C 
BRANCH  19  20
ATOM     20  C   UNL     1      10.704  11.066  19.615  0.00  0.00    +0.000 C 
BRANCH  20  21
ATOM     21  C   UNL     1      11.217  12.262  20.424  0.00  0.00    +0.000 C 
BRANCH  21  22
ATOM     22  C   UNL     1      10.189  13.375  20.627  0.00  0.00    +0.000 C 
BRANCH  22  23
ATOM     23  C   UNL     1      10.529  14.697  20.004  0.00  0.00    +0.000 A 
ATOM     24  N   UNL     1      11.402  15.551  20.558  0.00  0.00    +0.000 NA
ATOM     25  O   UNL     1      11.589  16.511  19.556  0.00  0.00    +0.000 OA
ATOM     26  C   UNL     1      10.782  16.152  18.514  0.00  0.00    +0.000 A 
ATOM     27  N   UNL     1      10.067  15.085  18.764  0.00  0.00    +0.000 NA
BRANCH  26  28
ATOM     28  C   UNL     1      10.899  16.867  17.252  0.00  0.00    +0.000 C 
ATOM     29  N   UNL     1      10.745  16.134  16.101  0.00  0.00    +0.000 N 
ATOM     30  O   UNL     1      11.170  18.065  17.138  0.00  0.00    +0.000 OA
ATOM     31  H   UNL     1      10.729  15.118  16.130  0.00  0.00    +0.000 HD
ATOM     32  H   UNL     1      11.004  16.583  15.230  0.00  0.00    +0.000 HD
ENDBRANCH  26  28
ENDBRANCH  22  23
ENDBRANCH  21  22
ENDBRANCH  20  21
ENDBRANCH  19  20
ENDBRANCH  18  19
ENDBRANCH  17  18
ENDBRANCH   1  17
TORSDOF 15
ENDMDL
