MODEL 1
REMARK VINA RESULT:      -8.1      0.000      0.000
REMARK  Name = 
REMARK  5 active torsions:
REMARK  status: ('A' for Active; 'I' for Inactive)
REMARK    1  A    between atoms: C_1  and  C_2
REMARK    2  A    between atoms: C_2  and  C_3
REMARK    3  A    between atoms: C_6  and  N_7
REMARK    4  A    between atoms: N_7  and  C_8
REMARK    5  A    between atoms: C_10  and  C_11
REMARK                            x       y       z     vdW  Elec       q    Type
REMARK                         _______ _______ _______ _____ _____    ______ ____
ROOT
ATOM      1  C   UNL     1       4.051   3.750  18.146  0.00  0.00    +0.000 A 
ATOM      2  N   UNL     1       3.403   4.537  17.271  0.00  0.00    +0.000 NA
ATOM      3  C   UNL     1       2.380   5.222  17.746  0.00  0.00    +0.000 A 
ATOM      4  C   UNL     1       2.788   6.618  18.151  0.00  0.00    +0.000 C 
ATOM      5  N   UNL     1       1.522   4.708  18.612  0.00  0.00    +0.000 NA
ATOM      6  C   UNL     1       2.057   3.866  19.476  0.00  0.00    +0.000 A 
ATOM      7  C   UNL     1       1.270   3.741  20.610  0.00  0.00    +0.000 A 
ATOM      8  C   UNL     1       1.667   2.974  21.695  0.00  0.00    +0.000 A 
ATOM      9  C   UNL     1       2.844   2.252  21.581  0.00  0.00    +0.000 A 
ATOM     10  C   UNL     1       3.681   2.414  20.452  0.00  0.00    +0.000 A 
ATOM     11  C   UNL     1       3.344   3.296  19.353  0.00  0.00    +0.000 A 
ENDROOT
BRANCH   1  12
ATOM     12  N   UNL     1       5.468   3.775  17.928  0.00  0.00    +0.000 N 
ATOM     13  H   UNL     1       5.741   3.173  17.158  0.00  0.00    +0.000 HD
BRANCH  12  17
ATOM     14  C   UNL     1       7.651   7.578  17.865  0.00  0.00    +0.000 A 
ATOM     15  C   UNL     1       7.910   6.595  18.850  0.00  0.00    +0.000 A 
ATOM     16  C   UNL     1       7.206   5.339  18.840  0.00  0.00    +0.000 A 
ATOM     17  C   UNL     1       6.224   5.025  17.893  0.00  0.00    +0.000 A 
ATOM     18  C   UNL     1       6.015   5.985  16.895  0.00  0.00    +0.000 A 
ATOM     19  C   UNL     1       6.705   7.231  16.894  0.00  0.00    +0.000 A 
BRANCH  14  21
ATOM     20  C   UNL     1       9.012   9.574  18.986  0.00  0.00    +0.000 C 
ATOM     21  C   UNL     1       8.282   8.963  17.789  0.00  0.00    +0.000 C 
ENDBRANCH  14  21
ENDBRANCH  12  17
ENDBRANCH   1  12
TORSDOF 3
ENDMDL
MODEL 2
REMARK VINA RESULT:      -8.1      1.447      2.468
REMARK  Name = 
REMARK  5 active torsions:
REMARK  status: ('A' for Active; 'I' for Inactive)
REMARK    1  A    between atoms: C_1  and  C_2
REMARK    2  A    between atoms: C_2  and  C_3
REMARK    3  A    between atoms: C_6  and  N_7
REMARK    4  A    between atoms: N_7  and  C_8
REMARK    5  A    between atoms: C_10  and  C_11
REMARK                            x       y       z     vdW  Elec       q    Type
REMARK                         _______ _______ _______ _____ _____    ______ ____
ROOT
ATOM      1  C   UNL     1       4.972   3.927  19.174  0.00  0.00    +0.000 A 
ATOM      2  N   UNL     1       5.022   2.624  19.496  0.00  0.00    +0.000 NA
ATOM      3  C   UNL     1       3.869   2.047  19.781  0.00  0.00    +0.000 A 
ATOM      4  C   UNL     1       3.283   1.357  18.573  0.00  0.00    +0.000 C 
ATOM      5  N   UNL     1       2.928   2.652  20.486  0.00  0.00    +0.000 NA
ATOM      6  C   UNL     1       2.846   3.954  20.285  0.00  0.00    +0.000 A 
ATOM      7  C   UNL     1       1.598   4.440  20.643  0.00  0.00    +0.000 A 
ATOM      8  C   UNL     1       1.246   5.766  20.445  0.00  0.00    +0.000 A 
ATOM      9  C   UNL     1       2.216   6.628  19.957  0.00  0.00    +0.000 A 
ATOM     10  C   UNL     1       3.473   6.132  19.539  0.00  0.00    +0.000 A 
ATOM     11  C   UNL     1       3.827   4.730  19.630  0.00  0.00    +0.000 A 
ENDROOT
BRANCH   1  12
ATOM     12  N   UNL     1       5.886   4.243  18.116  0.00  0.00    +0.000 N 
ATOM     13  H   UNL     1       5.502   4.013  17.205  0.00  0.00    +0.000 HD
BRANCH  12  17
ATOM     14  C   UNL     1       7.945   8.114  18.010  0.00  0.00    +0.000 A 
ATOM     15  C   UNL     1       8.346   7.089  18.900  0.00  0.00    +0.000 A 
ATOM     16  C   UNL     1       7.679   5.814  18.902  0.00  0.00    +0.000 A 
ATOM     17  C   UNL     1       6.599   5.517  18.063  0.00  0.00    +0.000 A 
ATOM     18  C   UNL     1       6.247   6.522  17.153  0.00  0.00    +0.000 A 
ATOM     19  C   UNL     1       6.898   7.788  17.140  0.00  0.00    +0.000 A 
BRANCH  14  21
ATOM     20  C   UNL     1       9.191  10.172  19.152  0.00  0.00    +0.000 C 
ATOM     21  C   UNL     1       8.525   9.522  17.939  0.00  0.00    +0.000 C 
ENDBRANCH  14  21
ENDBRANCH  12  17
ENDBRANCH   1  12
TORSDOF 3
ENDMDL
MODEL 3
REMARK VINA RESULT:      -8.0      2.472      5.718
REMARK  Name = 
REMARK  5 active torsions:
REMARK  status: ('A' for Active; 'I' for Inactive)
REMARK    1  A    between atoms: C_1  and  C_2
REMARK    2  A    between atoms: C_2  and  C_3
REMARK    3  A    between atoms: C_6  and  N_7
REMARK    4  A    between atoms: N_7  and  C_8
REMARK    5  A    between atoms: C_10  and  C_11
REMARK                            x       y       z     vdW  Elec       q    Type
REMARK                         _______ _______ _______ _____ _____    ______ ____
ROOT
ATOM      1  C   UNL     1       5.444   4.290  18.122  0.00  0.00    +0.000 A 
ATOM      2  N   UNL     1       6.519   4.425  18.916  0.00  0.00    +0.000 NA
ATOM      3  C   UNL     1       7.593   4.957  18.362  0.00  0.00    +0.000 A 
ATOM      4  C   UNL     1       7.667   6.444  18.613  0.00  0.00    +0.000 C 
ATOM      5  N   UNL     1       7.975   4.663  17.130  0.00  0.00    +0.000 NA
ATOM      6  C   UNL     1       6.982   4.447  16.287  0.00  0.00    +0.000 A 
ATOM      7  C   UNL     1       7.390   4.624  14.974  0.00  0.00    +0.000 A 
ATOM      8  C   UNL     1       6.500   4.531  13.914  0.00  0.00    +0.000 A 
ATOM      9  C   UNL     1       5.194   4.163  14.195  0.00  0.00    +0.000 A 
ATOM     10  C   UNL     1       4.755   4.033  15.533  0.00  0.00    +0.000 A 
ATOM     11  C   UNL     1       5.638   4.234  16.666  0.00  0.00    +0.000 A 
ENDROOT
BRANCH   1  12
ATOM     12  N   UNL     1       4.230   4.584  18.825  0.00  0.00    +0.000 N 
ATOM     13  H   UNL     1       4.269   4.274  19.791  0.00  0.00    +0.000 HD
BRANCH  12  17
ATOM     14  C   UNL     1       2.208   8.461  18.475  0.00  0.00    +0.000 A 
ATOM     15  C   UNL     1       1.994   7.615  19.590  0.00  0.00    +0.000 A 
ATOM     16  C   UNL     1       2.687   6.359  19.705  0.00  0.00    +0.000 A 
ATOM     17  C   UNL     1       3.579   5.889  18.733  0.00  0.00    +0.000 A 
ATOM     18  C   UNL     1       3.820   6.759  17.662  0.00  0.00    +0.000 A 
ATOM     19  C   UNL     1       3.140   8.004  17.537  0.00  0.00    +0.000 A 
BRANCH  14  21
ATOM     20  C   UNL     1       0.080  10.046  18.691  0.00  0.00    +0.000 C 
ATOM     21  C   UNL     1       1.504   9.785  18.202  0.00  0.00    +0.000 C 
ENDBRANCH  14  21
ENDBRANCH  12  17
ENDBRANCH   1  12
TORSDOF 3
ENDMDL
MODEL 4
REMARK VINA RESULT:      -8.0      2.968      5.575
REMARK  Name = 
REMARK  5 active torsions:
REMARK  status: ('A' for Active; 'I' for Inactive)
REMARK    1  A    between atoms: C_1  and  C_2
REMARK    2  A    between atoms: C_2  and  C_3
REMARK    3  A    between atoms: C_6  and  N_7
REMARK    4  A    between atoms: N_7  and  C_8
REMARK    5  A    between atoms: C_10  and  C_11
REMARK                            x       y       z     vdW  Elec       q    Type
REMARK                         _______ _______ _______ _____ _____    ______ ____
ROOT
ATOM      1  C   UNL     1       3.689   6.366  17.842  0.00  0.00    +0.000 A 
ATOM      2  N   UNL     1       4.998   6.477  17.560  0.00  0.00    +0.000 NA
ATOM      3  C   UNL     1       5.566   5.427  16.996  0.00  0.00    +0.000 A 
ATOM      4  C   UNL     1       5.599   5.558  15.492  0.00  0.00    +0.000 C 
ATOM      5  N   UNL     1       5.285   4.187  17.359  0.00  0.00    +0.000 NA
ATOM      6  C   UNL     1       4.029   3.994  17.719  0.00  0.00    +0.000 A 
ATOM      7  C   UNL     1       3.678   2.657  17.620  0.00  0.00    +0.000 A 
ATOM      8  C   UNL     1       2.384   2.221  17.865  0.00  0.00    +0.000 A 
ATOM      9  C   UNL     1       1.460   3.154  18.308  0.00  0.00    +0.000 A 
ATOM     10  C   UNL     1       1.793   4.528  18.361  0.00  0.00    +0.000 A 
ATOM     11  C   UNL     1       3.106   5.025  18.001  0.00  0.00    +0.000 A 
ENDROOT
BRANCH   1  12
ATOM     12  N   UNL     1       2.990   7.591  17.584  0.00  0.00    +0.000 N 
ATOM     13  H   UNL     1       2.527   7.577  16.681  0.00  0.00    +0.000 HD
BRANCH  12  17
ATOM     14  C   UNL     1       0.511   9.528  20.640  0.00  0.00    +0.000 A 
ATOM     15  C   UNL     1       0.539   9.999  19.306  0.00  0.00    +0.000 A 
ATOM     16  C   UNL     1       1.336   9.335  18.307  0.00  0.00    +0.000 A 
ATOM     17  C   UNL     1       2.135   8.221  18.588  0.00  0.00    +0.000 A 
ATOM     18  C   UNL     1       2.057   7.734  19.899  0.00  0.00    +0.000 A 
ATOM     19  C   UNL     1       1.273   8.383  20.896  0.00  0.00    +0.000 A 
BRANCH  14  21
ATOM     20  C   UNL     1      -0.252   9.524  23.191  0.00  0.00    +0.000 C 
ATOM     21  C   UNL     1      -0.242  10.164  21.803  0.00  0.00    +0.000 C 
ENDBRANCH  14  21
ENDBRANCH  12  17
ENDBRANCH   1  12
TORSDOF 3
ENDMDL
MODEL 5
REMARK VINA RESULT:      -7.9      2.989      5.487
REMARK  Name = 
REMARK  5 active torsions:
REMARK  status: ('A' for Active; 'I' for Inactive)
REMARK    1  A    between atoms: C_1  and  C_2
REMARK    2  A    between atoms: C_2  and  C_3
REMARK    3  A    between atoms: C_6  and  N_7
REMARK    4  A    between atoms: N_7  and  C_8
REMARK    5  A    between atoms: C_10  and  C_11
REMARK                            x       y       z     vdW  Elec       q    Type
REMARK                         _______ _______ _______ _____ _____    ______ ____
ROOT
ATOM      1  C   UNL     1       3.667   6.322  17.784  0.00  0.00    +0.000 A 
ATOM      2  N   UNL     1       4.966   6.441  17.465  0.00  0.00    +0.000 NA
ATOM      3  C   UNL     1       5.522   5.398  16.877  0.00  0.00    +0.000 A 
ATOM      4  C   UNL     1       5.510   5.539  15.374  0.00  0.00    +0.000 C 
ATOM      5  N   UNL     1       5.257   4.154  17.240  0.00  0.00    +0.000 NA
ATOM      6  C   UNL     1       4.014   3.953  17.635  0.00  0.00    +0.000 A 
ATOM      7  C   UNL     1       3.665   2.615  17.537  0.00  0.00    +0.000 A 
ATOM      8  C   UNL     1       2.382   2.172  17.818  0.00  0.00    +0.000 A 
ATOM      9  C   UNL     1       1.466   3.097  18.294  0.00  0.00    +0.000 A 
ATOM     10  C   UNL     1       1.795   4.472  18.346  0.00  0.00    +0.000 A 
ATOM     11  C   UNL     1       3.095   4.978  17.951  0.00  0.00    +0.000 A 
ENDROOT
BRANCH   1  12
ATOM     12  N   UNL     1       2.955   7.546  17.555  0.00  0.00    +0.000 N 
ATOM     13  H   UNL     1       2.423   7.515  16.691  0.00  0.00    +0.000 HD
BRANCH  12  17
ATOM     14  C   UNL     1       0.550   9.475  20.674  0.00  0.00    +0.000 A 
ATOM     15  C   UNL     1       1.311   8.312  20.943  0.00  0.00    +0.000 A 
ATOM     16  C   UNL     1       2.118   7.707  19.916  0.00  0.00    +0.000 A 
ATOM     17  C   UNL     1       2.184   8.202  18.608  0.00  0.00    +0.000 A 
ATOM     18  C   UNL     1       1.468   9.382  18.371  0.00  0.00    +0.000 A 
ATOM     19  C   UNL     1       0.666   9.990  19.378  0.00  0.00    +0.000 A 
BRANCH  14  21
ATOM     20  C   UNL     1      -0.434   9.800  23.127  0.00  0.00    +0.000 C 
ATOM     21  C   UNL     1      -0.383  10.184  21.648  0.00  0.00    +0.000 C 
ENDBRANCH  14  21
ENDBRANCH  12  17
ENDBRANCH   1  12
TORSDOF 3
ENDMDL
MODEL 6
REMARK VINA RESULT:      -7.9      3.039      5.456
REMARK  Name = 
REMARK  5 active torsions:
REMARK  status: ('A' for Active; 'I' for Inactive)
REMARK    1  A    between atoms: C_1  and  C_2
REMARK    2  A    between atoms: C_2  and  C_3
REMARK    3  A    between atoms: C_6  and  N_7
REMARK    4  A    between atoms: N_7  and  C_8
REMARK    5  A    between atoms: C_10  and  C_11
REMARK                            x       y       z     vdW  Elec       q    Type
REMARK                         _______ _______ _______ _____ _____    ______ ____
ROOT
ATOM      1  C   UNL     1       3.539   5.682  18.917  0.00  0.00    +0.000 A 
ATOM      2  N   UNL     1       4.872   5.696  19.080  0.00  0.00    +0.000 NA
ATOM      3  C   UNL     1       5.508   4.575  18.795  0.00  0.00    +0.000 A 
ATOM      4  C   UNL     1       6.041   4.585  17.382  0.00  0.00    +0.000 C 
ATOM      5  N   UNL     1       5.026   3.385  19.112  0.00  0.00    +0.000 NA
ATOM      6  C   UNL     1       3.711   3.293  19.046  0.00  0.00    +0.000 A 
ATOM      7  C   UNL     1       3.306   1.974  18.910  0.00  0.00    +0.000 A 
ATOM      8  C   UNL     1       1.973   1.633  18.737  0.00  0.00    +0.000 A 
ATOM      9  C   UNL     1       1.032   2.648  18.796  0.00  0.00    +0.000 A 
ATOM     10  C   UNL     1       1.438   4.001  18.880  0.00  0.00    +0.000 A 
ATOM     11  C   UNL     1       2.831   4.393  18.948  0.00  0.00    +0.000 A 
ENDROOT
BRANCH   1  12
ATOM     12  N   UNL     1       3.062   6.921  18.374  0.00  0.00    +0.000 N 
ATOM     13  H   UNL     1       2.717   6.809  17.426  0.00  0.00    +0.000 HD
BRANCH  12  17
ATOM     14  C   UNL     1       0.531   9.641  20.704  0.00  0.00    +0.000 A 
ATOM     15  C   UNL     1       0.834   9.898  19.345  0.00  0.00    +0.000 A 
ATOM     16  C   UNL     1       1.642   8.980  18.586  0.00  0.00    +0.000 A 
ATOM     17  C   UNL     1       2.190   7.814  19.133  0.00  0.00    +0.000 A 
ATOM     18  C   UNL     1       1.839   7.547  20.463  0.00  0.00    +0.000 A 
ATOM     19  C   UNL     1       1.041   8.447  21.225  0.00  0.00    +0.000 A 
BRANCH  14  21
ATOM     20  C   UNL     1      -0.709  10.078  23.020  0.00  0.00    +0.000 C 
ATOM     21  C   UNL     1      -0.264  10.549  21.635  0.00  0.00    +0.000 C 
ENDBRANCH  14  21
ENDBRANCH  12  17
ENDBRANCH   1  12
TORSDOF 3
ENDMDL
MODEL 7
REMARK VINA RESULT:      -7.8      0.275      1.095
REMARK  Name = 
REMARK  5 active torsions:
REMARK  status: ('A' for Active; 'I' for Inactive)
REMARK    1  A    between atoms: C_1  and  C_2
REMARK    2  A    between atoms: C_2  and  C_3
REMARK    3  A    between atoms: C_6  and  N_7
REMARK    4  A    between atoms: N_7  and  C_8
REMARK    5  A    between atoms: C_10  and  C_11
REMARK                            x       y       z     vdW  Elec       q    Type
REMARK                         _______ _______ _______ _____ _____    ______ ____
ROOT
ATOM      1  C   UNL     1       4.215   3.668  18.400  0.00  0.00    +0.000 A 
ATOM      2  N   UNL     1       3.637   4.357  17.402  0.00  0.00    +0.000 NA
ATOM      3  C   UNL     1       2.505   4.970  17.693  0.00  0.00    +0.000 A 
ATOM      4  C   UNL     1       2.739   6.413  18.072  0.00  0.00    +0.000 C 
ATOM      5  N   UNL     1       1.577   4.422  18.460  0.00  0.00    +0.000 NA
ATOM      6  C   UNL     1       2.050   3.668  19.435  0.00  0.00    +0.000 A 
ATOM      7  C   UNL     1       1.122   3.525  20.454  0.00  0.00    +0.000 A 
ATOM      8  C   UNL     1       1.421   2.844  21.625  0.00  0.00    +0.000 A 
ATOM      9  C   UNL     1       2.656   2.222  21.715  0.00  0.00    +0.000 A 
ATOM     10  C   UNL     1       3.629   2.407  20.704  0.00  0.00    +0.000 A 
ATOM     11  C   UNL     1       3.382   3.207  19.522  0.00  0.00    +0.000 A 
ENDROOT
BRANCH   1  12
ATOM     12  N   UNL     1       5.642   3.806  18.379  0.00  0.00    +0.000 N 
ATOM     13  H   UNL     1       6.078   3.112  17.781  0.00  0.00    +0.000 HD
BRANCH  12  17
ATOM     14  C   UNL     1       7.678   7.653  17.842  0.00  0.00    +0.000 A 
ATOM     15  C   UNL     1       6.642   7.240  16.971  0.00  0.00    +0.000 A 
ATOM     16  C   UNL     1       5.963   5.987  17.177  0.00  0.00    +0.000 A 
ATOM     17  C   UNL     1       6.291   5.104  18.213  0.00  0.00    +0.000 A 
ATOM     18  C   UNL     1       7.282   5.550  19.097  0.00  0.00    +0.000 A 
ATOM     19  C   UNL     1       7.961   6.787  18.904  0.00  0.00    +0.000 A 
BRANCH  14  21
ATOM     20  C   UNL     1       8.938   9.729  18.936  0.00  0.00    +0.000 C 
ATOM     21  C   UNL     1       8.511   8.922  17.709  0.00  0.00    +0.000 C 
ENDBRANCH  14  21
ENDBRANCH  12  17
ENDBRANCH   1  12
TORSDOF 3
ENDMDL
MODEL 8
REMARK VINA RESULT:      -7.8      2.808      5.930
REMARK  Name = 
REMARK  5 active torsions:
REMARK  status: ('A' for Active; 'I' for Inactive)
REMARK    1  A    between atoms: C_1  and  C_2
REMARK    2  A    between atoms: C_2  and  C_3
REMARK    3  A    between atoms: C_6  and  N_7
REMARK    4  A    between atoms: N_7  and  C_8
REMARK    5  A    between atoms: C_10  and  C_11
REMARK                            x       y       z     vdW  Elec       q    Type
REMARK                         _______ _______ _______ _____ _____    ______ ____
ROOT
ATOM      1  C   UNL     1       3.141   5.308  18.753  0.00  0.00    +0.000 A 
ATOM      2  N   UNL     1       2.630   4.147  19.194  0.00  0.00    +0.000 NA
ATOM      3  C   UNL     1       3.272   3.051  18.838  0.00  0.00    +0.000 A 
ATOM      4  C   UNL     1       4.249   2.611  19.901  0.00  0.00    +0.000 C 
ATOM      5  N   UNL     1       3.782   2.889  17.628  0.00  0.00    +0.000 NA
ATOM      6  C   UNL     1       4.254   3.994  17.081  0.00  0.00    +0.000 A 
ATOM      7  C   UNL     1       5.173   3.709  16.084  0.00  0.00    +0.000 A 
ATOM      8  C   UNL     1       5.866   4.711  15.421  0.00  0.00    +0.000 A 
ATOM      9  C   UNL     1       5.547   6.026  15.719  0.00  0.00    +0.000 A 
ATOM     10  C   UNL     1       4.650   6.327  16.771  0.00  0.00    +0.000 A 
ATOM     11  C   UNL     1       3.996   5.299  17.556  0.00  0.00    +0.000 A 
ENDROOT
BRANCH   1  12
ATOM     12  N   UNL     1       3.055   6.335  19.750  0.00  0.00    +0.000 N 
ATOM     13  H   UNL     1       3.968   6.578  20.120  0.00  0.00    +0.000 HD
BRANCH  12  17
ATOM     14  C   UNL     1       0.547   9.878  19.122  0.00  0.00    +0.000 A 
ATOM     15  C   UNL     1       0.655   9.266  20.394  0.00  0.00    +0.000 A 
ATOM     16  C   UNL     1       1.505   8.121  20.591  0.00  0.00    +0.000 A 
ATOM     17  C   UNL     1       2.245   7.535  19.557  0.00  0.00    +0.000 A 
ATOM     18  C   UNL     1       2.170   8.182  18.317  0.00  0.00    +0.000 A 
ATOM     19  C   UNL     1       1.332   9.315  18.110  0.00  0.00    +0.000 A 
BRANCH  14  21
ATOM     20  C   UNL     1      -1.778  10.845  18.260  0.00  0.00    +0.000 C 
ATOM     21  C   UNL     1      -0.350  11.056  18.764  0.00  0.00    +0.000 C 
ENDBRANCH  14  21
ENDBRANCH  12  17
ENDBRANCH   1  12
TORSDOF 3
ENDMDL
MODEL 9
REMARK VINA RESULT:      -7.8      2.920      5.433
REMARK  Name = 
REMARK  5 active torsions:
REMARK  status: ('A' for Active; 'I' for Inactive)
REMARK    1  A    between atoms: C_1  and  C_2
REMARK    2  A    between atoms: C_2  and  C_3
REMARK    3  A    between atoms: C_6  and  N_7
REMARK    4  A    between atoms: N_7  and  C_8
REMARK    5  A    between atoms: C_10  and  C_11
REMARK                            x       y       z     vdW  Elec       q    Type
REMARK                         _______ _______ _______ _____ _____    ______ ____
ROOT
ATOM      1  C   UNL     1       3.684   5.776  18.772  0.00  0.00    +0.000 A 
ATOM      2  N   UNL     1       4.986   5.779  19.102  0.00  0.00    +0.000 NA
ATOM      3  C   UNL     1       5.621   4.627  18.990  0.00  0.00    +0.000 A 
ATOM      4  C   UNL     1       6.326   4.511  17.660  0.00  0.00    +0.000 C 
ATOM      5  N   UNL     1       5.068   3.476  19.337  0.00  0.00    +0.000 NA
ATOM      6  C   UNL     1       3.770   3.402  19.110  0.00  0.00    +0.000 A 
ATOM      7  C   UNL     1       3.348   2.085  19.029  0.00  0.00    +0.000 A 
ATOM      8  C   UNL     1       2.038   1.755  18.715  0.00  0.00    +0.000 A 
ATOM      9  C   UNL     1       1.126   2.789  18.572  0.00  0.00    +0.000 A 
ATOM     10  C   UNL     1       1.557   4.136  18.600  0.00  0.00    +0.000 A 
ATOM     11  C   UNL     1       2.941   4.508  18.815  0.00  0.00    +0.000 A 
ENDROOT
BRANCH   1  12
ATOM     12  N   UNL     1       3.315   6.975  18.077  0.00  0.00    +0.000 N 
ATOM     13  H   UNL     1       3.140   6.800  17.093  0.00  0.00    +0.000 HD
BRANCH  12  17
ATOM     14  C   UNL     1       0.432   9.834  19.735  0.00  0.00    +0.000 A 
ATOM     15  C   UNL     1       0.787   9.855  18.365  0.00  0.00    +0.000 A 
ATOM     16  C   UNL     1       1.713   8.891  17.829  0.00  0.00    +0.000 A 
ATOM     17  C   UNL     1       2.327   7.908  18.614  0.00  0.00    +0.000 A 
ATOM     18  C   UNL     1       1.927   7.867  19.955  0.00  0.00    +0.000 A 
ATOM     19  C   UNL     1       1.013   8.815  20.497  0.00  0.00    +0.000 A 
BRANCH  14  21
ATOM     20  C   UNL     1      -1.522  11.642  19.666  0.00  0.00    +0.000 C 
ATOM     21  C   UNL     1      -0.490  10.822  20.440  0.00  0.00    +0.000 C 
ENDBRANCH  14  21
ENDBRANCH  12  17
ENDBRANCH   1  12
TORSDOF 3
ENDMDL
