MODEL 1
REMARK VINA RESULT:      -7.1      0.000      0.000
REMARK  Name = 
REMARK  7 active torsions:
REMARK  status: ('A' for Active; 'I' for Inactive)
REMARK    1  A    between atoms: C_1  and  O_2
REMARK    2  A    between atoms: O_2  and  C_3
REMARK    3  A    between atoms: C_5  and  N_6
REMARK    4  A    between atoms: C_10  and  C_11
REMARK    5  A    between atoms: N_13  and  C_14
REMARK    6  A    between atoms: N_17  and  C_18
REMARK    7  A    between atoms: C_18  and  C_19
REMARK                            x       y       z     vdW  Elec       q    Type
REMARK                         _______ _______ _______ _____ _____    ______ ____
ROOT
ATOM      1  C   UNL     1       2.595   7.824  18.208  0.00  0.00    +0.000 C 
ATOM      2  O   UNL     1       2.708   8.318  17.090  0.00  0.00    +0.000 OA
ATOM      3  N   UNL     1       1.904   8.454  19.217  0.00  0.00    +0.000 N 
ATOM      4  H   UNL     1       1.934   8.039  20.143  0.00  0.00    +0.000 HD
ENDROOT
BRANCH   1  11
ATOM      5  C   UNL     1       4.414   6.011  17.931  0.00  0.00    +0.000 A 
ATOM      6  C   UNL     1       4.914   4.760  18.332  0.00  0.00    +0.000 A 
ATOM      7  C   UNL     1       4.227   3.953  19.250  0.00  0.00    +0.000 A 
ATOM      8  C   UNL     1       3.057   4.460  19.834  0.00  0.00    +0.000 A 
ATOM      9 CL   UNL     1       2.194   3.540  21.017  0.00  0.00    +0.000 Cl
ATOM     10  C   UNL     1       2.553   5.705  19.460  0.00  0.00    +0.000 A 
ATOM     11  C   UNL     1       3.225   6.497  18.513  0.00  0.00    +0.000 A 
BRANCH   7  12
ATOM     12  N   UNL     1       4.845   2.782  19.725  0.00  0.00    +0.000 N 
ATOM     13  H   UNL     1       5.857   2.771  19.659  0.00  0.00    +0.000 HD
ATOM     14  H   UNL     1       4.416   1.933  19.357  0.00  0.00    +0.000 HD
ENDBRANCH   7  12
BRANCH   5  16
ATOM     15  C   UNL     1       5.290   6.284  15.728  0.00  0.00    +0.000 C 
ATOM     16  O   UNL     1       5.074   6.814  17.033  0.00  0.00    +0.000 OA
ENDBRANCH   5  16
ENDBRANCH   1  11
BRANCH   3  17
ATOM     17  C   UNL     1       1.345   9.790  19.065  0.00  0.00    +0.000 C 
ATOM     18  C   UNL     1       0.891  10.344  20.408  0.00  0.00    +0.000 C 
ATOM     19  C   UNL     1      -0.573   9.943  20.454  0.00  0.00    +0.000 C 
ATOM     20  N   UNL     1      -1.074  10.150  19.082  0.00  0.00    +0.000 NA
ATOM     21  C   UNL     1       0.065   9.782  18.208  0.00  0.00    +0.000 C 
BRANCH  20  22
ATOM     22  C   UNL     1      -1.488  11.555  18.896  0.00  0.00    +0.000 C 
BRANCH  22  23
ATOM     23  C   UNL     1      -2.957  11.729  18.575  0.00  0.00    +0.000 A 
ATOM     24  C   UNL     1      -3.841  12.271  19.517  0.00  0.00    +0.000 A 
ATOM     25  C   UNL     1      -5.188  12.459  19.198  0.00  0.00    +0.000 A 
ATOM     26  C   UNL     1      -5.663  12.106  17.935  0.00  0.00    +0.000 A 
ATOM     27  C   UNL     1      -4.795  11.562  16.991  0.00  0.00    +0.000 A 
ATOM     28  C   UNL     1      -3.449  11.375  17.307  0.00  0.00    +0.000 A 
ENDBRANCH  22  23
ENDBRANCH  20  22
ENDBRANCH   3  17
TORSDOF 6
ENDMDL
MODEL 2
REMARK VINA RESULT:      -7.1      3.771      8.942
REMARK  Name = 
REMARK  7 active torsions:
REMARK  status: ('A' for Active; 'I' for Inactive)
REMARK    1  A    between atoms: C_1  and  O_2
REMARK    2  A    between atoms: O_2  and  C_3
REMARK    3  A    between atoms: C_5  and  N_6
REMARK    4  A    between atoms: C_10  and  C_11
REMARK    5  A    between atoms: N_13  and  C_14
REMARK    6  A    between atoms: N_17  and  C_18
REMARK    7  A    between atoms: C_18  and  C_19
REMARK                            x       y       z     vdW  Elec       q    Type
REMARK                         _______ _______ _______ _____ _____    ______ ____
ROOT
ATOM      1  C   UNL     1       1.891   8.892  18.372  0.00  0.00    +0.000 C 
ATOM      2  O   UNL     1       2.072   8.979  17.160  0.00  0.00    +0.000 OA
ATOM      3  N   UNL     1       2.143   7.732  19.065  0.00  0.00    +0.000 N 
ATOM      4  H   UNL     1       1.878   7.698  20.045  0.00  0.00    +0.000 HD
ENDROOT
BRANCH   1  11
ATOM      5  C   UNL     1       0.650   9.996  20.351  0.00  0.00    +0.000 A 
ATOM      6  C   UNL     1       0.252  11.183  20.988  0.00  0.00    +0.000 A 
ATOM      7  C   UNL     1       0.501  12.441  20.421  0.00  0.00    +0.000 A 
ATOM      8  C   UNL     1       1.239  12.499  19.231  0.00  0.00    +0.000 A 
ATOM      9 CL   UNL     1       1.632  14.022  18.511  0.00  0.00    +0.000 Cl
ATOM     10  C   UNL     1       1.655  11.333  18.591  0.00  0.00    +0.000 A 
ATOM     11  C   UNL     1       1.374  10.071  19.143  0.00  0.00    +0.000 A 
BRANCH   7  12
ATOM     12  N   UNL     1       0.213  13.596  21.172  0.00  0.00    +0.000 N 
ATOM     13  H   UNL     1       0.964  14.276  21.224  0.00  0.00    +0.000 HD
ATOM     14  H   UNL     1      -0.191  13.382  22.085  0.00  0.00    +0.000 HD
ENDBRANCH   7  12
BRANCH   5  16
ATOM     15  C   UNL     1      -0.416   8.700  22.048  0.00  0.00    +0.000 C 
ATOM     16  O   UNL     1       0.414   8.755  20.891  0.00  0.00    +0.000 OA
ENDBRANCH   5  16
ENDBRANCH   1  11
BRANCH   3  17
ATOM     17  C   UNL     1       2.544   6.498  18.403  0.00  0.00    +0.000 C 
ATOM     18  C   UNL     1       2.022   5.284  19.158  0.00  0.00    +0.000 C 
ATOM     19  C   UNL     1       3.180   4.943  20.078  0.00  0.00    +0.000 C 
ATOM     20  N   UNL     1       4.394   5.151  19.267  0.00  0.00    +0.000 NA
ATOM     21  C   UNL     1       4.073   6.316  18.407  0.00  0.00    +0.000 C 
BRANCH  20  22
ATOM     22  C   UNL     1       4.695   3.942  18.477  0.00  0.00    +0.000 C 
BRANCH  22  23
ATOM     23  C   UNL     1       5.448   4.214  17.191  0.00  0.00    +0.000 A 
ATOM     24  C   UNL     1       4.805   4.135  15.949  0.00  0.00    +0.000 A 
ATOM     25  C   UNL     1       5.500   4.421  14.772  0.00  0.00    +0.000 A 
ATOM     26  C   UNL     1       6.845   4.787  14.827  0.00  0.00    +0.000 A 
ATOM     27  C   UNL     1       7.497   4.864  16.054  0.00  0.00    +0.000 A 
ATOM     28  C   UNL     1       6.804   4.580  17.231  0.00  0.00    +0.000 A 
ENDBRANCH  22  23
ENDBRANCH  20  22
ENDBRANCH   3  17
TORSDOF 6
ENDMDL
MODEL 3
REMARK VINA RESULT:      -7.1      2.069      2.569
REMARK  Name = 
REMARK  7 active torsions:
REMARK  status: ('A' for Active; 'I' for Inactive)
REMARK    1  A    between atoms: C_1  and  O_2
REMARK    2  A    between atoms: O_2  and  C_3
REMARK    3  A    between atoms: C_5  and  N_6
REMARK    4  A    between atoms: C_10  and  C_11
REMARK    5  A    between atoms: N_13  and  C_14
REMARK    6  A    between atoms: N_17  and  C_18
REMARK    7  A    between atoms: C_18  and  C_19
REMARK                            x       y       z     vdW  Elec       q    Type
REMARK                         _______ _______ _______ _____ _____    ______ ____
ROOT
ATOM      1  C   UNL     1       2.528   7.198  18.915  0.00  0.00    +0.000 C 
ATOM      2  O   UNL     1       2.843   8.077  18.118  0.00  0.00    +0.000 OA
ATOM      3  N   UNL     1       1.990   7.489  20.147  0.00  0.00    +0.000 N 
ATOM      4  H   UNL     1       1.845   6.720  20.795  0.00  0.00    +0.000 HD
ENDROOT
BRANCH   1  11
ATOM      5  C   UNL     1       3.870   5.228  17.917  0.00  0.00    +0.000 A 
ATOM      6  C   UNL     1       3.947   3.846  17.675  0.00  0.00    +0.000 A 
ATOM      7  C   UNL     1       2.892   2.983  18.003  0.00  0.00    +0.000 A 
ATOM      8  C   UNL     1       1.776   3.518  18.662  0.00  0.00    +0.000 A 
ATOM      9 CL   UNL     1       0.467   2.497  19.147  0.00  0.00    +0.000 Cl
ATOM     10  C   UNL     1       1.688   4.883  18.924  0.00  0.00    +0.000 A 
ATOM     11  C   UNL     1       2.732   5.753  18.563  0.00  0.00    +0.000 A 
BRANCH   7  12
ATOM     12  N   UNL     1       3.082   1.594  17.874  0.00  0.00    +0.000 N 
ATOM     13  H   UNL     1       2.454   1.020  18.424  0.00  0.00    +0.000 HD
ATOM     14  H   UNL     1       4.060   1.320  17.975  0.00  0.00    +0.000 HD
ENDBRANCH   7  12
BRANCH   5  16
ATOM     15  C   UNL     1       5.185   6.270  16.219  0.00  0.00    +0.000 C 
ATOM     16  O   UNL     1       4.893   6.089  17.603  0.00  0.00    +0.000 OA
ENDBRANCH   5  16
ENDBRANCH   1  11
BRANCH   3  17
ATOM     17  C   UNL     1       1.848   8.854  20.634  0.00  0.00    +0.000 C 
ATOM     18  C   UNL     1       1.343   8.867  22.070  0.00  0.00    +0.000 C 
ATOM     19  C   UNL     1      -0.161   8.977  21.891  0.00  0.00    +0.000 C 
ATOM     20  N   UNL     1      -0.350   9.918  20.771  0.00  0.00    +0.000 NA
ATOM     21  C   UNL     1       0.776   9.634  19.850  0.00  0.00    +0.000 C 
BRANCH  20  22
ATOM     22  C   UNL     1      -0.329  11.309  21.264  0.00  0.00    +0.000 C 
BRANCH  22  23
ATOM     23  C   UNL     1      -1.684  11.834  21.691  0.00  0.00    +0.000 A 
ATOM     24  C   UNL     1      -2.062  11.839  23.040  0.00  0.00    +0.000 A 
ATOM     25  C   UNL     1      -3.300  12.357  23.427  0.00  0.00    +0.000 A 
ATOM     26  C   UNL     1      -4.172  12.872  22.468  0.00  0.00    +0.000 A 
ATOM     27  C   UNL     1      -3.811  12.868  21.123  0.00  0.00    +0.000 A 
ATOM     28  C   UNL     1      -2.574  12.353  20.735  0.00  0.00    +0.000 A 
ENDBRANCH  22  23
ENDBRANCH  20  22
ENDBRANCH   3  17
TORSDOF 6
ENDMDL
MODEL 4
REMARK VINA RESULT:      -7.1      2.485      3.395
REMARK  Name = 
REMARK  7 active torsions:
REMARK  status: ('A' for Active; 'I' for Inactive)
REMARK    1  A    between atoms: C_1  and  O_2
REMARK    2  A    between atoms: O_2  and  C_3
REMARK    3  A    between atoms: C_5  and  N_6
REMARK    4  A    between atoms: C_10  and  C_11
REMARK    5  A    between atoms: N_13  and  C_14
REMARK    6  A    between atoms: N_17  and  C_18
REMARK    7  A    between atoms: C_18  and  C_19
REMARK                            x       y       z     vdW  Elec       q    Type
REMARK                         _______ _______ _______ _____ _____    ______ ____
ROOT
ATOM      1  C   UNL     1       2.217   8.305  18.107  0.00  0.00    +0.000 C 
ATOM      2  O   UNL     1       2.073   8.712  16.958  0.00  0.00    +0.000 OA
ATOM      3  N   UNL     1       1.530   8.851  19.166  0.00  0.00    +0.000 N 
ATOM      4  H   UNL     1       1.770   8.535  20.101  0.00  0.00    +0.000 HD
ENDROOT
BRANCH   1  11
ATOM      5  C   UNL     1       3.011   6.224  19.417  0.00  0.00    +0.000 A 
ATOM      6  C   UNL     1       3.965   5.203  19.557  0.00  0.00    +0.000 A 
ATOM      7  C   UNL     1       5.107   5.148  18.746  0.00  0.00    +0.000 A 
ATOM      8  C   UNL     1       5.240   6.096  17.722  0.00  0.00    +0.000 A 
ATOM      9 CL   UNL     1       6.596   6.048  16.648  0.00  0.00    +0.000 Cl
ATOM     10  C   UNL     1       4.297   7.108  17.558  0.00  0.00    +0.000 A 
ATOM     11  C   UNL     1       3.170   7.182  18.395  0.00  0.00    +0.000 A 
BRANCH   7  12
ATOM     12  N   UNL     1       5.950   4.024  18.830  0.00  0.00    +0.000 N 
ATOM     13  H   UNL     1       6.745   4.127  19.451  0.00  0.00    +0.000 HD
ATOM     14  H   UNL     1       6.208   3.656  17.914  0.00  0.00    +0.000 HD
ENDBRANCH   7  12
BRANCH   5  16
ATOM     15  C   UNL     1       1.285   5.059  20.585  0.00  0.00    +0.000 C 
ATOM     16  O   UNL     1       1.886   6.294  20.204  0.00  0.00    +0.000 OA
ENDBRANCH   5  16
ENDBRANCH   1  11
BRANCH   3  17
ATOM     17  C   UNL     1       0.662  10.011  19.019  0.00  0.00    +0.000 C 
ATOM     18  C   UNL     1       1.416  11.295  19.333  0.00  0.00    +0.000 C 
ATOM     19  C   UNL     1       1.121  11.500  20.808  0.00  0.00    +0.000 C 
ATOM     20  N   UNL     1      -0.295  11.122  20.977  0.00  0.00    +0.000 NA
ATOM     21  C   UNL     1      -0.495   9.995  20.035  0.00  0.00    +0.000 C 
BRANCH  20  22
ATOM     22  C   UNL     1      -1.170  12.269  20.666  0.00  0.00    +0.000 C 
BRANCH  22  23
ATOM     23  C   UNL     1      -2.341  12.428  21.612  0.00  0.00    +0.000 A 
ATOM     24  C   UNL     1      -2.220  12.104  22.969  0.00  0.00    +0.000 A 
ATOM     25  C   UNL     1      -3.297  12.286  23.840  0.00  0.00    +0.000 A 
ATOM     26  C   UNL     1      -4.505  12.793  23.361  0.00  0.00    +0.000 A 
ATOM     27  C   UNL     1      -4.640  13.114  22.013  0.00  0.00    +0.000 A 
ATOM     28  C   UNL     1      -3.565  12.934  21.142  0.00  0.00    +0.000 A 
ENDBRANCH  22  23
ENDBRANCH  20  22
ENDBRANCH   3  17
TORSDOF 6
ENDMDL
MODEL 5
REMARK VINA RESULT:      -7.1      2.940      8.778
REMARK  Name = 
REMARK  7 active torsions:
REMARK  status: ('A' for Active; 'I' for Inactive)
REMARK    1  A    between atoms: C_1  and  O_2
REMARK    2  A    between atoms: O_2  and  C_3
REMARK    3  A    between atoms: C_5  and  N_6
REMARK    4  A    between atoms: C_10  and  C_11
REMARK    5  A    between atoms: N_13  and  C_14
REMARK    6  A    between atoms: N_17  and  C_18
REMARK    7  A    between atoms: C_18  and  C_19
REMARK                            x       y       z     vdW  Elec       q    Type
REMARK                         _______ _______ _______ _____ _____    ______ ____
ROOT
ATOM      1  C   UNL     1       1.756   8.472  18.300  0.00  0.00    +0.000 C 
ATOM      2  O   UNL     1       2.399   8.821  17.313  0.00  0.00    +0.000 OA
ATOM      3  N   UNL     1       1.891   7.222  18.854  0.00  0.00    +0.000 N 
ATOM      4  H   UNL     1       1.258   6.965  19.606  0.00  0.00    +0.000 HD
ENDROOT
BRANCH   1  11
ATOM      5  C   UNL     1       0.684   9.675  20.320  0.00  0.00    +0.000 A 
ATOM      6  C   UNL     1      -0.256  10.612  20.781  0.00  0.00    +0.000 A 
ATOM      7  C   UNL     1      -1.144  11.255  19.906  0.00  0.00    +0.000 A 
ATOM      8  C   UNL     1      -1.020  11.004  18.532  0.00  0.00    +0.000 A 
ATOM      9 CL   UNL     1      -2.044  11.810  17.394  0.00  0.00    +0.000 Cl
ATOM     10  C   UNL     1      -0.085  10.088  18.054  0.00  0.00    +0.000 A 
ATOM     11  C   UNL     1       0.781   9.419  18.936  0.00  0.00    +0.000 A 
BRANCH   7  12
ATOM     12  N   UNL     1      -1.959  12.290  20.400  0.00  0.00    +0.000 N 
ATOM     13  H   UNL     1      -2.373  12.116  21.309  0.00  0.00    +0.000 HD
ATOM     14  H   UNL     1      -2.637  12.620  19.713  0.00  0.00    +0.000 HD
ENDBRANCH   7  12
BRANCH   5  16
ATOM     15  C   UNL     1       1.324   9.164  22.562  0.00  0.00    +0.000 C 
ATOM     16  O   UNL     1       1.560   9.035  21.162  0.00  0.00    +0.000 OA
ENDBRANCH   5  16
ENDBRANCH   1  11
BRANCH   3  17
ATOM     17  C   UNL     1       2.727   6.189  18.257  0.00  0.00    +0.000 C 
ATOM     18  C   UNL     1       1.935   4.906  18.045  0.00  0.00    +0.000 C 
ATOM     19  C   UNL     1       2.215   4.129  19.318  0.00  0.00    +0.000 C 
ATOM     20  N   UNL     1       3.641   4.370  19.613  0.00  0.00    +0.000 NA
ATOM     21  C   UNL     1       3.878   5.771  19.191  0.00  0.00    +0.000 C 
BRANCH  20  22
ATOM     22  C   UNL     1       4.484   3.414  18.871  0.00  0.00    +0.000 C 
BRANCH  22  23
ATOM     23  C   UNL     1       5.346   4.051  17.801  0.00  0.00    +0.000 A 
ATOM     24  C   UNL     1       6.532   4.719  18.134  0.00  0.00    +0.000 A 
ATOM     25  C   UNL     1       7.337   5.273  17.136  0.00  0.00    +0.000 A 
ATOM     26  C   UNL     1       6.962   5.166  15.796  0.00  0.00    +0.000 A 
ATOM     27  C   UNL     1       5.783   4.510  15.453  0.00  0.00    +0.000 A 
ATOM     28  C   UNL     1       4.979   3.953  16.448  0.00  0.00    +0.000 A 
ENDBRANCH  22  23
ENDBRANCH  20  22
ENDBRANCH   3  17
TORSDOF 6
ENDMDL
MODEL 6
REMARK VINA RESULT:      -7.0      0.437      1.084
REMARK  Name = 
REMARK  7 active torsions:
REMARK  status: ('A' for Active; 'I' for Inactive)
REMARK    1  A    between atoms: C_1  and  O_2
REMARK    2  A    between atoms: O_2  and  C_3
REMARK    3  A    between atoms: C_5  and  N_6
REMARK    4  A    between atoms: C_10  and  C_11
REMARK    5  A    between atoms: N_13  and  C_14
REMARK    6  A    between atoms: N_17  and  C_18
REMARK    7  A    between atoms: C_18  and  C_19
REMARK                            x       y       z     vdW  Elec       q    Type
REMARK                         _______ _______ _______ _____ _____    ______ ____
ROOT
ATOM      1  C   UNL     1       2.606   7.861  18.131  0.00  0.00    +0.000 C 
ATOM      2  O   UNL     1       2.776   8.362  17.024  0.00  0.00    +0.000 OA
ATOM      3  N   UNL     1       1.877   8.490  19.113  0.00  0.00    +0.000 N 
ATOM      4  H   UNL     1       1.860   8.067  20.036  0.00  0.00    +0.000 HD
ENDROOT
BRANCH   1  11
ATOM      5  C   UNL     1       4.399   6.015  17.896  0.00  0.00    +0.000 A 
ATOM      6  C   UNL     1       4.869   4.758  18.310  0.00  0.00    +0.000 A 
ATOM      7  C   UNL     1       4.151   3.967  19.218  0.00  0.00    +0.000 A 
ATOM      8  C   UNL     1       2.979   4.496  19.778  0.00  0.00    +0.000 A 
ATOM      9 CL   UNL     1       2.078   3.596  20.948  0.00  0.00    +0.000 Cl
ATOM     10  C   UNL     1       2.504   5.748  19.390  0.00  0.00    +0.000 A 
ATOM     11  C   UNL     1       3.208   6.524  18.453  0.00  0.00    +0.000 A 
BRANCH   7  12
ATOM     12  N   UNL     1       4.740   2.787  19.709  0.00  0.00    +0.000 N 
ATOM     13  H   UNL     1       4.209   2.306  20.427  0.00  0.00    +0.000 HD
ATOM     14  H   UNL     1       5.722   2.911  19.958  0.00  0.00    +0.000 HD
ENDBRANCH   7  12
BRANCH   5  16
ATOM     15  C   UNL     1       5.273   6.287  15.691  0.00  0.00    +0.000 C 
ATOM     16  O   UNL     1       5.089   6.803  17.007  0.00  0.00    +0.000 OA
ENDBRANCH   5  16
ENDBRANCH   1  11
BRANCH   3  17
ATOM     17  C   UNL     1       1.340   9.833  18.947  0.00  0.00    +0.000 C 
ATOM     18  C   UNL     1       0.911  10.415  20.286  0.00  0.00    +0.000 C 
ATOM     19  C   UNL     1      -0.559  10.041  20.354  0.00  0.00    +0.000 C 
ATOM     20  N   UNL     1      -1.072  10.237  18.984  0.00  0.00    +0.000 NA
ATOM     21  C   UNL     1       0.051   9.836  18.104  0.00  0.00    +0.000 C 
BRANCH  20  22
ATOM     22  C   UNL     1      -1.462  11.646  18.782  0.00  0.00    +0.000 C 
BRANCH  22  23
ATOM     23  C   UNL     1      -2.937  11.916  18.995  0.00  0.00    +0.000 A 
ATOM     24  C   UNL     1      -3.895  11.434  18.094  0.00  0.00    +0.000 A 
ATOM     25  C   UNL     1      -5.256  11.659  18.318  0.00  0.00    +0.000 A 
ATOM     26  C   UNL     1      -5.669  12.370  19.446  0.00  0.00    +0.000 A 
ATOM     27  C   UNL     1      -4.727  12.858  20.346  0.00  0.00    +0.000 A 
ATOM     28  C   UNL     1      -3.368  12.633  20.125  0.00  0.00    +0.000 A 
ENDBRANCH  22  23
ENDBRANCH  20  22
ENDBRANCH   3  17
TORSDOF 6
ENDMDL
MODEL 7
REMARK VINA RESULT:      -7.0      3.480      8.647
REMARK  Name = 
REMARK  7 active torsions:
REMARK  status: ('A' for Active; 'I' for Inactive)
REMARK    1  A    between atoms: C_1  and  O_2
REMARK    2  A    between atoms: O_2  and  C_3
REMARK    3  A    between atoms: C_5  and  N_6
REMARK    4  A    between atoms: C_10  and  C_11
REMARK    5  A    between atoms: N_13  and  C_14
REMARK    6  A    between atoms: N_17  and  C_18
REMARK    7  A    between atoms: C_18  and  C_19
REMARK                            x       y       z     vdW  Elec       q    Type
REMARK                         _______ _______ _______ _____ _____    ______ ____
ROOT
ATOM      1  C   UNL     1       1.791   8.713  18.716  0.00  0.00    +0.000 C 
ATOM      2  O   UNL     1       1.936   8.877  17.508  0.00  0.00    +0.000 OA
ATOM      3  N   UNL     1       2.080   7.517  19.330  0.00  0.00    +0.000 N 
ATOM      4  H   UNL     1       1.844   7.419  20.313  0.00  0.00    +0.000 HD
ENDROOT
BRANCH   1  11
ATOM      5  C   UNL     1       1.438  11.207  19.291  0.00  0.00    +0.000 A 
ATOM      6  C   UNL     1       0.880  12.157  20.164  0.00  0.00    +0.000 A 
ATOM      7  C   UNL     1       0.222  11.775  21.342  0.00  0.00    +0.000 A 
ATOM      8  C   UNL     1       0.055  10.406  21.596  0.00  0.00    +0.000 A 
ATOM      9 CL   UNL     1      -0.799   9.869  23.001  0.00  0.00    +0.000 Cl
ATOM     10  C   UNL     1       0.590   9.449  20.735  0.00  0.00    +0.000 A 
ATOM     11  C   UNL     1       1.280   9.834  19.573  0.00  0.00    +0.000 A 
BRANCH   7  12
ATOM     12  N   UNL     1      -0.445  12.756  22.099  0.00  0.00    +0.000 N 
ATOM     13  H   UNL     1      -1.321  12.460  22.514  0.00  0.00    +0.000 HD
ATOM     14  H   UNL     1      -0.521  13.648  21.608  0.00  0.00    +0.000 HD
ENDBRANCH   7  12
BRANCH   5  16
ATOM     15  C   UNL     1       2.637  12.876  18.077  0.00  0.00    +0.000 C 
ATOM     16  O   UNL     1       2.087  11.563  18.134  0.00  0.00    +0.000 OA
ENDBRANCH   5  16
ENDBRANCH   1  11
BRANCH   3  17
ATOM     17  C   UNL     1       2.480   6.333  18.583  0.00  0.00    +0.000 C 
ATOM     18  C   UNL     1       1.967   5.068  19.257  0.00  0.00    +0.000 C 
ATOM     19  C   UNL     1       3.133   4.669  20.144  0.00  0.00    +0.000 C 
ATOM     20  N   UNL     1       4.341   4.937  19.340  0.00  0.00    +0.000 NA
ATOM     21  C   UNL     1       4.010   6.156  18.564  0.00  0.00    +0.000 C 
BRANCH  20  22
ATOM     22  C   UNL     1       4.639   3.785  18.468  0.00  0.00    +0.000 C 
BRANCH  22  23
ATOM     23  C   UNL     1       5.412   4.141  17.216  0.00  0.00    +0.000 A 
ATOM     24  C   UNL     1       4.808   4.077  15.953  0.00  0.00    +0.000 A 
ATOM     25  C   UNL     1       5.520   4.441  14.808  0.00  0.00    +0.000 A 
ATOM     26  C   UNL     1       6.844   4.870  14.915  0.00  0.00    +0.000 A 
ATOM     27  C   UNL     1       7.457   4.933  16.163  0.00  0.00    +0.000 A 
ATOM     28  C   UNL     1       6.747   4.572  17.309  0.00  0.00    +0.000 A 
ENDBRANCH  22  23
ENDBRANCH  20  22
ENDBRANCH   3  17
TORSDOF 6
ENDMDL
MODEL 8
REMARK VINA RESULT:      -7.0      2.895      3.887
REMARK  Name = 
REMARK  7 active torsions:
REMARK  status: ('A' for Active; 'I' for Inactive)
REMARK    1  A    between atoms: C_1  and  O_2
REMARK    2  A    between atoms: O_2  and  C_3
REMARK    3  A    between atoms: C_5  and  N_6
REMARK    4  A    between atoms: C_10  and  C_11
REMARK    5  A    between atoms: N_13  and  C_14
REMARK    6  A    between atoms: N_17  and  C_18
REMARK    7  A    between atoms: C_18  and  C_19
REMARK                            x       y       z     vdW  Elec       q    Type
REMARK                         _______ _______ _______ _____ _____    ______ ____
ROOT
ATOM      1  C   UNL     1       2.193   8.286  18.186  0.00  0.00    +0.000 C 
ATOM      2  O   UNL     1       2.053   8.754  17.060  0.00  0.00    +0.000 OA
ATOM      3  N   UNL     1       1.487   8.760  19.266  0.00  0.00    +0.000 N 
ATOM      4  H   UNL     1       1.724   8.397  20.185  0.00  0.00    +0.000 HD
ENDROOT
BRANCH   1  11
ATOM      5  C   UNL     1       3.001   6.137  19.372  0.00  0.00    +0.000 A 
ATOM      6  C   UNL     1       3.974   5.128  19.467  0.00  0.00    +0.000 A 
ATOM      7  C   UNL     1       5.136   5.152  18.682  0.00  0.00    +0.000 A 
ATOM      8  C   UNL     1       5.272   6.170  17.728  0.00  0.00    +0.000 A 
ATOM      9 CL   UNL     1       6.654   6.222  16.688  0.00  0.00    +0.000 Cl
ATOM     10  C   UNL     1       4.311   7.172  17.610  0.00  0.00    +0.000 A 
ATOM     11  C   UNL     1       3.164   7.166  18.421  0.00  0.00    +0.000 A 
BRANCH   7  12
ATOM     12  N   UNL     1       6.001   4.042  18.712  0.00  0.00    +0.000 N 
ATOM     13  H   UNL     1       6.986   4.265  18.807  0.00  0.00    +0.000 HD
ATOM     14  H   UNL     1       5.816   3.378  17.959  0.00  0.00    +0.000 HD
ENDBRANCH   7  12
BRANCH   5  16
ATOM     15  C   UNL     1       1.453   4.881  20.684  0.00  0.00    +0.000 C 
ATOM     16  O   UNL     1       1.857   6.131  20.133  0.00  0.00    +0.000 OA
ENDBRANCH   5  16
ENDBRANCH   1  11
BRANCH   3  17
ATOM     17  C   UNL     1       0.600   9.912  19.175  0.00  0.00    +0.000 C 
ATOM     18  C   UNL     1       1.354  11.202  19.463  0.00  0.00    +0.000 C 
ATOM     19  C   UNL     1       1.131  11.389  20.954  0.00  0.00    +0.000 C 
ATOM     20  N   UNL     1      -0.270  10.993  21.189  0.00  0.00    +0.000 NA
ATOM     21  C   UNL     1      -0.505   9.872  20.247  0.00  0.00    +0.000 C 
BRANCH  20  22
ATOM     22  C   UNL     1      -1.172  12.133  20.933  0.00  0.00    +0.000 C 
BRANCH  22  23
ATOM     23  C   UNL     1      -1.727  12.775  22.187  0.00  0.00    +0.000 A 
ATOM     24  C   UNL     1      -1.064  13.846  22.802  0.00  0.00    +0.000 A 
ATOM     25  C   UNL     1      -1.603  14.453  23.939  0.00  0.00    +0.000 A 
ATOM     26  C   UNL     1      -2.808  13.994  24.472  0.00  0.00    +0.000 A 
ATOM     27  C   UNL     1      -3.473  12.928  23.873  0.00  0.00    +0.000 A 
ATOM     28  C   UNL     1      -2.938  12.321  22.737  0.00  0.00    +0.000 A 
ENDBRANCH  22  23
ENDBRANCH  20  22
ENDBRANCH   3  17
TORSDOF 6
ENDMDL
MODEL 9
REMARK VINA RESULT:      -6.9      3.329      8.564
REMARK  Name = 
REMARK  7 active torsions:
REMARK  status: ('A' for Active; 'I' for Inactive)
REMARK    1  A    between atoms: C_1  and  O_2
REMARK    2  A    between atoms: O_2  and  C_3
REMARK    3  A    between atoms: C_5  and  N_6
REMARK    4  A    between atoms: C_10  and  C_11
REMARK    5  A    between atoms: N_13  and  C_14
REMARK    6  A    between atoms: N_17  and  C_18
REMARK    7  A    between atoms: C_18  and  C_19
REMARK                            x       y       z     vdW  Elec       q    Type
REMARK                         _______ _______ _______ _____ _____    ______ ____
ROOT
ATOM      1  C   UNL     1       1.901   8.675  18.631  0.00  0.00    +0.000 C 
ATOM      2  O   UNL     1       2.115   8.952  17.454  0.00  0.00    +0.000 OA
ATOM      3  N   UNL     1       2.217   7.447  19.161  0.00  0.00    +0.000 N 
ATOM      4  H   UNL     1       1.923   7.250  20.113  0.00  0.00    +0.000 HD
ENDROOT
BRANCH   1  11
ATOM      5  C   UNL     1       1.177  11.071  19.274  0.00  0.00    +0.000 A 
ATOM      6  C   UNL     1       0.530  11.907  20.200  0.00  0.00    +0.000 A 
ATOM      7  C   UNL     1       0.028  11.412  21.412  0.00  0.00    +0.000 A 
ATOM      8  C   UNL     1       0.111  10.033  21.652  0.00  0.00    +0.000 A 
ATOM      9 CL   UNL     1      -0.541   9.351  23.101  0.00  0.00    +0.000 Cl
ATOM     10  C   UNL     1       0.737   9.186  20.739  0.00  0.00    +0.000 A 
ATOM     11  C   UNL     1       1.270   9.689  19.540  0.00  0.00    +0.000 A 
BRANCH   7  12
ATOM     12  N   UNL     1      -0.738  12.262  22.231  0.00  0.00    +0.000 N 
ATOM     13  H   UNL     1      -0.248  12.652  23.028  0.00  0.00    +0.000 HD
ATOM     14  H   UNL     1      -1.642  11.859  22.480  0.00  0.00    +0.000 HD
ENDBRANCH   7  12
BRANCH   5  16
ATOM     15  C   UNL     1       2.583  12.635  18.145  0.00  0.00    +0.000 C 
ATOM     16  O   UNL     1       1.675  11.538  18.082  0.00  0.00    +0.000 OA
ENDBRANCH   5  16
ENDBRANCH   1  11
BRANCH   3  17
ATOM     17  C   UNL     1       2.733   6.355  18.347  0.00  0.00    +0.000 C 
ATOM     18  C   UNL     1       1.841   5.127  18.459  0.00  0.00    +0.000 C 
ATOM     19  C   UNL     1       2.495   4.344  19.584  0.00  0.00    +0.000 C 
ATOM     20  N   UNL     1       3.946   4.491  19.365  0.00  0.00    +0.000 NA
ATOM     21  C   UNL     1       4.108   5.869  18.843  0.00  0.00    +0.000 C 
BRANCH  20  22
ATOM     22  C   UNL     1       4.425   3.474  18.409  0.00  0.00    +0.000 C 
BRANCH  22  23
ATOM     23  C   UNL     1       5.296   4.027  17.302  0.00  0.00    +0.000 A 
ATOM     24  C   UNL     1       6.621   4.412  17.551  0.00  0.00    +0.000 A 
ATOM     25  C   UNL     1       7.427   4.889  16.515  0.00  0.00    +0.000 A 
ATOM     26  C   UNL     1       6.915   4.988  15.221  0.00  0.00    +0.000 A 
ATOM     27  C   UNL     1       5.599   4.614  14.961  0.00  0.00    +0.000 A 
ATOM     28  C   UNL     1       4.793   4.135  15.994  0.00  0.00    +0.000 A 
ENDBRANCH  22  23
ENDBRANCH  20  22
ENDBRANCH   3  17
TORSDOF 6
ENDMDL
