MODEL 1
REMARK VINA RESULT:      -6.1      0.000      0.000
REMARK  Name = 
REMARK  6 active torsions:
REMARK  status: ('A' for Active; 'I' for Inactive)
REMARK    1  A    between atoms: C_1  and  C_2
REMARK    2  A    between atoms: C_2  and  C_3
REMARK    3  A    between atoms: C_3  and  N_4
REMARK    4  A    between atoms: C_6  and  C_7
REMARK    5  A    between atoms: C_7  and  S_8
REMARK    6  A    between atoms: S_8  and  C_9
REMARK                            x       y       z     vdW  Elec       q    Type
REMARK                         _______ _______ _______ _____ _____    ______ ____
ROOT
ATOM      1  N   UNL     1       2.963   3.876  19.541  0.00  0.00    +0.000 NA
ATOM      2  C   UNL     1       1.982   4.347  18.559  0.00  0.00    +0.000 C 
ATOM      3  C   UNL     1       2.599   4.935  17.325  0.00  0.00    +0.000 C 
ATOM      4  C   UNL     1       3.151   3.658  16.678  0.00  0.00    +0.000 C 
ATOM      5  C   UNL     1       4.426   3.128  17.371  0.00  0.00    +0.000 C 
ATOM      6  C   UNL     1       5.520   3.674  16.457  0.00  0.00    +0.000 A 
ATOM      7  C   UNL     1       5.510   3.520  15.049  0.00  0.00    +0.000 A 
ATOM      8  C   UNL     1       6.019   4.500  14.221  0.00  0.00    +0.000 A 
ATOM      9  C   UNL     1       6.713   5.601  14.751  0.00  0.00    +0.000 A 
ATOM     10  C   UNL     1       6.890   5.640  16.127  0.00  0.00    +0.000 A 
ATOM     11  N   UNL     1       7.475   6.561  16.976  0.00  0.00    +0.000 N 
ATOM     12  C   UNL     1       7.251   6.210  18.311  0.00  0.00    +0.000 A 
ATOM     13  C   UNL     1       6.489   5.038  18.321  0.00  0.00    +0.000 A 
ATOM     14  C   UNL     1       6.339   4.677  16.960  0.00  0.00    +0.000 A 
ATOM     15  C   UNL     1       5.790   4.245  19.422  0.00  0.00    +0.000 C 
ATOM     16  C   UNL     1       4.390   3.524  18.987  0.00  0.00    +0.000 C 
ATOM     17  H   UNL     1       7.927   7.406  16.675  0.00  0.00    +0.000 HD
ENDROOT
BRANCH   1  18
ATOM     18  C   UNL     1       2.669   4.537  20.834  0.00  0.00    +0.000 C 
BRANCH  18  20
ATOM     19  C   UNL     1       1.322   2.422  21.724  0.00  0.00    +0.000 C 
ATOM     20  C   UNL     1       2.221   3.597  22.052  0.00  0.00    +0.000 C 
ENDBRANCH  18  20
ENDBRANCH   1  18
BRANCH   3  21
ATOM     21  C   UNL     1       3.548   6.134  17.652  0.00  0.00    +0.000 C 
BRANCH  21  22
ATOM     22  S   UNL     1       2.910   7.862  17.781  0.00  0.00    +0.000 S 
ATOM     23  C   UNL     1       2.093   7.870  19.368  0.00  0.00    +0.000 C 
ENDBRANCH  21  22
ENDBRANCH   3  21
TORSDOF 4
ENDMDL
MODEL 2
REMARK VINA RESULT:      -6.1      8.468     11.133
REMARK  Name = 
REMARK  6 active torsions:
REMARK  status: ('A' for Active; 'I' for Inactive)
REMARK    1  A    between atoms: C_1  and  C_2
REMARK    2  A    between atoms: C_2  and  C_3
REMARK    3  A    between atoms: C_3  and  N_4
REMARK    4  A    between atoms: C_6  and  C_7
REMARK    5  A    between atoms: C_7  and  S_8
REMARK    6  A    between atoms: S_8  and  C_9
REMARK                            x       y       z     vdW  Elec       q    Type
REMARK                         _______ _______ _______ _____ _____    ______ ____
ROOT
ATOM      1  N   UNL     1      10.267  11.017  19.210  0.00  0.00    +0.000 NA
ATOM      2  C   UNL     1      10.223  11.530  17.838  0.00  0.00    +0.000 C 
ATOM      3  C   UNL     1      10.091  13.022  17.756  0.00  0.00    +0.000 C 
ATOM      4  C   UNL     1      11.490  13.433  18.234  0.00  0.00    +0.000 C 
ATOM      5  C   UNL     1      11.680  13.278  19.759  0.00  0.00    +0.000 C 
ATOM      6  C   UNL     1      11.452  14.708  20.243  0.00  0.00    +0.000 A 
ATOM      7  C   UNL     1      12.101  15.835  19.681  0.00  0.00    +0.000 A 
ATOM      8  C   UNL     1      11.463  17.055  19.593  0.00  0.00    +0.000 A 
ATOM      9  C   UNL     1      10.216  17.261  20.209  0.00  0.00    +0.000 A 
ATOM     10  C   UNL     1       9.679  16.203  20.927  0.00  0.00    +0.000 A 
ATOM     11  N   UNL     1       8.490  16.038  21.614  0.00  0.00    +0.000 N 
ATOM     12  C   UNL     1       8.348  14.713  22.039  0.00  0.00    +0.000 A 
ATOM     13  C   UNL     1       9.470  14.003  21.601  0.00  0.00    +0.000 A 
ATOM     14  C   UNL     1      10.301  14.964  20.977  0.00  0.00    +0.000 A 
ATOM     15  C   UNL     1       9.844  12.524  21.597  0.00  0.00    +0.000 C 
ATOM     16  C   UNL     1      10.733  12.029  20.317  0.00  0.00    +0.000 C 
ATOM     17  H   UNL     1       7.790  16.750  21.722  0.00  0.00    +0.000 HD
ENDROOT
BRANCH   1  18
ATOM     18  C   UNL     1       9.200   9.999  19.352  0.00  0.00    +0.000 C 
BRANCH  18  20
ATOM     19  C   UNL     1       7.999   8.139  17.879  0.00  0.00    +0.000 C 
ATOM     20  C   UNL     1       8.394   9.594  18.028  0.00  0.00    +0.000 C 
ENDBRANCH  18  20
ENDBRANCH   1  18
BRANCH   3  21
ATOM     21  C   UNL     1       8.815  13.544  18.494  0.00  0.00    +0.000 C 
BRANCH  21  22
ATOM     22  S   UNL     1       7.905  15.039  17.906  0.00  0.00    +0.000 S 
ATOM     23  C   UNL     1       6.379  14.970  18.831  0.00  0.00    +0.000 C 
ENDBRANCH  21  22
ENDBRANCH   3  21
TORSDOF 4
ENDMDL
MODEL 3
REMARK VINA RESULT:      -6.0      1.110      1.463
REMARK  Name = 
REMARK  6 active torsions:
REMARK  status: ('A' for Active; 'I' for Inactive)
REMARK    1  A    between atoms: C_1  and  C_2
REMARK    2  A    between atoms: C_2  and  C_3
REMARK    3  A    between atoms: C_3  and  N_4
REMARK    4  A    between atoms: C_6  and  C_7
REMARK    5  A    between atoms: C_7  and  S_8
REMARK    6  A    between atoms: S_8  and  C_9
REMARK                            x       y       z     vdW  Elec       q    Type
REMARK                         _______ _______ _______ _____ _____    ______ ____
ROOT
ATOM      1  N   UNL     1       1.966   2.484  19.210  0.00  0.00    +0.000 NA
ATOM      2  C   UNL     1       1.062   3.290  18.385  0.00  0.00    +0.000 C 
ATOM      3  C   UNL     1       1.758   4.359  17.596  0.00  0.00    +0.000 C 
ATOM      4  C   UNL     1       2.484   3.487  16.563  0.00  0.00    +0.000 C 
ATOM      5  C   UNL     1       3.716   2.757  17.143  0.00  0.00    +0.000 C 
ATOM      6  C   UNL     1       4.853   3.668  16.690  0.00  0.00    +0.000 A 
ATOM      7  C   UNL     1       5.010   4.116  15.355  0.00  0.00    +0.000 A 
ATOM      8  C   UNL     1       5.521   5.367  15.078  0.00  0.00    +0.000 A 
ATOM      9  C   UNL     1       6.058   6.168  16.101  0.00  0.00    +0.000 A 
ATOM     10  C   UNL     1       6.079   5.635  17.382  0.00  0.00    +0.000 A 
ATOM     11  N   UNL     1       6.487   6.136  18.604  0.00  0.00    +0.000 N 
ATOM     12  C   UNL     1       6.149   5.253  19.634  0.00  0.00    +0.000 A 
ATOM     13  C   UNL     1       5.493   4.160  19.060  0.00  0.00    +0.000 A 
ATOM     14  C   UNL     1       5.524   4.395  17.665  0.00  0.00    +0.000 A 
ATOM     15  C   UNL     1       4.748   2.959  19.635  0.00  0.00    +0.000 C 
ATOM     16  C   UNL     1       3.469   2.441  18.758  0.00  0.00    +0.000 C 
ATOM     17  H   UNL     1       6.896   7.043  18.740  0.00  0.00    +0.000 HD
ENDROOT
BRANCH   1  18
ATOM     18  C   UNL     1       1.477   2.536  20.608  0.00  0.00    +0.000 C 
BRANCH  18  20
ATOM     19  C   UNL     1       2.218   4.940  21.469  0.00  0.00    +0.000 C 
ATOM     20  C   UNL     1       2.305   3.438  21.641  0.00  0.00    +0.000 C 
ENDBRANCH  18  20
ENDBRANCH   1  18
BRANCH   3  21
ATOM     21  C   UNL     1       2.561   5.341  18.510  0.00  0.00    +0.000 C 
BRANCH  21  22
ATOM     22  S   UNL     1       2.770   7.121  18.063  0.00  0.00    +0.000 S 
ATOM     23  C   UNL     1       1.981   7.970  19.420  0.00  0.00    +0.000 C 
ENDBRANCH  21  22
ENDBRANCH   3  21
TORSDOF 4
ENDMDL
MODEL 4
REMARK VINA RESULT:      -5.8      2.031      5.477
REMARK  Name = 
REMARK  6 active torsions:
REMARK  status: ('A' for Active; 'I' for Inactive)
REMARK    1  A    between atoms: C_1  and  C_2
REMARK    2  A    between atoms: C_2  and  C_3
REMARK    3  A    between atoms: C_3  and  N_4
REMARK    4  A    between atoms: C_6  and  C_7
REMARK    5  A    between atoms: C_7  and  S_8
REMARK    6  A    between atoms: S_8  and  C_9
REMARK                            x       y       z     vdW  Elec       q    Type
REMARK                         _______ _______ _______ _____ _____    ______ ____
ROOT
ATOM      1  N   UNL     1       5.811   6.292  18.373  0.00  0.00    +0.000 NA
ATOM      2  C   UNL     1       5.017   6.672  17.202  0.00  0.00    +0.000 C 
ATOM      3  C   UNL     1       3.864   5.752  16.930  0.00  0.00    +0.000 C 
ATOM      4  C   UNL     1       2.950   6.128  18.105  0.00  0.00    +0.000 C 
ATOM      5  C   UNL     1       3.427   5.547  19.455  0.00  0.00    +0.000 C 
ATOM      6  C   UNL     1       2.540   4.311  19.586  0.00  0.00    +0.000 A 
ATOM      7  C   UNL     1       1.133   4.339  19.421  0.00  0.00    +0.000 A 
ATOM      8  C   UNL     1       0.458   3.269  18.869  0.00  0.00    +0.000 A 
ATOM      9  C   UNL     1       1.121   2.057  18.610  0.00  0.00    +0.000 A 
ATOM     10  C   UNL     1       2.461   1.977  18.960  0.00  0.00    +0.000 A 
ATOM     11  N   UNL     1       3.412   0.982  18.823  0.00  0.00    +0.000 N 
ATOM     12  C   UNL     1       4.674   1.457  19.194  0.00  0.00    +0.000 A 
ATOM     13  C   UNL     1       4.534   2.797  19.566  0.00  0.00    +0.000 A 
ATOM     14  C   UNL     1       3.148   3.067  19.474  0.00  0.00    +0.000 A 
ATOM     15  C   UNL     1       5.527   3.904  19.910  0.00  0.00    +0.000 C 
ATOM     16  C   UNL     1       5.085   5.409  19.450  0.00  0.00    +0.000 C 
ATOM     17  H   UNL     1       3.234   0.073  18.436  0.00  0.00    +0.000 HD
ENDROOT
BRANCH   1  18
ATOM     18  C   UNL     1       7.223   6.158  17.944  0.00  0.00    +0.000 C 
BRANCH  18  20
ATOM     19  C   UNL     1       8.016   8.694  17.818  0.00  0.00    +0.000 C 
ATOM     20  C   UNL     1       8.238   7.312  18.397  0.00  0.00    +0.000 C 
ENDBRANCH  18  20
ENDBRANCH   1  18
BRANCH   3  21
ATOM     21  C   UNL     1       4.324   4.272  16.725  0.00  0.00    +0.000 C 
BRANCH  21  22
ATOM     22  S   UNL     1       5.871   3.863  15.804  0.00  0.00    +0.000 S 
ATOM     23  C   UNL     1       5.492   4.374  14.136  0.00  0.00    +0.000 C 
ENDBRANCH  21  22
ENDBRANCH   3  21
TORSDOF 4
ENDMDL
MODEL 5
REMARK VINA RESULT:      -5.7      1.762      5.764
REMARK  Name = 
REMARK  6 active torsions:
REMARK  status: ('A' for Active; 'I' for Inactive)
REMARK    1  A    between atoms: C_1  and  C_2
REMARK    2  A    between atoms: C_2  and  C_3
REMARK    3  A    between atoms: C_3  and  N_4
REMARK    4  A    between atoms: C_6  and  C_7
REMARK    5  A    between atoms: C_7  and  S_8
REMARK    6  A    between atoms: S_8  and  C_9
REMARK                            x       y       z     vdW  Elec       q    Type
REMARK                         _______ _______ _______ _____ _____    ______ ____
ROOT
ATOM      1  N   UNL     1       4.493   4.279  16.122  0.00  0.00    +0.000 NA
ATOM      2  C   UNL     1       5.417   3.345  16.771  0.00  0.00    +0.000 C 
ATOM      3  C   UNL     1       5.102   3.092  18.216  0.00  0.00    +0.000 C 
ATOM      4  C   UNL     1       3.821   2.261  18.061  0.00  0.00    +0.000 C 
ATOM      5  C   UNL     1       2.589   3.110  17.677  0.00  0.00    +0.000 C 
ATOM      6  C   UNL     1       1.914   3.298  19.033  0.00  0.00    +0.000 A 
ATOM      7  C   UNL     1       1.638   2.231  19.923  0.00  0.00    +0.000 A 
ATOM      8  C   UNL     1       1.696   2.408  21.290  0.00  0.00    +0.000 A 
ATOM      9  C   UNL     1       1.864   3.690  21.842  0.00  0.00    +0.000 A 
ATOM     10  C   UNL     1       1.935   4.759  20.961  0.00  0.00    +0.000 A 
ATOM     11  N   UNL     1       2.128   6.116  21.140  0.00  0.00    +0.000 N 
ATOM     12  C   UNL     1       2.283   6.756  19.906  0.00  0.00    +0.000 A 
ATOM     13  C   UNL     1       2.201   5.782  18.907  0.00  0.00    +0.000 A 
ATOM     14  C   UNL     1       1.921   4.572  19.586  0.00  0.00    +0.000 A 
ATOM     15  C   UNL     1       2.442   5.797  17.400  0.00  0.00    +0.000 C 
ATOM     16  C   UNL     1       3.073   4.424  16.778  0.00  0.00    +0.000 C 
ATOM     17  H   UNL     1       2.224   6.565  22.033  0.00  0.00    +0.000 HD
ENDROOT
BRANCH   1  18
ATOM     18  C   UNL     1       5.294   5.374  15.526  0.00  0.00    +0.000 C 
BRANCH  18  20
ATOM     19  C   UNL     1       6.178   3.932  13.473  0.00  0.00    +0.000 C 
ATOM     20  C   UNL     1       6.490   4.956  14.545  0.00  0.00    +0.000 C 
ENDBRANCH  18  20
ENDBRANCH   1  18
BRANCH   3  21
ATOM     21  C   UNL     1       5.097   4.409  19.059  0.00  0.00    +0.000 C 
BRANCH  21  22
ATOM     22  S   UNL     1       6.592   5.487  19.173  0.00  0.00    +0.000 S 
ATOM     23  C   UNL     1       7.765   4.658  18.113  0.00  0.00    +0.000 C 
ENDBRANCH  21  22
ENDBRANCH   3  21
TORSDOF 4
ENDMDL
MODEL 6
REMARK VINA RESULT:      -5.7      1.545      5.700
REMARK  Name = 
REMARK  6 active torsions:
REMARK  status: ('A' for Active; 'I' for Inactive)
REMARK    1  A    between atoms: C_1  and  C_2
REMARK    2  A    between atoms: C_2  and  C_3
REMARK    3  A    between atoms: C_3  and  N_4
REMARK    4  A    between atoms: C_6  and  C_7
REMARK    5  A    between atoms: C_7  and  S_8
REMARK    6  A    between atoms: S_8  and  C_9
REMARK                            x       y       z     vdW  Elec       q    Type
REMARK                         _______ _______ _______ _____ _____    ______ ____
ROOT
ATOM      1  N   UNL     1       5.364   4.827  17.008  0.00  0.00    +0.000 NA
ATOM      2  C   UNL     1       5.671   5.741  18.111  0.00  0.00    +0.000 C 
ATOM      3  C   UNL     1       4.754   5.596  19.288  0.00  0.00    +0.000 C 
ATOM      4  C   UNL     1       5.230   4.237  19.822  0.00  0.00    +0.000 C 
ATOM      5  C   UNL     1       4.741   3.045  18.970  0.00  0.00    +0.000 C 
ATOM      6  C   UNL     1       3.534   2.570  19.773  0.00  0.00    +0.000 A 
ATOM      7  C   UNL     1       3.573   2.320  21.167  0.00  0.00    +0.000 A 
ATOM      8  C   UNL     1       2.477   2.570  21.968  0.00  0.00    +0.000 A 
ATOM      9  C   UNL     1       1.239   2.919  21.404  0.00  0.00    +0.000 A 
ATOM     10  C   UNL     1       1.161   2.969  20.019  0.00  0.00    +0.000 A 
ATOM     11  N   UNL     1       0.143   3.301  19.144  0.00  0.00    +0.000 N 
ATOM     12  C   UNL     1       0.622   3.351  17.831  0.00  0.00    +0.000 A 
ATOM     13  C   UNL     1       1.988   3.055  17.864  0.00  0.00    +0.000 A 
ATOM     14  C   UNL     1       2.275   2.761  19.218  0.00  0.00    +0.000 A 
ATOM     15  C   UNL     1       3.100   3.100  16.820  0.00  0.00    +0.000 C 
ATOM     16  C   UNL     1       4.575   3.522  17.384  0.00  0.00    +0.000 C 
ATOM     17  H   UNL     1      -0.789   3.551  19.423  0.00  0.00    +0.000 HD
ENDROOT
BRANCH   1  18
ATOM     18  C   UNL     1       5.176   5.637  15.782  0.00  0.00    +0.000 C 
BRANCH  18  20
ATOM     19  C   UNL     1       6.018   3.878  13.974  0.00  0.00    +0.000 C 
ATOM     20  C   UNL     1       6.103   5.287  14.523  0.00  0.00    +0.000 C 
ENDBRANCH  18  20
ENDBRANCH   1  18
BRANCH   3  21
ATOM     21  C   UNL     1       3.255   5.815  18.901  0.00  0.00    +0.000 C 
BRANCH  21  22
ATOM     22  S   UNL     1       2.324   7.310  19.455  0.00  0.00    +0.000 S 
ATOM     23  C   UNL     1       2.250   8.307  17.975  0.00  0.00    +0.000 C 
ENDBRANCH  21  22
ENDBRANCH   3  21
TORSDOF 4
ENDMDL
MODEL 7
REMARK VINA RESULT:      -5.6      9.548     11.981
REMARK  Name = 
REMARK  6 active torsions:
REMARK  status: ('A' for Active; 'I' for Inactive)
REMARK    1  A    between atoms: C_1  and  C_2
REMARK    2  A    between atoms: C_2  and  C_3
REMARK    3  A    between atoms: C_3  and  N_4
REMARK    4  A    between atoms: C_6  and  C_7
REMARK    5  A    between atoms: C_7  and  S_8
REMARK    6  A    between atoms: S_8  and  C_9
REMARK                            x       y       z     vdW  Elec       q    Type
REMARK                         _______ _______ _______ _____ _____    ______ ____
ROOT
ATOM      1  N   UNL     1       8.873  16.165  21.677  0.00  0.00    +0.000 NA
ATOM      2  C   UNL     1       8.012  14.983  21.579  0.00  0.00    +0.000 C 
ATOM      3  C   UNL     1       8.317  14.110  20.398  0.00  0.00    +0.000 C 
ATOM      4  C   UNL     1       9.661  13.523  20.850  0.00  0.00    +0.000 C 
ATOM      5  C   UNL     1      10.831  14.525  20.735  0.00  0.00    +0.000 C 
ATOM      6  C   UNL     1      11.464  14.105  19.411  0.00  0.00    +0.000 A 
ATOM      7  C   UNL     1      11.804  12.766  19.098  0.00  0.00    +0.000 A 
ATOM      8  C   UNL     1      11.706  12.287  17.808  0.00  0.00    +0.000 A 
ATOM      9  C   UNL     1      11.429  13.156  16.738  0.00  0.00    +0.000 A 
ATOM     10  C   UNL     1      11.292  14.505  17.032  0.00  0.00    +0.000 A 
ATOM     11  N   UNL     1      10.991  15.611  16.259  0.00  0.00    +0.000 N 
ATOM     12  C   UNL     1      10.811  16.739  17.066  0.00  0.00    +0.000 A 
ATOM     13  C   UNL     1      10.987  16.344  18.395  0.00  0.00    +0.000 A 
ATOM     14  C   UNL     1      11.347  14.976  18.335  0.00  0.00    +0.000 A 
ATOM     15  C   UNL     1      10.775  17.039  19.737  0.00  0.00    +0.000 C 
ATOM     16  C   UNL     1      10.264  16.074  20.954  0.00  0.00    +0.000 C 
ATOM     17  H   UNL     1      10.843  15.590  15.266  0.00  0.00    +0.000 HD
ENDROOT
BRANCH   1  18
ATOM     18  C   UNL     1       8.001  17.361  21.744  0.00  0.00    +0.000 C 
BRANCH  18  20
ATOM     19  C   UNL     1       6.001  17.733  20.030  0.00  0.00    +0.000 C 
ATOM     20  C   UNL     1       6.458  17.165  21.358  0.00  0.00    +0.000 C 
ENDBRANCH  18  20
ENDBRANCH   1  18
BRANCH   3  21
ATOM     21  C   UNL     1       8.204  14.886  19.045  0.00  0.00    +0.000 C 
BRANCH  21  22
ATOM     22  S   UNL     1       7.087  14.309  17.693  0.00  0.00    +0.000 S 
ATOM     23  C   UNL     1       7.787  12.731  17.241  0.00  0.00    +0.000 C 
ENDBRANCH  21  22
ENDBRANCH   3  21
TORSDOF 4
ENDMDL
MODEL 8
REMARK VINA RESULT:      -5.5      2.026      5.585
REMARK  Name = 
REMARK  6 active torsions:
REMARK  status: ('A' for Active; 'I' for Inactive)
REMARK    1  A    between atoms: C_1  and  C_2
REMARK    2  A    between atoms: C_2  and  C_3
REMARK    3  A    between atoms: C_3  and  N_4
REMARK    4  A    between atoms: C_6  and  C_7
REMARK    5  A    between atoms: C_7  and  S_8
REMARK    6  A    between atoms: S_8  and  C_9
REMARK                            x       y       z     vdW  Elec       q    Type
REMARK                         _______ _______ _______ _____ _____    ______ ____
ROOT
ATOM      1  N   UNL     1       4.763   6.172  17.118  0.00  0.00    +0.000 NA
ATOM      2  C   UNL     1       5.268   4.871  16.671  0.00  0.00    +0.000 C 
ATOM      3  C   UNL     1       4.616   3.704  17.353  0.00  0.00    +0.000 C 
ATOM      4  C   UNL     1       3.224   3.774  16.711  0.00  0.00    +0.000 C 
ATOM      5  C   UNL     1       2.352   4.918  17.275  0.00  0.00    +0.000 C 
ATOM      6  C   UNL     1       1.489   4.173  18.289  0.00  0.00    +0.000 A 
ATOM      7  C   UNL     1       0.777   2.986  17.986  0.00  0.00    +0.000 A 
ATOM      8  C   UNL     1       0.603   1.997  18.933  0.00  0.00    +0.000 A 
ATOM      9  C   UNL     1       0.978   2.209  20.271  0.00  0.00    +0.000 A 
ATOM     10  C   UNL     1       1.495   3.454  20.598  0.00  0.00    +0.000 A 
ATOM     11  N   UNL     1       1.987   3.990  21.774  0.00  0.00    +0.000 N 
ATOM     12  C   UNL     1       2.545   5.251  21.542  0.00  0.00    +0.000 A 
ATOM     13  C   UNL     1       2.420   5.528  20.178  0.00  0.00    +0.000 A 
ATOM     14  C   UNL     1       1.710   4.430  19.636  0.00  0.00    +0.000 A 
ATOM     15  C   UNL     1       2.954   6.637  19.275  0.00  0.00    +0.000 C 
ATOM     16  C   UNL     1       3.326   6.181  17.750  0.00  0.00    +0.000 C 
ATOM     17  H   UNL     1       2.014   3.506  22.654  0.00  0.00    +0.000 HD
ENDROOT
BRANCH   1  18
ATOM     18  C   UNL     1       5.920   6.980  17.569  0.00  0.00    +0.000 C 
BRANCH  18  20
ATOM     19  C   UNL     1       7.831   5.885  19.060  0.00  0.00    +0.000 C 
ATOM     20  C   UNL     1       7.336   6.238  17.672  0.00  0.00    +0.000 C 
ENDBRANCH  18  20
ENDBRANCH   1  18
BRANCH   3  21
ATOM     21  C   UNL     1       4.778   3.762  18.907  0.00  0.00    +0.000 C 
BRANCH  21  22
ATOM     22  S   UNL     1       4.733   2.231  19.939  0.00  0.00    +0.000 S 
ATOM     23  C   UNL     1       4.068   1.012  18.817  0.00  0.00    +0.000 C 
ENDBRANCH  21  22
ENDBRANCH   3  21
TORSDOF 4
ENDMDL
MODEL 9
REMARK VINA RESULT:      -5.5      8.748     11.054
REMARK  Name = 
REMARK  6 active torsions:
REMARK  status: ('A' for Active; 'I' for Inactive)
REMARK    1  A    between atoms: C_1  and  C_2
REMARK    2  A    between atoms: C_2  and  C_3
REMARK    3  A    between atoms: C_3  and  N_4
REMARK    4  A    between atoms: C_6  and  C_7
REMARK    5  A    between atoms: C_7  and  S_8
REMARK    6  A    between atoms: S_8  and  C_9
REMARK                            x       y       z     vdW  Elec       q    Type
REMARK                         _______ _______ _______ _____ _____    ______ ____
ROOT
ATOM      1  N   UNL     1       6.084  15.400  18.754  0.00  0.00    +0.000 NA
ATOM      2  C   UNL     1       6.527  16.069  19.980  0.00  0.00    +0.000 C 
ATOM      3  C   UNL     1       7.915  15.692  20.406  0.00  0.00    +0.000 C 
ATOM      4  C   UNL     1       8.724  16.403  19.312  0.00  0.00    +0.000 C 
ATOM      5  C   UNL     1       8.670  15.677  17.949  0.00  0.00    +0.000 C 
ATOM      6  C   UNL     1       9.985  14.903  17.963  0.00  0.00    +0.000 A 
ATOM      7  C   UNL     1      11.236  15.495  18.265  0.00  0.00    +0.000 A 
ATOM      8  C   UNL     1      12.218  14.788  18.929  0.00  0.00    +0.000 A 
ATOM      9  C   UNL     1      12.072  13.413  19.175  0.00  0.00    +0.000 A 
ATOM     10  C   UNL     1      10.923  12.799  18.697  0.00  0.00    +0.000 A 
ATOM     11  N   UNL     1      10.441  11.506  18.783  0.00  0.00    +0.000 N 
ATOM     12  C   UNL     1       9.143  11.431  18.268  0.00  0.00    +0.000 A 
ATOM     13  C   UNL     1       8.775  12.714  17.852  0.00  0.00    +0.000 A 
ATOM     14  C   UNL     1       9.918  13.520  18.070  0.00  0.00    +0.000 A 
ATOM     15  C   UNL     1       7.466  13.327  17.362  0.00  0.00    +0.000 C 
ATOM     16  C   UNL     1       7.216  14.883  17.795  0.00  0.00    +0.000 C 
ATOM     17  H   UNL     1      10.924  10.745  19.227  0.00  0.00    +0.000 HD
ENDROOT
BRANCH   1  18
ATOM     18  C   UNL     1       4.806  14.710  19.046  0.00  0.00    +0.000 C 
BRANCH  18  20
ATOM     19  C   UNL     1       3.478  16.234  17.318  0.00  0.00    +0.000 C 
ATOM     20  C   UNL     1       3.622  14.880  17.981  0.00  0.00    +0.000 C 
ENDBRANCH  18  20
ENDBRANCH   1  18
BRANCH   3  21
ATOM     21  C   UNL     1       8.066  14.152  20.631  0.00  0.00    +0.000 C 
BRANCH  21  22
ATOM     22  S   UNL     1       9.159  13.474  21.956  0.00  0.00    +0.000 S 
ATOM     23  C   UNL     1       8.459  11.861  22.266  0.00  0.00    +0.000 C 
ENDBRANCH  21  22
ENDBRANCH   3  21
TORSDOF 4
ENDMDL
