MODEL 1
REMARK VINA RESULT:      -8.4      0.000      0.000
REMARK  Name = 
REMARK  4 active torsions:
REMARK  status: ('A' for Active; 'I' for Inactive)
REMARK    1  A    between atoms: C_4  and  C_5
REMARK    2  A    between atoms: C_8  and  S_9
REMARK    3  A    between atoms: S_9  and  C_10
REMARK    4  A    between atoms: C_10  and  C_11
REMARK                            x       y       z     vdW  Elec       q    Type
REMARK                         _______ _______ _______ _____ _____    ______ ____
ROOT
ATOM      1  C   UNL     1       5.951   5.215  18.096  0.00  0.00    +0.000 A 
ATOM      2  C   UNL     1       7.099   5.458  18.841  0.00  0.00    +0.000 A 
ATOM      3  C   UNL     1       7.812   6.644  18.642  0.00  0.00    +0.000 A 
ATOM      4  C   UNL     1       7.352   7.557  17.709  0.00  0.00    +0.000 A 
ATOM      5  N   UNL     1       6.258   7.288  16.972  0.00  0.00    +0.000 NA
ATOM      6  N   UNL     1       5.556   6.117  17.165  0.00  0.00    +0.000 NA
ENDROOT
BRANCH   1  10
ATOM      7  C   UNL     1       3.426   1.883  18.804  0.00  0.00    +0.000 A 
ATOM      8  C   UNL     1       3.338   2.528  17.580  0.00  0.00    +0.000 A 
ATOM      9  C   UNL     1       4.175   3.610  17.317  0.00  0.00    +0.000 A 
ATOM     10  C   UNL     1       5.085   4.033  18.290  0.00  0.00    +0.000 A 
ATOM     11  N   UNL     1       5.184   3.392  19.489  0.00  0.00    +0.000 NA
ATOM     12  C   UNL     1       4.359   2.345  19.716  0.00  0.00    +0.000 A 
ENDBRANCH   1  10
BRANCH   4  13
ATOM     13  S   UNL     1       8.202   9.100  17.457  0.00  0.00    +0.000 S 
BRANCH  13  14
ATOM     14  C   UNL     1       8.894   9.351  19.126  0.00  0.00    +0.000 C 
BRANCH  14  15
ATOM     15  C   UNL     1       9.625  10.669  19.245  0.00  0.00    +0.000 A 
ATOM     16  C   UNL     1       9.915  11.208  20.504  0.00  0.00    +0.000 A 
ATOM     17  C   UNL     1      10.623  12.407  20.620  0.00  0.00    +0.000 A 
ATOM     18  C   UNL     1      11.054  13.101  19.480  0.00  0.00    +0.000 A 
ATOM     19  C   UNL     1      11.787  14.295  19.583  0.00  0.00    +0.000 A 
ATOM     20  C   UNL     1      12.211  14.975  18.439  0.00  0.00    +0.000 A 
ATOM     21  C   UNL     1      11.898  14.474  17.180  0.00  0.00    +0.000 A 
ATOM     22  C   UNL     1      11.171  13.288  17.060  0.00  0.00    +0.000 A 
ATOM     23  C   UNL     1      10.746  12.582  18.200  0.00  0.00    +0.000 A 
ATOM     24  C   UNL     1      10.032  11.374  18.101  0.00  0.00    +0.000 A 
ENDBRANCH  14  15
ENDBRANCH  13  14
ENDBRANCH   4  13
TORSDOF 4
ENDMDL
MODEL 2
REMARK VINA RESULT:      -8.4      2.331      9.785
REMARK  Name = 
REMARK  4 active torsions:
REMARK  status: ('A' for Active; 'I' for Inactive)
REMARK    1  A    between atoms: C_4  and  C_5
REMARK    2  A    between atoms: C_8  and  S_9
REMARK    3  A    between atoms: S_9  and  C_10
REMARK    4  A    between atoms: C_10  and  C_11
REMARK                            x       y       z     vdW  Elec       q    Type
REMARK                         _______ _______ _______ _____ _____    ______ ____
ROOT
ATOM      1  C   UNL     1       8.393   8.797  18.416  0.00  0.00    +0.000 A 
ATOM      2  C   UNL     1       8.529   7.615  19.134  0.00  0.00    +0.000 A 
ATOM      3  C   UNL     1       8.034   6.422  18.599  0.00  0.00    +0.000 A 
ATOM      4  C   UNL     1       7.425   6.443  17.356  0.00  0.00    +0.000 A 
ATOM      5  N   UNL     1       7.271   7.605  16.691  0.00  0.00    +0.000 NA
ATOM      6  N   UNL     1       7.756   8.782  17.220  0.00  0.00    +0.000 NA
ENDROOT
BRANCH   1  10
ATOM      7  C   UNL     1      10.112  12.426  19.776  0.00  0.00    +0.000 A 
ATOM      8  C   UNL     1       9.845  12.290  18.423  0.00  0.00    +0.000 A 
ATOM      9  C   UNL     1       9.258  11.116  17.957  0.00  0.00    +0.000 A 
ATOM     10  C   UNL     1       8.953  10.091  18.858  0.00  0.00    +0.000 A 
ATOM     11  N   UNL     1       9.201  10.227  20.191  0.00  0.00    +0.000 NA
ATOM     12  C   UNL     1       9.771  11.379  20.614  0.00  0.00    +0.000 A 
ENDBRANCH   1  10
BRANCH   4  13
ATOM     13  S   UNL     1       6.823   4.942  16.616  0.00  0.00    +0.000 S 
BRANCH  13  14
ATOM     14  C   UNL     1       5.146   5.480  16.138  0.00  0.00    +0.000 C 
BRANCH  14  15
ATOM     15  C   UNL     1       4.131   5.209  17.226  0.00  0.00    +0.000 A 
ATOM     16  C   UNL     1       3.767   6.220  18.123  0.00  0.00    +0.000 A 
ATOM     17  C   UNL     1       2.803   5.985  19.107  0.00  0.00    +0.000 A 
ATOM     18  C   UNL     1       2.182   4.733  19.222  0.00  0.00    +0.000 A 
ATOM     19  C   UNL     1       1.195   4.491  20.192  0.00  0.00    +0.000 A 
ATOM     20  C   UNL     1       0.584   3.240  20.294  0.00  0.00    +0.000 A 
ATOM     21  C   UNL     1       0.961   2.212  19.436  0.00  0.00    +0.000 A 
ATOM     22  C   UNL     1       1.942   2.437  18.466  0.00  0.00    +0.000 A 
ATOM     23  C   UNL     1       2.558   3.694  18.339  0.00  0.00    +0.000 A 
ATOM     24  C   UNL     1       3.531   3.946  17.354  0.00  0.00    +0.000 A 
ENDBRANCH  14  15
ENDBRANCH  13  14
ENDBRANCH   4  13
TORSDOF 4
ENDMDL
MODEL 3
REMARK VINA RESULT:      -8.3      2.318      9.695
REMARK  Name = 
REMARK  4 active torsions:
REMARK  status: ('A' for Active; 'I' for Inactive)
REMARK    1  A    between atoms: C_4  and  C_5
REMARK    2  A    between atoms: C_8  and  S_9
REMARK    3  A    between atoms: S_9  and  C_10
REMARK    4  A    between atoms: C_10  and  C_11
REMARK                            x       y       z     vdW  Elec       q    Type
REMARK                         _______ _______ _______ _____ _____    ______ ____
ROOT
ATOM      1  C   UNL     1       8.253   8.511  18.207  0.00  0.00    +0.000 A 
ATOM      2  C   UNL     1       8.356   7.383  19.013  0.00  0.00    +0.000 A 
ATOM      3  C   UNL     1       7.935   6.144  18.522  0.00  0.00    +0.000 A 
ATOM      4  C   UNL     1       7.432   6.066  17.234  0.00  0.00    +0.000 A 
ATOM      5  N   UNL     1       7.309   7.175  16.481  0.00  0.00    +0.000 NA
ATOM      6  N   UNL     1       7.719   8.399  16.966  0.00  0.00    +0.000 NA
ENDROOT
BRANCH   1  10
ATOM      7  C   UNL     1       9.522  12.413  19.277  0.00  0.00    +0.000 A 
ATOM      8  C   UNL     1       9.619  11.405  20.225  0.00  0.00    +0.000 A 
ATOM      9  C   UNL     1       9.230  10.111  19.887  0.00  0.00    +0.000 A 
ATOM     10  C   UNL     1       8.744   9.848  18.603  0.00  0.00    +0.000 A 
ATOM     11  N   UNL     1       8.661  10.833  17.665  0.00  0.00    +0.000 NA
ATOM     12  C   UNL     1       9.046  12.079  18.022  0.00  0.00    +0.000 A 
ENDBRANCH   1  10
BRANCH   4  13
ATOM     13  S   UNL     1       6.930   4.502  16.552  0.00  0.00    +0.000 S 
BRANCH  13  14
ATOM     14  C   UNL     1       5.252   4.936  15.981  0.00  0.00    +0.000 C 
BRANCH  14  15
ATOM     15  C   UNL     1       4.239   4.879  17.102  0.00  0.00    +0.000 A 
ATOM     16  C   UNL     1       3.669   6.057  17.602  0.00  0.00    +0.000 A 
ATOM     17  C   UNL     1       2.706   6.007  18.613  0.00  0.00    +0.000 A 
ATOM     18  C   UNL     1       2.290   4.781  19.153  0.00  0.00    +0.000 A 
ATOM     19  C   UNL     1       1.305   4.717  20.153  0.00  0.00    +0.000 A 
ATOM     20  C   UNL     1       0.901   3.489  20.680  0.00  0.00    +0.000 A 
ATOM     21  C   UNL     1       1.484   2.312  20.222  0.00  0.00    +0.000 A 
ATOM     22  C   UNL     1       2.464   2.359  19.228  0.00  0.00    +0.000 A 
ATOM     23  C   UNL     1       2.875   3.585  18.675  0.00  0.00    +0.000 A 
ATOM     24  C   UNL     1       3.845   3.651  17.658  0.00  0.00    +0.000 A 
ENDBRANCH  14  15
ENDBRANCH  13  14
ENDBRANCH   4  13
TORSDOF 4
ENDMDL
MODEL 4
REMARK VINA RESULT:      -8.2      2.342      9.733
REMARK  Name = 
REMARK  4 active torsions:
REMARK  status: ('A' for Active; 'I' for Inactive)
REMARK    1  A    between atoms: C_4  and  C_5
REMARK    2  A    between atoms: C_8  and  S_9
REMARK    3  A    between atoms: S_9  and  C_10
REMARK    4  A    between atoms: C_10  and  C_11
REMARK                            x       y       z     vdW  Elec       q    Type
REMARK                         _______ _______ _______ _____ _____    ______ ____
ROOT
ATOM      1  C   UNL     1       8.348   8.654  18.284  0.00  0.00    +0.000 A 
ATOM      2  C   UNL     1       8.444   7.588  19.171  0.00  0.00    +0.000 A 
ATOM      3  C   UNL     1       8.051   6.311  18.760  0.00  0.00    +0.000 A 
ATOM      4  C   UNL     1       7.580   6.135  17.470  0.00  0.00    +0.000 A 
ATOM      5  N   UNL     1       7.461   7.186  16.637  0.00  0.00    +0.000 NA
ATOM      6  N   UNL     1       7.846   8.446  17.043  0.00  0.00    +0.000 NA
ENDROOT
BRANCH   1  10
ATOM      7  C   UNL     1       9.531  12.636  19.134  0.00  0.00    +0.000 A 
ATOM      8  C   UNL     1       9.850  11.644  20.049  0.00  0.00    +0.000 A 
ATOM      9  C   UNL     1       9.492  10.325  19.778  0.00  0.00    +0.000 A 
ATOM     10  C   UNL     1       8.814  10.022  18.595  0.00  0.00    +0.000 A 
ATOM     11  N   UNL     1       8.511  10.992  17.687  0.00  0.00    +0.000 NA
ATOM     12  C   UNL     1       8.871  12.263  17.976  0.00  0.00    +0.000 A 
ENDBRANCH   1  10
BRANCH   4  13
ATOM     13  S   UNL     1       7.112   4.519  16.890  0.00  0.00    +0.000 S 
BRANCH  13  14
ATOM     14  C   UNL     1       5.520   4.922  16.096  0.00  0.00    +0.000 C 
BRANCH  14  15
ATOM     15  C   UNL     1       4.341   4.498  16.941  0.00  0.00    +0.000 A 
ATOM     16  C   UNL     1       3.642   3.321  16.643  0.00  0.00    +0.000 A 
ATOM     17  C   UNL     1       2.575   2.905  17.443  0.00  0.00    +0.000 A 
ATOM     18  C   UNL     1       2.175   3.657  18.558  0.00  0.00    +0.000 A 
ATOM     19  C   UNL     1       1.118   3.237  19.383  0.00  0.00    +0.000 A 
ATOM     20  C   UNL     1       0.731   3.995  20.490  0.00  0.00    +0.000 A 
ATOM     21  C   UNL     1       1.389   5.186  20.778  0.00  0.00    +0.000 A 
ATOM     22  C   UNL     1       2.442   5.617  19.967  0.00  0.00    +0.000 A 
ATOM     23  C   UNL     1       2.854   4.861  18.856  0.00  0.00    +0.000 A 
ATOM     24  C   UNL     1       3.926   5.267  18.041  0.00  0.00    +0.000 A 
ENDBRANCH  14  15
ENDBRANCH  13  14
ENDBRANCH   4  13
TORSDOF 4
ENDMDL
MODEL 5
REMARK VINA RESULT:      -8.2      3.249      8.555
REMARK  Name = 
REMARK  4 active torsions:
REMARK  status: ('A' for Active; 'I' for Inactive)
REMARK    1  A    between atoms: C_4  and  C_5
REMARK    2  A    between atoms: C_8  and  S_9
REMARK    3  A    between atoms: S_9  and  C_10
REMARK    4  A    between atoms: C_10  and  C_11
REMARK                            x       y       z     vdW  Elec       q    Type
REMARK                         _______ _______ _______ _____ _____    ______ ____
ROOT
ATOM      1  C   UNL     1       8.276   8.660  18.271  0.00  0.00    +0.000 A 
ATOM      2  C   UNL     1       8.478   7.552  19.085  0.00  0.00    +0.000 A 
ATOM      3  C   UNL     1       7.965   6.310  18.701  0.00  0.00    +0.000 A 
ATOM      4  C   UNL     1       7.271   6.209  17.507  0.00  0.00    +0.000 A 
ATOM      5  N   UNL     1       7.055   7.301  16.748  0.00  0.00    +0.000 NA
ATOM      6  N   UNL     1       7.558   8.527  17.129  0.00  0.00    +0.000 NA
ENDROOT
BRANCH   1  10
ATOM      7  C   UNL     1       9.761  12.557  19.037  0.00  0.00    +0.000 A 
ATOM      8  C   UNL     1      10.086  11.541  19.924  0.00  0.00    +0.000 A 
ATOM      9  C   UNL     1       9.629  10.248  19.678  0.00  0.00    +0.000 A 
ATOM     10  C   UNL     1       8.846   9.995  18.549  0.00  0.00    +0.000 A 
ATOM     11  N   UNL     1       8.536  10.987  17.668  0.00  0.00    +0.000 NA
ATOM     12  C   UNL     1       8.994  12.233  17.932  0.00  0.00    +0.000 A 
ENDBRANCH   1  10
BRANCH   4  13
ATOM     13  S   UNL     1       6.641   4.640  16.955  0.00  0.00    +0.000 S 
BRANCH  13  14
ATOM     14  C   UNL     1       5.026   5.168  16.289  0.00  0.00    +0.000 C 
BRANCH  14  15
ATOM     15  C   UNL     1       4.148   5.785  17.354  0.00  0.00    +0.000 A 
ATOM     16  C   UNL     1       3.959   5.136  18.580  0.00  0.00    +0.000 A 
ATOM     17  C   UNL     1       3.178   5.719  19.581  0.00  0.00    +0.000 A 
ATOM     18  C   UNL     1       2.561   6.962  19.380  0.00  0.00    +0.000 A 
ATOM     19  C   UNL     1       1.792   7.570  20.387  0.00  0.00    +0.000 A 
ATOM     20  C   UNL     1       1.185   8.808  20.174  0.00  0.00    +0.000 A 
ATOM     21  C   UNL     1       1.330   9.449  18.948  0.00  0.00    +0.000 A 
ATOM     22  C   UNL     1       2.091   8.859  17.936  0.00  0.00    +0.000 A 
ATOM     23  C   UNL     1       2.721   7.618  18.137  0.00  0.00    +0.000 A 
ATOM     24  C   UNL     1       3.511   7.018  17.139  0.00  0.00    +0.000 A 
ENDBRANCH  14  15
ENDBRANCH  13  14
ENDBRANCH   4  13
TORSDOF 4
ENDMDL
MODEL 6
REMARK VINA RESULT:      -7.9      6.813      8.145
REMARK  Name = 
REMARK  4 active torsions:
REMARK  status: ('A' for Active; 'I' for Inactive)
REMARK    1  A    between atoms: C_4  and  C_5
REMARK    2  A    between atoms: C_8  and  S_9
REMARK    3  A    between atoms: S_9  and  C_10
REMARK    4  A    between atoms: C_10  and  C_11
REMARK                            x       y       z     vdW  Elec       q    Type
REMARK                         _______ _______ _______ _____ _____    ______ ____
ROOT
ATOM      1  C   UNL     1       5.884   4.299  15.728  0.00  0.00    +0.000 A 
ATOM      2  C   UNL     1       4.641   3.741  16.004  0.00  0.00    +0.000 A 
ATOM      3  C   UNL     1       4.163   3.737  17.317  0.00  0.00    +0.000 A 
ATOM      4  C   UNL     1       4.937   4.298  18.317  0.00  0.00    +0.000 A 
ATOM      5  N   UNL     1       6.154   4.803  18.037  0.00  0.00    +0.000 NA
ATOM      6  N   UNL     1       6.629   4.804  16.742  0.00  0.00    +0.000 NA
ENDROOT
BRANCH   1  10
ATOM      7  C   UNL     1       7.636   4.657  11.884  0.00  0.00    +0.000 A 
ATOM      8  C   UNL     1       6.611   3.740  12.058  0.00  0.00    +0.000 A 
ATOM      9  C   UNL     1       6.005   3.623  13.306  0.00  0.00    +0.000 A 
ATOM     10  C   UNL     1       6.441   4.425  14.365  0.00  0.00    +0.000 A 
ATOM     11  N   UNL     1       7.439   5.337  14.194  0.00  0.00    +0.000 NA
ATOM     12  C   UNL     1       8.008   5.429  12.970  0.00  0.00    +0.000 A 
ENDBRANCH   1  10
BRANCH   4  13
ATOM     13  S   UNL     1       4.347   4.357  19.994  0.00  0.00    +0.000 S 
BRANCH  13  14
ATOM     14  C   UNL     1       2.572   4.648  19.690  0.00  0.00    +0.000 C 
BRANCH  14  15
ATOM     15  C   UNL     1       2.254   6.119  19.548  0.00  0.00    +0.000 A 
ATOM     16  C   UNL     1       2.447   6.770  18.324  0.00  0.00    +0.000 A 
ATOM     17  C   UNL     1       2.120   8.121  18.177  0.00  0.00    +0.000 A 
ATOM     18  C   UNL     1       1.598   8.856  19.251  0.00  0.00    +0.000 A 
ATOM     19  C   UNL     1       1.244  10.209  19.110  0.00  0.00    +0.000 A 
ATOM     20  C   UNL     1       0.724  10.928  20.187  0.00  0.00    +0.000 A 
ATOM     21  C   UNL     1       0.562  10.307  21.421  0.00  0.00    +0.000 A 
ATOM     22  C   UNL     1       0.909   8.963  21.578  0.00  0.00    +0.000 A 
ATOM     23  C   UNL     1       1.422   8.218  20.501  0.00  0.00    +0.000 A 
ATOM     24  C   UNL     1       1.756   6.858  20.633  0.00  0.00    +0.000 A 
ENDBRANCH  14  15
ENDBRANCH  13  14
ENDBRANCH   4  13
TORSDOF 4
ENDMDL
MODEL 7
REMARK VINA RESULT:      -7.8      7.169      9.638
REMARK  Name = 
REMARK  4 active torsions:
REMARK  status: ('A' for Active; 'I' for Inactive)
REMARK    1  A    between atoms: C_4  and  C_5
REMARK    2  A    between atoms: C_8  and  S_9
REMARK    3  A    between atoms: S_9  and  C_10
REMARK    4  A    between atoms: C_10  and  C_11
REMARK                            x       y       z     vdW  Elec       q    Type
REMARK                         _______ _______ _______ _____ _____    ______ ____
ROOT
ATOM      1  C   UNL     1       3.628   6.442  17.717  0.00  0.00    +0.000 A 
ATOM      2  C   UNL     1       3.224   7.742  17.438  0.00  0.00    +0.000 A 
ATOM      3  C   UNL     1       2.420   8.427  18.353  0.00  0.00    +0.000 A 
ATOM      4  C   UNL     1       2.050   7.794  19.528  0.00  0.00    +0.000 A 
ATOM      5  N   UNL     1       2.422   6.522  19.765  0.00  0.00    +0.000 NA
ATOM      6  N   UNL     1       3.212   5.845  18.860  0.00  0.00    +0.000 NA
ENDROOT
BRANCH   1  10
ATOM      7  C   UNL     1       6.371   4.332  15.268  0.00  0.00    +0.000 A 
ATOM      8  C   UNL     1       5.628   3.615  16.193  0.00  0.00    +0.000 A 
ATOM      9  C   UNL     1       4.703   4.285  16.991  0.00  0.00    +0.000 A 
ATOM     10  C   UNL     1       4.543   5.666  16.853  0.00  0.00    +0.000 A 
ATOM     11  N   UNL     1       5.262   6.372  15.935  0.00  0.00    +0.000 NA
ATOM     12  C   UNL     1       6.152   5.694  15.174  0.00  0.00    +0.000 A 
ENDBRANCH   1  10
BRANCH   4  13
ATOM     13  S   UNL     1       1.066   8.644  20.743  0.00  0.00    +0.000 S 
BRANCH  13  14
ATOM     14  C   UNL     1       1.041  10.315  20.010  0.00  0.00    +0.000 C 
BRANCH  14  15
ATOM     15  C   UNL     1      -0.309  10.654  19.419  0.00  0.00    +0.000 A 
ATOM     16  C   UNL     1      -1.183  11.513  20.096  0.00  0.00    +0.000 A 
ATOM     17  C   UNL     1      -2.415  11.859  19.536  0.00  0.00    +0.000 A 
ATOM     18  C   UNL     1      -2.809  11.352  18.290  0.00  0.00    +0.000 A 
ATOM     19  C   UNL     1      -4.035  11.710  17.706  0.00  0.00    +0.000 A 
ATOM     20  C   UNL     1      -4.413  11.197  16.464  0.00  0.00    +0.000 A 
ATOM     21  C   UNL     1      -3.574  10.312  15.795  0.00  0.00    +0.000 A 
ATOM     22  C   UNL     1      -2.350   9.946  16.362  0.00  0.00    +0.000 A 
ATOM     23  C   UNL     1      -1.947  10.462  17.606  0.00  0.00    +0.000 A 
ATOM     24  C   UNL     1      -0.709  10.122  18.182  0.00  0.00    +0.000 A 
ENDBRANCH  14  15
ENDBRANCH  13  14
ENDBRANCH   4  13
TORSDOF 4
ENDMDL
MODEL 8
REMARK VINA RESULT:      -7.8      8.111     10.788
REMARK  Name = 
REMARK  4 active torsions:
REMARK  status: ('A' for Active; 'I' for Inactive)
REMARK    1  A    between atoms: C_4  and  C_5
REMARK    2  A    between atoms: C_8  and  S_9
REMARK    3  A    between atoms: S_9  and  C_10
REMARK    4  A    between atoms: C_10  and  C_11
REMARK                            x       y       z     vdW  Elec       q    Type
REMARK                         _______ _______ _______ _____ _____    ______ ____
ROOT
ATOM      1  C   UNL     1      -0.786  11.338  22.469  0.00  0.00    +0.000 A 
ATOM      2  C   UNL     1      -0.578  11.136  21.110  0.00  0.00    +0.000 A 
ATOM      3  C   UNL     1       0.099   9.992  20.677  0.00  0.00    +0.000 A 
ATOM      4  C   UNL     1       0.540   9.076  21.617  0.00  0.00    +0.000 A 
ATOM      5  N   UNL     1       0.360   9.306  22.932  0.00  0.00    +0.000 NA
ATOM      6  N   UNL     1      -0.303  10.437  23.359  0.00  0.00    +0.000 NA
ENDROOT
BRANCH   1  10
ATOM      7  C   UNL     1      -2.945  14.685  23.922  0.00  0.00    +0.000 A 
ATOM      8  C   UNL     1      -3.594  13.462  23.853  0.00  0.00    +0.000 A 
ATOM      9  C   UNL     1      -2.896  12.344  23.401  0.00  0.00    +0.000 A 
ATOM     10  C   UNL     1      -1.558  12.471  23.020  0.00  0.00    +0.000 A 
ATOM     11  N   UNL     1      -0.912  13.669  23.100  0.00  0.00    +0.000 NA
ATOM     12  C   UNL     1      -1.615  14.737  23.542  0.00  0.00    +0.000 A 
ENDBRANCH   1  10
BRANCH   4  13
ATOM     13  S   UNL     1       1.363   7.583  21.108  0.00  0.00    +0.000 S 
BRANCH  13  14
ATOM     14  C   UNL     1       1.977   8.107  19.472  0.00  0.00    +0.000 C 
BRANCH  14  15
ATOM     15  C   UNL     1       2.704   6.993  18.755  0.00  0.00    +0.000 A 
ATOM     16  C   UNL     1       2.498   5.659  19.127  0.00  0.00    +0.000 A 
ATOM     17  C   UNL     1       3.140   4.622  18.443  0.00  0.00    +0.000 A 
ATOM     18  C   UNL     1       4.007   4.893  17.374  0.00  0.00    +0.000 A 
ATOM     19  C   UNL     1       4.640   3.859  16.664  0.00  0.00    +0.000 A 
ATOM     20  C   UNL     1       5.500   4.143  15.602  0.00  0.00    +0.000 A 
ATOM     21  C   UNL     1       5.746   5.464  15.244  0.00  0.00    +0.000 A 
ATOM     22  C   UNL     1       5.124   6.504  15.940  0.00  0.00    +0.000 A 
ATOM     23  C   UNL     1       4.245   6.237  17.004  0.00  0.00    +0.000 A 
ATOM     24  C   UNL     1       3.592   7.270  17.702  0.00  0.00    +0.000 A 
ENDBRANCH  14  15
ENDBRANCH  13  14
ENDBRANCH   4  13
TORSDOF 4
ENDMDL
MODEL 9
REMARK VINA RESULT:      -7.8      6.881      8.422
REMARK  Name = 
REMARK  4 active torsions:
REMARK  status: ('A' for Active; 'I' for Inactive)
REMARK    1  A    between atoms: C_4  and  C_5
REMARK    2  A    between atoms: C_8  and  S_9
REMARK    3  A    between atoms: S_9  and  C_10
REMARK    4  A    between atoms: C_10  and  C_11
REMARK                            x       y       z     vdW  Elec       q    Type
REMARK                         _______ _______ _______ _____ _____    ______ ____
ROOT
ATOM      1  C   UNL     1       5.397   5.054  15.606  0.00  0.00    +0.000 A 
ATOM      2  C   UNL     1       4.640   4.125  16.310  0.00  0.00    +0.000 A 
ATOM      3  C   UNL     1       3.971   4.518  17.473  0.00  0.00    +0.000 A 
ATOM      4  C   UNL     1       4.071   5.833  17.894  0.00  0.00    +0.000 A 
ATOM      5  N   UNL     1       4.837   6.711  17.218  0.00  0.00    +0.000 NA
ATOM      6  N   UNL     1       5.500   6.322  16.074  0.00  0.00    +0.000 NA
ENDROOT
BRANCH   1  10
ATOM      7  C   UNL     1       7.484   4.198  12.016  0.00  0.00    +0.000 A 
ATOM      8  C   UNL     1       6.319   3.496  12.285  0.00  0.00    +0.000 A 
ATOM      9  C   UNL     1       5.604   3.778  13.447  0.00  0.00    +0.000 A 
ATOM     10  C   UNL     1       6.074   4.758  14.326  0.00  0.00    +0.000 A 
ATOM     11  N   UNL     1       7.211   5.460  14.059  0.00  0.00    +0.000 NA
ATOM     12  C   UNL     1       7.883   5.165  12.923  0.00  0.00    +0.000 A 
ENDBRANCH   1  10
BRANCH   4  13
ATOM     13  S   UNL     1       3.198   6.389  19.342  0.00  0.00    +0.000 S 
BRANCH  13  14
ATOM     14  C   UNL     1       2.242   7.766  18.620  0.00  0.00    +0.000 C 
BRANCH  14  15
ATOM     15  C   UNL     1       1.477   8.537  19.671  0.00  0.00    +0.000 A 
ATOM     16  C   UNL     1       1.333   8.020  20.964  0.00  0.00    +0.000 A 
ATOM     17  C   UNL     1       0.658   8.746  21.949  0.00  0.00    +0.000 A 
ATOM     18  C   UNL     1       0.105  10.003  21.666  0.00  0.00    +0.000 A 
ATOM     19  C   UNL     1      -0.556  10.753  22.653  0.00  0.00    +0.000 A 
ATOM     20  C   UNL     1      -1.100  12.004  22.357  0.00  0.00    +0.000 A 
ATOM     21  C   UNL     1      -1.000  12.516  21.067  0.00  0.00    +0.000 A 
ATOM     22  C   UNL     1      -0.346  11.783  20.074  0.00  0.00    +0.000 A 
ATOM     23  C   UNL     1       0.220  10.527  20.357  0.00  0.00    +0.000 A 
ATOM     24  C   UNL     1       0.902   9.784  19.375  0.00  0.00    +0.000 A 
ENDBRANCH  14  15
ENDBRANCH  13  14
ENDBRANCH   4  13
TORSDOF 4
ENDMDL
