MODEL 1
REMARK VINA RESULT:      -8.7      0.000      0.000
REMARK  Name = 
REMARK  6 active torsions:
REMARK  status: ('A' for Active; 'I' for Inactive)
REMARK    1  A    between atoms: C_1  and  C_2
REMARK    2  A    between atoms: C_5  and  S_6
REMARK    3  A    between atoms: S_6  and  N_9
REMARK    4  A    between atoms: N_9  and  C_10
REMARK    5  A    between atoms: C_16  and  C_17
REMARK    6  A    between atoms: C_22  and  C_23
REMARK                            x       y       z     vdW  Elec       q    Type
REMARK                         _______ _______ _______ _____ _____    ______ ____
ROOT
ATOM      1  C   UNL     1       3.103   4.949  18.714  0.00  0.00    +0.000 A 
ATOM      2  C   UNL     1       3.231   3.556  18.594  0.00  0.00    +0.000 A 
ATOM      3  C   UNL     1       2.750   2.707  19.589  0.00  0.00    +0.000 A 
ATOM      4  C   UNL     1       2.176   3.248  20.731  0.00  0.00    +0.000 A 
ATOM      5 CL   UNL     1       1.575   2.206  21.963  0.00  0.00    +0.000 Cl
ATOM      6  C   UNL     1       2.052   4.630  20.879  0.00  0.00    +0.000 A 
ATOM      7  C   UNL     1       2.490   5.505  19.863  0.00  0.00    +0.000 A 
ENDROOT
BRANCH   7   8
ATOM      8  C   UNL     1       2.189   6.979  19.933  0.00  0.00    +0.000 C 
ATOM      9  O   UNL     1       2.561   7.708  19.017  0.00  0.00    +0.000 OA
ATOM     10  N   UNL     1       1.461   7.424  21.025  0.00  0.00    +0.000 N 
ATOM     11  C   UNL     1       1.040   8.723  21.090  0.00  0.00    +0.000 A 
ATOM     12  N   UNL     1       1.086   9.634  20.160  0.00  0.00    +0.000 NA
ATOM     13  C   UNL     1       0.644  10.841  20.654  0.00  0.00    +0.000 A 
ATOM     14  C   UNL     1       0.236  10.806  21.975  0.00  0.00    +0.000 A 
ATOM     15  S   UNL     1       0.364   9.197  22.581  0.00  0.00    +0.000 S 
ATOM     16  H   UNL     1       1.264   6.869  21.838  0.00  0.00    +0.000 HD
BRANCH  13  17
ATOM     17  C   UNL     1       0.671  12.020  19.802  0.00  0.00    +0.000 A 
ATOM     18  C   UNL     1       1.830  12.435  19.138  0.00  0.00    +0.000 A 
ATOM     19  C   UNL     1       1.817  13.590  18.351  0.00  0.00    +0.000 A 
ATOM     20  C   UNL     1       0.649  14.340  18.221  0.00  0.00    +0.000 A 
ATOM     21  C   UNL     1      -0.512  13.940  18.882  0.00  0.00    +0.000 A 
ATOM     22  C   UNL     1      -0.498  12.789  19.669  0.00  0.00    +0.000 A 
ENDBRANCH  13  17
ENDBRANCH   7   8
BRANCH   1  23
ATOM     23  N   UNL     1       3.643   5.743  17.643  0.00  0.00    +0.000 N 
ATOM     24  H   UNL     1       3.278   5.518  16.720  0.00  0.00    +0.000 HD
BRANCH  23  25
ATOM     25  S   UNL     1       5.336   5.880  17.609  0.00  0.00    +0.000 S 
ATOM     26  O   UNL     1       5.826   4.978  18.635  0.00  0.00    +0.000 OA
ATOM     27  O   UNL     1       5.730   7.270  17.593  0.00  0.00    +0.000 OA
BRANCH  25  32
ATOM     28  C   UNL     1       6.734   3.539  12.163  0.00  0.00    +0.000 C 
ATOM     29  C   UNL     1       6.391   4.077  13.523  0.00  0.00    +0.000 A 
ATOM     30  C   UNL     1       5.127   3.857  14.093  0.00  0.00    +0.000 A 
ATOM     31  C   UNL     1       4.805   4.396  15.345  0.00  0.00    +0.000 A 
ATOM     32  C   UNL     1       5.752   5.157  16.033  0.00  0.00    +0.000 A 
ATOM     33  C   UNL     1       7.020   5.373  15.481  0.00  0.00    +0.000 A 
ATOM     34  C   UNL     1       7.335   4.833  14.230  0.00  0.00    +0.000 A 
ENDBRANCH  25  32
ENDBRANCH  23  25
ENDBRANCH   1  23
TORSDOF 5
ENDMDL
MODEL 2
REMARK VINA RESULT:      -8.6      0.118      1.207
REMARK  Name = 
REMARK  6 active torsions:
REMARK  status: ('A' for Active; 'I' for Inactive)
REMARK    1  A    between atoms: C_1  and  C_2
REMARK    2  A    between atoms: C_5  and  S_6
REMARK    3  A    between atoms: S_6  and  N_9
REMARK    4  A    between atoms: N_9  and  C_10
REMARK    5  A    between atoms: C_16  and  C_17
REMARK    6  A    between atoms: C_22  and  C_23
REMARK                            x       y       z     vdW  Elec       q    Type
REMARK                         _______ _______ _______ _____ _____    ______ ____
ROOT
ATOM      1  C   UNL     1       3.131   4.992  18.716  0.00  0.00    +0.000 A 
ATOM      2  C   UNL     1       3.267   3.600  18.592  0.00  0.00    +0.000 A 
ATOM      3  C   UNL     1       2.791   2.745  19.584  0.00  0.00    +0.000 A 
ATOM      4  C   UNL     1       2.214   3.279  20.728  0.00  0.00    +0.000 A 
ATOM      5 CL   UNL     1       1.619   2.230  21.956  0.00  0.00    +0.000 Cl
ATOM      6  C   UNL     1       2.082   4.660  20.881  0.00  0.00    +0.000 A 
ATOM      7  C   UNL     1       2.515   5.541  19.868  0.00  0.00    +0.000 A 
ENDROOT
BRANCH   7   8
ATOM      8  C   UNL     1       2.205   7.013  19.942  0.00  0.00    +0.000 C 
ATOM      9  O   UNL     1       2.589   7.750  19.038  0.00  0.00    +0.000 OA
ATOM     10  N   UNL     1       1.458   7.446  21.025  0.00  0.00    +0.000 N 
ATOM     11  C   UNL     1       1.028   8.743  21.091  0.00  0.00    +0.000 A 
ATOM     12  N   UNL     1       1.086   9.661  20.169  0.00  0.00    +0.000 NA
ATOM     13  C   UNL     1       0.629  10.862  20.663  0.00  0.00    +0.000 A 
ATOM     14  C   UNL     1       0.199  10.816  21.977  0.00  0.00    +0.000 A 
ATOM     15  S   UNL     1       0.325   9.204  22.574  0.00  0.00    +0.000 S 
ATOM     16  H   UNL     1       1.250   6.885  21.830  0.00  0.00    +0.000 HD
BRANCH  13  17
ATOM     17  C   UNL     1       0.665  12.047  19.820  0.00  0.00    +0.000 A 
ATOM     18  C   UNL     1      -0.497  12.708  19.410  0.00  0.00    +0.000 A 
ATOM     19  C   UNL     1      -0.416  13.829  18.579  0.00  0.00    +0.000 A 
ATOM     20  C   UNL     1       0.825  14.297  18.148  0.00  0.00    +0.000 A 
ATOM     21  C   UNL     1       1.991  13.644  18.546  0.00  0.00    +0.000 A 
ATOM     22  C   UNL     1       1.909  12.526  19.374  0.00  0.00    +0.000 A 
ENDBRANCH  13  17
ENDBRANCH   7   8
BRANCH   1  23
ATOM     23  N   UNL     1       3.666   5.793  17.648  0.00  0.00    +0.000 N 
ATOM     24  H   UNL     1       3.294   5.577  16.726  0.00  0.00    +0.000 HD
BRANCH  23  25
ATOM     25  S   UNL     1       5.360   5.922  17.602  0.00  0.00    +0.000 S 
ATOM     26  O   UNL     1       5.855   4.992  18.600  0.00  0.00    +0.000 OA
ATOM     27  O   UNL     1       5.761   7.310  17.618  0.00  0.00    +0.000 OA
BRANCH  25  32
ATOM     28  C   UNL     1       6.745   3.461  12.206  0.00  0.00    +0.000 C 
ATOM     29  C   UNL     1       6.401   4.106  13.518  0.00  0.00    +0.000 A 
ATOM     30  C   UNL     1       7.332   4.905  14.200  0.00  0.00    +0.000 A 
ATOM     31  C   UNL     1       7.015   5.470  15.442  0.00  0.00    +0.000 A 
ATOM     32  C   UNL     1       5.758   5.238  16.004  0.00  0.00    +0.000 A 
ATOM     33  C   UNL     1       4.816   4.455  15.328  0.00  0.00    +0.000 A 
ATOM     34  C   UNL     1       5.140   3.892  14.090  0.00  0.00    +0.000 A 
ENDBRANCH  25  32
ENDBRANCH  23  25
ENDBRANCH   1  23
TORSDOF 5
ENDMDL
MODEL 3
REMARK VINA RESULT:      -8.4      4.146     10.288
REMARK  Name = 
REMARK  6 active torsions:
REMARK  status: ('A' for Active; 'I' for Inactive)
REMARK    1  A    between atoms: C_1  and  C_2
REMARK    2  A    between atoms: C_5  and  S_6
REMARK    3  A    between atoms: S_6  and  N_9
REMARK    4  A    between atoms: N_9  and  C_10
REMARK    5  A    between atoms: C_16  and  C_17
REMARK    6  A    between atoms: C_22  and  C_23
REMARK                            x       y       z     vdW  Elec       q    Type
REMARK                         _______ _______ _______ _____ _____    ______ ____
ROOT
ATOM      1  C   UNL     1      -0.528  11.927  18.887  0.00  0.00    +0.000 A 
ATOM      2  C   UNL     1      -0.867  13.253  18.578  0.00  0.00    +0.000 A 
ATOM      3  C   UNL     1       0.123  14.210  18.359  0.00  0.00    +0.000 A 
ATOM      4  C   UNL     1       1.459  13.855  18.490  0.00  0.00    +0.000 A 
ATOM      5 CL   UNL     1       2.687  15.029  18.216  0.00  0.00    +0.000 Cl
ATOM      6  C   UNL     1       1.818  12.545  18.813  0.00  0.00    +0.000 A 
ATOM      7  C   UNL     1       0.833  11.552  18.993  0.00  0.00    +0.000 A 
ENDROOT
BRANCH   7   8
ATOM      8  C   UNL     1       1.219  10.104  19.152  0.00  0.00    +0.000 C 
ATOM      9  O   UNL     1       0.700   9.444  20.047  0.00  0.00    +0.000 OA
ATOM     10  N   UNL     1       2.122   9.587  18.236  0.00  0.00    +0.000 N 
ATOM     11  C   UNL     1       2.417   8.252  18.239  0.00  0.00    +0.000 A 
ATOM     12  N   UNL     1       1.839   7.299  18.912  0.00  0.00    +0.000 NA
ATOM     13  C   UNL     1       2.494   6.105  18.705  0.00  0.00    +0.000 A 
ATOM     14  C   UNL     1       3.567   6.183  17.835  0.00  0.00    +0.000 A 
ATOM     15  S   UNL     1       3.707   7.789  17.226  0.00  0.00    +0.000 S 
ATOM     16  H   UNL     1       2.648  10.141  17.586  0.00  0.00    +0.000 HD
BRANCH  13  17
ATOM     17  C   UNL     1       2.056   4.912  19.412  0.00  0.00    +0.000 A 
ATOM     18  C   UNL     1       2.267   4.738  20.784  0.00  0.00    +0.000 A 
ATOM     19  C   UNL     1       1.852   3.563  21.418  0.00  0.00    +0.000 A 
ATOM     20  C   UNL     1       1.227   2.553  20.688  0.00  0.00    +0.000 A 
ATOM     21  C   UNL     1       1.015   2.712  19.319  0.00  0.00    +0.000 A 
ATOM     22  C   UNL     1       1.430   3.883  18.688  0.00  0.00    +0.000 A 
ENDBRANCH  13  17
ENDBRANCH   7   8
BRANCH   1  23
ATOM     23  N   UNL     1      -1.619  11.015  19.111  0.00  0.00    +0.000 N 
ATOM     24  H   UNL     1      -1.363  10.154  19.588  0.00  0.00    +0.000 HD
BRANCH  23  25
ATOM     25  S   UNL     1      -2.596  10.692  17.759  0.00  0.00    +0.000 S 
ATOM     26  O   UNL     1      -2.948   9.287  17.852  0.00  0.00    +0.000 OA
ATOM     27  O   UNL     1      -1.992  11.227  16.560  0.00  0.00    +0.000 OA
BRANCH  25  32
ATOM     28  C   UNL     1      -7.579  14.002  18.902  0.00  0.00    +0.000 C 
ATOM     29  C   UNL     1      -6.365  13.154  18.645  0.00  0.00    +0.000 A 
ATOM     30  C   UNL     1      -5.391  12.961  19.637  0.00  0.00    +0.000 A 
ATOM     31  C   UNL     1      -4.244  12.201  19.375  0.00  0.00    +0.000 A 
ATOM     32  C   UNL     1      -4.071  11.628  18.113  0.00  0.00    +0.000 A 
ATOM     33  C   UNL     1      -5.042  11.802  17.120  0.00  0.00    +0.000 A 
ATOM     34  C   UNL     1      -6.183  12.563  17.388  0.00  0.00    +0.000 A 
ENDBRANCH  25  32
ENDBRANCH  23  25
ENDBRANCH   1  23
TORSDOF 5
ENDMDL
MODEL 4
REMARK VINA RESULT:      -8.3      4.094      9.533
REMARK  Name = 
REMARK  6 active torsions:
REMARK  status: ('A' for Active; 'I' for Inactive)
REMARK    1  A    between atoms: C_1  and  C_2
REMARK    2  A    between atoms: C_5  and  S_6
REMARK    3  A    between atoms: S_6  and  N_9
REMARK    4  A    between atoms: N_9  and  C_10
REMARK    5  A    between atoms: C_16  and  C_17
REMARK    6  A    between atoms: C_22  and  C_23
REMARK                            x       y       z     vdW  Elec       q    Type
REMARK                         _______ _______ _______ _____ _____    ______ ____
ROOT
ATOM      1  C   UNL     1       0.563  12.260  21.361  0.00  0.00    +0.000 A 
ATOM      2  C   UNL     1      -0.041  13.430  21.846  0.00  0.00    +0.000 A 
ATOM      3  C   UNL     1      -1.186  13.366  22.638  0.00  0.00    +0.000 A 
ATOM      4  C   UNL     1      -1.758  12.132  22.916  0.00  0.00    +0.000 A 
ATOM      5 CL   UNL     1      -3.169  12.044  23.898  0.00  0.00    +0.000 Cl
ATOM      6  C   UNL     1      -1.183  10.956  22.431  0.00  0.00    +0.000 A 
ATOM      7  C   UNL     1       0.001  10.996  21.667  0.00  0.00    +0.000 A 
ENDROOT
BRANCH   7   8
ATOM      8  C   UNL     1       0.728   9.727  21.304  0.00  0.00    +0.000 C 
ATOM      9  O   UNL     1       0.913   8.878  22.170  0.00  0.00    +0.000 OA
ATOM     10  N   UNL     1       1.112   9.576  19.981  0.00  0.00    +0.000 N 
ATOM     11  C   UNL     1       1.657   8.398  19.552  0.00  0.00    +0.000 A 
ATOM     12  N   UNL     1       1.744   7.268  20.193  0.00  0.00    +0.000 NA
ATOM     13  C   UNL     1       2.445   6.348  19.445  0.00  0.00    +0.000 A 
ATOM     14  C   UNL     1       2.860   6.811  18.209  0.00  0.00    +0.000 A 
ATOM     15  S   UNL     1       2.298   8.423  17.973  0.00  0.00    +0.000 S 
ATOM     16  H   UNL     1       1.083  10.309  19.296  0.00  0.00    +0.000 HD
BRANCH  13  17
ATOM     17  C   UNL     1       2.720   5.031  19.997  0.00  0.00    +0.000 A 
ATOM     18  C   UNL     1       3.712   4.194  19.475  0.00  0.00    +0.000 A 
ATOM     19  C   UNL     1       3.924   2.925  20.021  0.00  0.00    +0.000 A 
ATOM     20  C   UNL     1       3.148   2.481  21.091  0.00  0.00    +0.000 A 
ATOM     21  C   UNL     1       2.153   3.303  21.618  0.00  0.00    +0.000 A 
ATOM     22  C   UNL     1       1.940   4.568  21.071  0.00  0.00    +0.000 A 
ENDBRANCH  13  17
ENDBRANCH   7   8
BRANCH   1  23
ATOM     23  N   UNL     1       1.733  12.427  20.540  0.00  0.00    +0.000 N 
ATOM     24  H   UNL     1       2.387  13.133  20.870  0.00  0.00    +0.000 HD
BRANCH  23  25
ATOM     25  S   UNL     1       1.443  12.601  18.874  0.00  0.00    +0.000 S 
ATOM     26  O   UNL     1       0.160  11.968  18.628  0.00  0.00    +0.000 OA
ATOM     27  O   UNL     1       2.614  12.224  18.117  0.00  0.00    +0.000 OA
BRANCH  25  32
ATOM     28  C   UNL     1       0.648  18.623  18.432  0.00  0.00    +0.000 C 
ATOM     29  C   UNL     1       0.831  17.133  18.501  0.00  0.00    +0.000 A 
ATOM     30  C   UNL     1      -0.273  16.269  18.569  0.00  0.00    +0.000 A 
ATOM     31  C   UNL     1      -0.092  14.884  18.672  0.00  0.00    +0.000 A 
ATOM     32  C   UNL     1       1.202  14.359  18.704  0.00  0.00    +0.000 A 
ATOM     33  C   UNL     1       2.311  15.209  18.624  0.00  0.00    +0.000 A 
ATOM     34  C   UNL     1       2.122  16.591  18.523  0.00  0.00    +0.000 A 
ENDBRANCH  25  32
ENDBRANCH  23  25
ENDBRANCH   1  23
TORSDOF 5
ENDMDL
MODEL 5
REMARK VINA RESULT:      -8.2      4.959      8.188
REMARK  Name = 
REMARK  6 active torsions:
REMARK  status: ('A' for Active; 'I' for Inactive)
REMARK    1  A    between atoms: C_1  and  C_2
REMARK    2  A    between atoms: C_5  and  S_6
REMARK    3  A    between atoms: S_6  and  N_9
REMARK    4  A    between atoms: N_9  and  C_10
REMARK    5  A    between atoms: C_16  and  C_17
REMARK    6  A    between atoms: C_22  and  C_23
REMARK                            x       y       z     vdW  Elec       q    Type
REMARK                         _______ _______ _______ _____ _____    ______ ____
ROOT
ATOM      1  C   UNL     1       1.233  12.942  18.695  0.00  0.00    +0.000 A 
ATOM      2  C   UNL     1       2.508  13.017  18.114  0.00  0.00    +0.000 A 
ATOM      3  C   UNL     1       3.248  14.197  18.164  0.00  0.00    +0.000 A 
ATOM      4  C   UNL     1       2.698  15.324  18.760  0.00  0.00    +0.000 A 
ATOM      5 CL   UNL     1       3.607  16.784  18.831  0.00  0.00    +0.000 Cl
ATOM      6  C   UNL     1       1.425  15.278  19.331  0.00  0.00    +0.000 A 
ATOM      7  C   UNL     1       0.680  14.080  19.331  0.00  0.00    +0.000 A 
ENDROOT
BRANCH   7   8
ATOM      8  C   UNL     1      -0.607  13.974  20.108  0.00  0.00    +0.000 C 
ATOM      9  O   UNL     1      -1.646  13.720  19.508  0.00  0.00    +0.000 OA
ATOM     10  N   UNL     1      -0.528  14.131  21.483  0.00  0.00    +0.000 N 
ATOM     11  C   UNL     1      -1.630  13.919  22.264  0.00  0.00    +0.000 A 
ATOM     12  N   UNL     1      -2.780  13.415  21.918  0.00  0.00    +0.000 NA
ATOM     13  C   UNL     1      -3.656  13.454  22.981  0.00  0.00    +0.000 A 
ATOM     14  C   UNL     1      -3.122  13.976  24.145  0.00  0.00    +0.000 A 
ATOM     15  S   UNL     1      -1.463  14.371  23.899  0.00  0.00    +0.000 S 
ATOM     16  H   UNL     1       0.284  14.464  21.969  0.00  0.00    +0.000 HD
BRANCH  13  17
ATOM     17  C   UNL     1      -5.026  13.001  22.801  0.00  0.00    +0.000 A 
ATOM     18  C   UNL     1      -5.539  12.652  21.547  0.00  0.00    +0.000 A 
ATOM     19  C   UNL     1      -6.870  12.246  21.417  0.00  0.00    +0.000 A 
ATOM     20  C   UNL     1      -7.700  12.187  22.536  0.00  0.00    +0.000 A 
ATOM     21  C   UNL     1      -7.203  12.537  23.791  0.00  0.00    +0.000 A 
ATOM     22  C   UNL     1      -5.876  12.943  23.919  0.00  0.00    +0.000 A 
ENDBRANCH  13  17
ENDBRANCH   7   8
BRANCH   1  23
ATOM     23  N   UNL     1       0.541  11.686  18.580  0.00  0.00    +0.000 N 
ATOM     24  H   UNL     1      -0.386  11.748  18.165  0.00  0.00    +0.000 HD
BRANCH  23  25
ATOM     25  S   UNL     1       0.516  10.728  19.983  0.00  0.00    +0.000 S 
ATOM     26  O   UNL     1      -0.874  10.365  20.189  0.00  0.00    +0.000 OA
ATOM     27  O   UNL     1       1.283  11.355  21.035  0.00  0.00    +0.000 OA
BRANCH  25  32
ATOM     28  C   UNL     1       3.322   5.648  18.137  0.00  0.00    +0.000 C 
ATOM     29  C   UNL     1       2.664   6.911  18.615  0.00  0.00    +0.000 A 
ATOM     30  C   UNL     1       2.196   7.031  19.933  0.00  0.00    +0.000 A 
ATOM     31  C   UNL     1       1.549   8.198  20.358  0.00  0.00    +0.000 A 
ATOM     32  C   UNL     1       1.372   9.254  19.462  0.00  0.00    +0.000 A 
ATOM     33  C   UNL     1       1.847   9.152  18.149  0.00  0.00    +0.000 A 
ATOM     34  C   UNL     1       2.490   7.983  17.730  0.00  0.00    +0.000 A 
ENDBRANCH  25  32
ENDBRANCH  23  25
ENDBRANCH   1  23
TORSDOF 5
ENDMDL
MODEL 6
REMARK VINA RESULT:      -8.2      4.924      8.109
REMARK  Name = 
REMARK  6 active torsions:
REMARK  status: ('A' for Active; 'I' for Inactive)
REMARK    1  A    between atoms: C_1  and  C_2
REMARK    2  A    between atoms: C_5  and  S_6
REMARK    3  A    between atoms: S_6  and  N_9
REMARK    4  A    between atoms: N_9  and  C_10
REMARK    5  A    between atoms: C_16  and  C_17
REMARK    6  A    between atoms: C_22  and  C_23
REMARK                            x       y       z     vdW  Elec       q    Type
REMARK                         _______ _______ _______ _____ _____    ______ ____
ROOT
ATOM      1  C   UNL     1       1.223  12.811  18.720  0.00  0.00    +0.000 A 
ATOM      2  C   UNL     1       2.502  12.848  18.142  0.00  0.00    +0.000 A 
ATOM      3  C   UNL     1       3.280  14.003  18.204  0.00  0.00    +0.000 A 
ATOM      4  C   UNL     1       2.766  15.142  18.808  0.00  0.00    +0.000 A 
ATOM      5 CL   UNL     1       3.722  16.571  18.892  0.00  0.00    +0.000 Cl
ATOM      6  C   UNL     1       1.491  15.133  19.375  0.00  0.00    +0.000 A 
ATOM      7  C   UNL     1       0.706  13.961  19.364  0.00  0.00    +0.000 A 
ENDROOT
BRANCH   7   8
ATOM      8  C   UNL     1      -0.585  13.891  20.137  0.00  0.00    +0.000 C 
ATOM      9  O   UNL     1      -1.627  13.646  19.537  0.00  0.00    +0.000 OA
ATOM     10  N   UNL     1      -0.509  14.070  21.509  0.00  0.00    +0.000 N 
ATOM     11  C   UNL     1      -1.618  13.891  22.289  0.00  0.00    +0.000 A 
ATOM     12  N   UNL     1      -2.775  13.402  21.947  0.00  0.00    +0.000 NA
ATOM     13  C   UNL     1      -3.654  13.475  23.005  0.00  0.00    +0.000 A 
ATOM     14  C   UNL     1      -3.116  14.008  24.163  0.00  0.00    +0.000 A 
ATOM     15  S   UNL     1      -1.449  14.368  23.917  0.00  0.00    +0.000 S 
ATOM     16  H   UNL     1       0.307  14.397  21.993  0.00  0.00    +0.000 HD
BRANCH  13  17
ATOM     17  C   UNL     1      -5.032  13.043  22.827  0.00  0.00    +0.000 A 
ATOM     18  C   UNL     1      -5.926  12.936  23.897  0.00  0.00    +0.000 A 
ATOM     19  C   UNL     1      -7.234  12.492  23.683  0.00  0.00    +0.000 A 
ATOM     20  C   UNL     1      -7.659  12.149  22.400  0.00  0.00    +0.000 A 
ATOM     21  C   UNL     1      -6.776  12.247  21.325  0.00  0.00    +0.000 A 
ATOM     22  C   UNL     1      -5.472  12.689  21.540  0.00  0.00    +0.000 A 
ENDBRANCH  13  17
ENDBRANCH   7   8
BRANCH   1  23
ATOM     23  N   UNL     1       0.490  11.579  18.592  0.00  0.00    +0.000 N 
ATOM     24  H   UNL     1      -0.454  11.682  18.228  0.00  0.00    +0.000 HD
BRANCH  23  25
ATOM     25  S   UNL     1       0.506  10.569  19.959  0.00  0.00    +0.000 S 
ATOM     26  O   UNL     1      -0.869  10.153  20.159  0.00  0.00    +0.000 OA
ATOM     27  O   UNL     1       1.260  11.180  21.029  0.00  0.00    +0.000 OA
BRANCH  25  32
ATOM     28  C   UNL     1       3.697   5.749  18.039  0.00  0.00    +0.000 C 
ATOM     29  C   UNL     1       2.878   6.926  18.487  0.00  0.00    +0.000 A 
ATOM     30  C   UNL     1       2.656   8.021  17.638  0.00  0.00    +0.000 A 
ATOM     31  C   UNL     1       1.924   9.131  18.079  0.00  0.00    +0.000 A 
ATOM     32  C   UNL     1       1.407   9.144  19.376  0.00  0.00    +0.000 A 
ATOM     33  C   UNL     1       1.609   8.052  20.228  0.00  0.00    +0.000 A 
ATOM     34  C   UNL     1       2.343   6.949  19.782  0.00  0.00    +0.000 A 
ENDBRANCH  25  32
ENDBRANCH  23  25
ENDBRANCH   1  23
TORSDOF 5
ENDMDL
MODEL 7
REMARK VINA RESULT:      -8.1      4.791      7.997
REMARK  Name = 
REMARK  6 active torsions:
REMARK  status: ('A' for Active; 'I' for Inactive)
REMARK    1  A    between atoms: C_1  and  C_2
REMARK    2  A    between atoms: C_5  and  S_6
REMARK    3  A    between atoms: S_6  and  N_9
REMARK    4  A    between atoms: N_9  and  C_10
REMARK    5  A    between atoms: C_16  and  C_17
REMARK    6  A    between atoms: C_22  and  C_23
REMARK                            x       y       z     vdW  Elec       q    Type
REMARK                         _______ _______ _______ _____ _____    ______ ____
ROOT
ATOM      1  C   UNL     1      -0.351  11.959  21.993  0.00  0.00    +0.000 A 
ATOM      2  C   UNL     1      -1.481  11.361  22.572  0.00  0.00    +0.000 A 
ATOM      3  C   UNL     1      -2.401  12.121  23.293  0.00  0.00    +0.000 A 
ATOM      4  C   UNL     1      -2.174  13.478  23.474  0.00  0.00    +0.000 A 
ATOM      5 CL   UNL     1      -3.308  14.425  24.358  0.00  0.00    +0.000 Cl
ATOM      6  C   UNL     1      -1.049  14.092  22.921  0.00  0.00    +0.000 A 
ATOM      7  C   UNL     1      -0.130  13.350  22.149  0.00  0.00    +0.000 A 
ENDROOT
BRANCH   7   8
ATOM      8  C   UNL     1       0.977  14.039  21.395  0.00  0.00    +0.000 C 
ATOM      9  O   UNL     1       2.142  13.784  21.683  0.00  0.00    +0.000 OA
ATOM     10  N   UNL     1       0.604  14.904  20.378  0.00  0.00    +0.000 N 
ATOM     11  C   UNL     1       1.553  15.463  19.568  0.00  0.00    +0.000 A 
ATOM     12  N   UNL     1       2.823  15.181  19.498  0.00  0.00    +0.000 NA
ATOM     13  C   UNL     1       3.451  16.034  18.617  0.00  0.00    +0.000 A 
ATOM     14  C   UNL     1       2.613  16.948  18.006  0.00  0.00    +0.000 A 
ATOM     15  S   UNL     1       0.989  16.680  18.517  0.00  0.00    +0.000 S 
ATOM     16  H   UNL     1      -0.335  15.219  20.219  0.00  0.00    +0.000 HD
BRANCH  13  17
ATOM     17  C   UNL     1       4.891  15.942  18.431  0.00  0.00    +0.000 A 
ATOM     18  C   UNL     1       5.502  14.814  17.874  0.00  0.00    +0.000 A 
ATOM     19  C   UNL     1       6.892  14.759  17.737  0.00  0.00    +0.000 A 
ATOM     20  C   UNL     1       7.683  15.827  18.159  0.00  0.00    +0.000 A 
ATOM     21  C   UNL     1       7.087  16.955  18.720  0.00  0.00    +0.000 A 
ATOM     22  C   UNL     1       5.701  17.009  18.858  0.00  0.00    +0.000 A 
ENDBRANCH  13  17
ENDBRANCH   7   8
BRANCH   1  23
ATOM     23  N   UNL     1       0.549  11.091  21.282  0.00  0.00    +0.000 N 
ATOM     24  H   UNL     1       1.536  11.291  21.425  0.00  0.00    +0.000 HD
BRANCH  23  25
ATOM     25  S   UNL     1       0.208  10.871  19.631  0.00  0.00    +0.000 S 
ATOM     26  O   UNL     1       0.792  12.013  18.951  0.00  0.00    +0.000 OA
ATOM     27  O   UNL     1      -1.183  10.528  19.445  0.00  0.00    +0.000 OA
BRANCH  25  32
ATOM     28  C   UNL     1       3.486   5.958  18.144  0.00  0.00    +0.000 C 
ATOM     29  C   UNL     1       2.709   7.183  18.536  0.00  0.00    +0.000 A 
ATOM     30  C   UNL     1       2.141   7.304  19.814  0.00  0.00    +0.000 A 
ATOM     31  C   UNL     1       1.386   8.433  20.157  0.00  0.00    +0.000 A 
ATOM     32  C   UNL     1       1.201   9.449  19.217  0.00  0.00    +0.000 A 
ATOM     33  C   UNL     1       1.773   9.346  17.944  0.00  0.00    +0.000 A 
ATOM     34  C   UNL     1       2.524   8.216  17.608  0.00  0.00    +0.000 A 
ENDBRANCH  25  32
ENDBRANCH  23  25
ENDBRANCH   1  23
TORSDOF 5
ENDMDL
MODEL 8
REMARK VINA RESULT:      -8.1      3.959      9.910
REMARK  Name = 
REMARK  6 active torsions:
REMARK  status: ('A' for Active; 'I' for Inactive)
REMARK    1  A    between atoms: C_1  and  C_2
REMARK    2  A    between atoms: C_5  and  S_6
REMARK    3  A    between atoms: S_6  and  N_9
REMARK    4  A    between atoms: N_9  and  C_10
REMARK    5  A    between atoms: C_16  and  C_17
REMARK    6  A    between atoms: C_22  and  C_23
REMARK                            x       y       z     vdW  Elec       q    Type
REMARK                         _______ _______ _______ _____ _____    ______ ____
ROOT
ATOM      1  C   UNL     1      -0.235  12.453  18.466  0.00  0.00    +0.000 A 
ATOM      2  C   UNL     1      -0.616  13.779  18.723  0.00  0.00    +0.000 A 
ATOM      3  C   UNL     1       0.082  14.556  19.647  0.00  0.00    +0.000 A 
ATOM      4  C   UNL     1       1.140  13.997  20.350  0.00  0.00    +0.000 A 
ATOM      5 CL   UNL     1       2.011  14.951  21.488  0.00  0.00    +0.000 Cl
ATOM      6  C   UNL     1       1.527  12.675  20.122  0.00  0.00    +0.000 A 
ATOM      7  C   UNL     1       0.863  11.887  19.159  0.00  0.00    +0.000 A 
ENDROOT
BRANCH   7   8
ATOM      8  C   UNL     1       1.394  10.530  18.775  0.00  0.00    +0.000 C 
ATOM      9  O   UNL     1       1.917  10.384  17.674  0.00  0.00    +0.000 OA
ATOM     10  N   UNL     1       1.293   9.523  19.721  0.00  0.00    +0.000 N 
ATOM     11  C   UNL     1       1.869   8.304  19.493  0.00  0.00    +0.000 A 
ATOM     12  N   UNL     1       2.677   7.960  18.531  0.00  0.00    +0.000 NA
ATOM     13  C   UNL     1       2.961   6.614  18.606  0.00  0.00    +0.000 A 
ATOM     14  C   UNL     1       2.364   5.960  19.668  0.00  0.00    +0.000 A 
ATOM     15  S   UNL     1       1.475   7.089  20.621  0.00  0.00    +0.000 S 
ATOM     16  H   UNL     1       0.757   9.592  20.566  0.00  0.00    +0.000 HD
BRANCH  13  17
ATOM     17  C   UNL     1       3.796   5.997  17.587  0.00  0.00    +0.000 A 
ATOM     18  C   UNL     1       4.584   6.750  16.710  0.00  0.00    +0.000 A 
ATOM     19  C   UNL     1       5.352   6.116  15.729  0.00  0.00    +0.000 A 
ATOM     20  C   UNL     1       5.337   4.726  15.614  0.00  0.00    +0.000 A 
ATOM     21  C   UNL     1       4.553   3.964  16.479  0.00  0.00    +0.000 A 
ATOM     22  C   UNL     1       3.786   4.598  17.456  0.00  0.00    +0.000 A 
ENDBRANCH  13  17
ENDBRANCH   7   8
BRANCH   1  23
ATOM     23  N   UNL     1      -1.025  11.726  17.508  0.00  0.00    +0.000 N 
ATOM     24  H   UNL     1      -1.480  12.305  16.805  0.00  0.00    +0.000 HD
BRANCH  23  25
ATOM     25  S   UNL     1      -2.112  10.594  18.158  0.00  0.00    +0.000 S 
ATOM     26  O   UNL     1      -1.681  10.372  19.526  0.00  0.00    +0.000 OA
ATOM     27  O   UNL     1      -2.292   9.487  17.248  0.00  0.00    +0.000 OA
BRANCH  25  32
ATOM     28  C   UNL     1      -7.378  13.638  18.474  0.00  0.00    +0.000 C 
ATOM     29  C   UNL     1      -6.063  12.918  18.371  0.00  0.00    +0.000 A 
ATOM     30  C   UNL     1      -5.675  12.283  17.182  0.00  0.00    +0.000 A 
ATOM     31  C   UNL     1      -4.465  11.581  17.109  0.00  0.00    +0.000 A 
ATOM     32  C   UNL     1      -3.636  11.518  18.231  0.00  0.00    +0.000 A 
ATOM     33  C   UNL     1      -4.006  12.158  19.419  0.00  0.00    +0.000 A 
ATOM     34  C   UNL     1      -5.216  12.855  19.486  0.00  0.00    +0.000 A 
ENDBRANCH  25  32
ENDBRANCH  23  25
ENDBRANCH   1  23
TORSDOF 5
ENDMDL
MODEL 9
REMARK VINA RESULT:      -8.1      3.945     10.640
REMARK  Name = 
REMARK  6 active torsions:
REMARK  status: ('A' for Active; 'I' for Inactive)
REMARK    1  A    between atoms: C_1  and  C_2
REMARK    2  A    between atoms: C_5  and  S_6
REMARK    3  A    between atoms: S_6  and  N_9
REMARK    4  A    between atoms: N_9  and  C_10
REMARK    5  A    between atoms: C_16  and  C_17
REMARK    6  A    between atoms: C_22  and  C_23
REMARK                            x       y       z     vdW  Elec       q    Type
REMARK                         _______ _______ _______ _____ _____    ______ ____
ROOT
ATOM      1  C   UNL     1      -0.074  12.086  19.789  0.00  0.00    +0.000 A 
ATOM      2  C   UNL     1      -0.420  13.424  19.544  0.00  0.00    +0.000 A 
ATOM      3  C   UNL     1       0.452  14.275  18.866  0.00  0.00    +0.000 A 
ATOM      4  C   UNL     1       1.695  13.802  18.466  0.00  0.00    +0.000 A 
ATOM      5 CL   UNL     1       2.776  14.844  17.624  0.00  0.00    +0.000 Cl
ATOM      6  C   UNL     1       2.067  12.480  18.713  0.00  0.00    +0.000 A 
ATOM      7  C   UNL     1       1.181  11.591  19.356  0.00  0.00    +0.000 A 
ENDROOT
BRANCH   7   8
ATOM      8  C   UNL     1       1.499  10.122  19.455  0.00  0.00    +0.000 C 
ATOM      9  O   UNL     1       1.065   9.480  20.407  0.00  0.00    +0.000 OA
ATOM     10  N   UNL     1       2.242   9.567  18.425  0.00  0.00    +0.000 N 
ATOM     11  C   UNL     1       2.458   8.217  18.382  0.00  0.00    +0.000 A 
ATOM     12  N   UNL     1       1.918   7.289  19.119  0.00  0.00    +0.000 NA
ATOM     13  C   UNL     1       2.471   6.063  18.820  0.00  0.00    +0.000 A 
ATOM     14  C   UNL     1       3.422   6.092  17.817  0.00  0.00    +0.000 A 
ATOM     15  S   UNL     1       3.575   7.695  17.205  0.00  0.00    +0.000 S 
ATOM     16  H   UNL     1       2.710  10.099  17.714  0.00  0.00    +0.000 HD
BRANCH  13  17
ATOM     17  C   UNL     1       2.061   4.887  19.573  0.00  0.00    +0.000 A 
ATOM     18  C   UNL     1       2.358   4.728  20.930  0.00  0.00    +0.000 A 
ATOM     19  C   UNL     1       1.967   3.570  21.607  0.00  0.00    +0.000 A 
ATOM     20  C   UNL     1       1.279   2.560  20.934  0.00  0.00    +0.000 A 
ATOM     21  C   UNL     1       0.981   2.705  19.580  0.00  0.00    +0.000 A 
ATOM     22  C   UNL     1       1.373   3.860  18.905  0.00  0.00    +0.000 A 
ENDBRANCH  13  17
ENDBRANCH   7   8
BRANCH   1  23
ATOM     23  N   UNL     1      -1.032  11.291  20.508  0.00  0.00    +0.000 N 
ATOM     24  H   UNL     1      -1.975  11.311  20.126  0.00  0.00    +0.000 HD
BRANCH  23  25
ATOM     25  S   UNL     1      -1.056  11.512  22.193  0.00  0.00    +0.000 S 
ATOM     26  O   UNL     1      -0.095  12.565  22.467  0.00  0.00    +0.000 OA
ATOM     27  O   UNL     1      -0.975  10.239  22.871  0.00  0.00    +0.000 OA
BRANCH  25  32
ATOM     28  C   UNL     1      -6.543  13.982  23.135  0.00  0.00    +0.000 C 
ATOM     29  C   UNL     1      -5.206  13.334  22.911  0.00  0.00    +0.000 A 
ATOM     30  C   UNL     1      -4.460  12.820  23.982  0.00  0.00    +0.000 A 
ATOM     31  C   UNL     1      -3.197  12.253  23.767  0.00  0.00    +0.000 A 
ATOM     32  C   UNL     1      -2.679  12.197  22.471  0.00  0.00    +0.000 A 
ATOM     33  C   UNL     1      -3.419  12.694  21.393  0.00  0.00    +0.000 A 
ATOM     34  C   UNL     1      -4.678  13.260  21.615  0.00  0.00    +0.000 A 
ENDBRANCH  25  32
ENDBRANCH  23  25
ENDBRANCH   1  23
TORSDOF 5
ENDMDL
