MODEL 1
REMARK VINA RESULT:      -7.6      0.000      0.000
REMARK  Name = 
REMARK  4 active torsions:
REMARK  status: ('A' for Active; 'I' for Inactive)
REMARK    1  A    between atoms: N_7  and  C_8
REMARK    2  A    between atoms: C_8  and  N_9
REMARK    3  A    between atoms: N_9  and  C_10
REMARK    4  A    between atoms: N_9  and  C_15
REMARK                            x       y       z     vdW  Elec       q    Type
REMARK                         _______ _______ _______ _____ _____    ______ ____
ROOT
ATOM      1  F   UNL     1       0.787   2.573  22.172  0.00  0.00    +0.000 F 
ATOM      2  C   UNL     1       1.655   3.070  21.279  0.00  0.00    +0.000 A 
ATOM      3  C   UNL     1       1.235   4.086  20.420  0.00  0.00    +0.000 A 
ATOM      4  C   UNL     1       2.132   4.537  19.442  0.00  0.00    +0.000 A 
ATOM      5  N   UNL     1       1.954   5.474  18.457  0.00  0.00    +0.000 NA
ATOM      6  C   UNL     1       3.050   5.437  17.735  0.00  0.00    +0.000 A 
ATOM      7  N   UNL     1       3.956   4.534  18.229  0.00  0.00    +0.000 N 
ATOM      8  C   UNL     1       3.404   3.972  19.363  0.00  0.00    +0.000 A 
ATOM      9  C   UNL     1       3.857   2.992  20.257  0.00  0.00    +0.000 A 
ATOM     10  C   UNL     1       2.943   2.549  21.210  0.00  0.00    +0.000 A 
ATOM     11  F   UNL     1       3.317   1.575  22.053  0.00  0.00    +0.000 F 
ENDROOT
BRANCH   7  12
ATOM     12  C   UNL     1       5.075   3.947  17.502  0.00  0.00    +0.000 C 
BRANCH  12  13
ATOM     13  N   UNL     1       5.623   4.806  16.435  0.00  0.00    +0.000 NA
BRANCH  13  14
ATOM     14  C   UNL     1       6.822   5.583  16.842  0.00  0.00    +0.000 C 
ATOM     15  C   UNL     1       6.482   7.061  17.095  0.00  0.00    +0.000 C 
ATOM     16  C   UNL     1       7.670   7.598  17.872  0.00  0.00    +0.000 C 
ATOM     17  C   UNL     1       8.074   6.458  18.785  0.00  0.00    +0.000 C 
ATOM     18  C   UNL     1       7.516   5.175  18.156  0.00  0.00    +0.000 C 
ENDBRANCH  13  14
BRANCH  13  19
ATOM     19  C   UNL     1       5.976   3.901  15.293  0.00  0.00    +0.000 C 
ATOM     20  C   UNL     1       5.403   4.156  13.923  0.00  0.00    +0.000 C 
ATOM     21  C   UNL     1       6.858   4.394  14.178  0.00  0.00    +0.000 C 
ENDBRANCH  13  19
ENDBRANCH  12  13
ENDBRANCH   7  12
TORSDOF 4
ENDMDL
MODEL 2
REMARK VINA RESULT:      -7.3      3.365      6.671
REMARK  Name = 
REMARK  4 active torsions:
REMARK  status: ('A' for Active; 'I' for Inactive)
REMARK    1  A    between atoms: N_7  and  C_8
REMARK    2  A    between atoms: C_8  and  N_9
REMARK    3  A    between atoms: N_9  and  C_10
REMARK    4  A    between atoms: N_9  and  C_15
REMARK                            x       y       z     vdW  Elec       q    Type
REMARK                         _______ _______ _______ _____ _____    ______ ____
ROOT
ATOM      1  F   UNL     1       7.306   4.289  12.650  0.00  0.00    +0.000 F 
ATOM      2  C   UNL     1       6.771   4.509  13.860  0.00  0.00    +0.000 A 
ATOM      3  C   UNL     1       7.606   4.895  14.909  0.00  0.00    +0.000 A 
ATOM      4  C   UNL     1       7.041   5.043  16.183  0.00  0.00    +0.000 A 
ATOM      5  N   UNL     1       7.642   5.360  17.374  0.00  0.00    +0.000 NA
ATOM      6  C   UNL     1       6.699   5.250  18.281  0.00  0.00    +0.000 A 
ATOM      7  N   UNL     1       5.494   4.906  17.727  0.00  0.00    +0.000 N 
ATOM      8  C   UNL     1       5.678   4.812  16.361  0.00  0.00    +0.000 A 
ATOM      9  C   UNL     1       4.819   4.480  15.305  0.00  0.00    +0.000 A 
ATOM     10  C   UNL     1       5.406   4.323  14.052  0.00  0.00    +0.000 A 
ATOM     11  F   UNL     1       4.630   3.955  13.022  0.00  0.00    +0.000 F 
ENDROOT
BRANCH   7  12
ATOM     12  C   UNL     1       4.354   4.325  18.426  0.00  0.00    +0.000 C 
BRANCH  12  13
ATOM     13  N   UNL     1       3.100   5.088  18.279  0.00  0.00    +0.000 NA
BRANCH  13  14
ATOM     14  C   UNL     1       1.975   4.562  19.096  0.00  0.00    +0.000 C 
ATOM     15  C   UNL     1       1.397   3.267  18.500  0.00  0.00    +0.000 C 
ATOM     16  C   UNL     1       0.577   2.662  19.626  0.00  0.00    +0.000 C 
ATOM     17  C   UNL     1       1.375   2.958  20.879  0.00  0.00    +0.000 C 
ATOM     18  C   UNL     1       2.288   4.146  20.546  0.00  0.00    +0.000 C 
ENDBRANCH  13  14
BRANCH  13  19
ATOM     19  C   UNL     1       3.401   6.496  18.691  0.00  0.00    +0.000 C 
ATOM     20  C   UNL     1       3.121   7.636  17.746  0.00  0.00    +0.000 C 
ATOM     21  C   UNL     1       2.282   7.462  18.973  0.00  0.00    +0.000 C 
ENDBRANCH  13  19
ENDBRANCH  12  13
ENDBRANCH   7  12
TORSDOF 4
ENDMDL
MODEL 3
REMARK VINA RESULT:      -7.1      0.788      1.174
REMARK  Name = 
REMARK  4 active torsions:
REMARK  status: ('A' for Active; 'I' for Inactive)
REMARK    1  A    between atoms: N_7  and  C_8
REMARK    2  A    between atoms: C_8  and  N_9
REMARK    3  A    between atoms: N_9  and  C_10
REMARK    4  A    between atoms: N_9  and  C_15
REMARK                            x       y       z     vdW  Elec       q    Type
REMARK                         _______ _______ _______ _____ _____    ______ ____
ROOT
ATOM      1  F   UNL     1       1.666   1.950  22.341  0.00  0.00    +0.000 F 
ATOM      2  C   UNL     1       2.196   2.520  21.249  0.00  0.00    +0.000 A 
ATOM      3  C   UNL     1       1.371   3.268  20.408  0.00  0.00    +0.000 A 
ATOM      4  C   UNL     1       1.927   3.789  19.232  0.00  0.00    +0.000 A 
ATOM      5  N   UNL     1       1.330   4.505  18.225  0.00  0.00    +0.000 NA
ATOM      6  C   UNL     1       2.252   4.644  17.301  0.00  0.00    +0.000 A 
ATOM      7  N   UNL     1       3.441   4.075  17.676  0.00  0.00    +0.000 N 
ATOM      8  C   UNL     1       3.271   3.555  18.944  0.00  0.00    +0.000 A 
ATOM      9  C   UNL     1       4.123   2.855  19.809  0.00  0.00    +0.000 A 
ATOM     10  C   UNL     1       3.545   2.334  20.963  0.00  0.00    +0.000 A 
ATOM     11  F   UNL     1       4.311   1.612  21.794  0.00  0.00    +0.000 F 
ENDROOT
BRANCH   7  12
ATOM     12  C   UNL     1       4.534   3.692  16.789  0.00  0.00    +0.000 C 
BRANCH  12  13
ATOM     13  N   UNL     1       5.372   4.819  16.337  0.00  0.00    +0.000 NA
BRANCH  13  14
ATOM     14  C   UNL     1       5.971   5.608  17.446  0.00  0.00    +0.000 C 
ATOM     15  C   UNL     1       7.229   4.927  18.011  0.00  0.00    +0.000 C 
ATOM     16  C   UNL     1       7.924   6.016  18.810  0.00  0.00    +0.000 C 
ATOM     17  C   UNL     1       7.705   7.279  18.002  0.00  0.00    +0.000 C 
ATOM     18  C   UNL     1       6.483   7.022  17.110  0.00  0.00    +0.000 C 
ENDBRANCH  13  14
BRANCH  13  19
ATOM     19  C   UNL     1       6.463   4.233  15.493  0.00  0.00    +0.000 C 
ATOM     20  C   UNL     1       6.190   3.863  14.058  0.00  0.00    +0.000 C 
ATOM     21  C   UNL     1       7.069   5.033  14.372  0.00  0.00    +0.000 C 
ENDBRANCH  13  19
ENDBRANCH  12  13
ENDBRANCH   7  12
TORSDOF 4
ENDMDL
MODEL 4
REMARK VINA RESULT:      -7.0      3.297      6.420
REMARK  Name = 
REMARK  4 active torsions:
REMARK  status: ('A' for Active; 'I' for Inactive)
REMARK    1  A    between atoms: N_7  and  C_8
REMARK    2  A    between atoms: C_8  and  N_9
REMARK    3  A    between atoms: N_9  and  C_10
REMARK    4  A    between atoms: N_9  and  C_15
REMARK                            x       y       z     vdW  Elec       q    Type
REMARK                         _______ _______ _______ _____ _____    ______ ____
ROOT
ATOM      1  F   UNL     1       7.676   4.951  13.496  0.00  0.00    +0.000 F 
ATOM      2  C   UNL     1       6.948   4.859  14.618  0.00  0.00    +0.000 A 
ATOM      3  C   UNL     1       7.532   5.210  15.835  0.00  0.00    +0.000 A 
ATOM      4  C   UNL     1       6.780   5.031  17.004  0.00  0.00    +0.000 A 
ATOM      5  N   UNL     1       7.132   5.247  18.312  0.00  0.00    +0.000 NA
ATOM      6  C   UNL     1       6.119   4.810  19.024  0.00  0.00    +0.000 A 
ATOM      7  N   UNL     1       5.101   4.347  18.233  0.00  0.00    +0.000 N 
ATOM      8  C   UNL     1       5.485   4.523  16.918  0.00  0.00    +0.000 A 
ATOM      9  C   UNL     1       4.867   4.221  15.696  0.00  0.00    +0.000 A 
ATOM     10  C   UNL     1       5.639   4.392  14.550  0.00  0.00    +0.000 A 
ATOM     11  F   UNL     1       5.106   4.066  13.363  0.00  0.00    +0.000 F 
ENDROOT
BRANCH   7  12
ATOM     12  C   UNL     1       4.024   3.453  18.644  0.00  0.00    +0.000 C 
BRANCH  12  13
ATOM     13  N   UNL     1       3.219   3.954  19.774  0.00  0.00    +0.000 NA
BRANCH  13  14
ATOM     14  C   UNL     1       2.364   5.122  19.436  0.00  0.00    +0.000 C 
ATOM     15  C   UNL     1       2.789   6.381  20.210  0.00  0.00    +0.000 C 
ATOM     16  C   UNL     1       2.119   7.526  19.471  0.00  0.00    +0.000 C 
ATOM     17  C   UNL     1       2.197   7.133  18.010  0.00  0.00    +0.000 C 
ATOM     18  C   UNL     1       2.381   5.610  17.975  0.00  0.00    +0.000 C 
ENDBRANCH  13  14
BRANCH  13  19
ATOM     19  C   UNL     1       2.356   2.815  20.226  0.00  0.00    +0.000 C 
ATOM     20  C   UNL     1       2.008   2.665  21.685  0.00  0.00    +0.000 C 
ATOM     21  C   UNL     1       0.952   3.069  20.704  0.00  0.00    +0.000 C 
ENDBRANCH  13  19
ENDBRANCH  12  13
ENDBRANCH   7  12
TORSDOF 4
ENDMDL
MODEL 5
REMARK VINA RESULT:      -6.9      2.759      6.054
REMARK  Name = 
REMARK  4 active torsions:
REMARK  status: ('A' for Active; 'I' for Inactive)
REMARK    1  A    between atoms: N_7  and  C_8
REMARK    2  A    between atoms: C_8  and  N_9
REMARK    3  A    between atoms: N_9  and  C_10
REMARK    4  A    between atoms: N_9  and  C_15
REMARK                            x       y       z     vdW  Elec       q    Type
REMARK                         _______ _______ _______ _____ _____    ______ ____
ROOT
ATOM      1  F   UNL     1       9.025   7.696  19.069  0.00  0.00    +0.000 F 
ATOM      2  C   UNL     1       8.060   6.918  18.558  0.00  0.00    +0.000 A 
ATOM      3  C   UNL     1       7.575   7.193  17.279  0.00  0.00    +0.000 A 
ATOM      4  C   UNL     1       6.512   6.419  16.795  0.00  0.00    +0.000 A 
ATOM      5  N   UNL     1       5.828   6.515  15.610  0.00  0.00    +0.000 NA
ATOM      6  C   UNL     1       4.851   5.642  15.698  0.00  0.00    +0.000 A 
ATOM      7  N   UNL     1       4.887   4.953  16.882  0.00  0.00    +0.000 N 
ATOM      8  C   UNL     1       5.983   5.404  17.591  0.00  0.00    +0.000 A 
ATOM      9  C   UNL     1       6.499   5.081  18.854  0.00  0.00    +0.000 A 
ATOM     10  C   UNL     1       7.544   5.874  19.319  0.00  0.00    +0.000 A 
ATOM     11  F   UNL     1       8.035   5.634  20.544  0.00  0.00    +0.000 F 
ENDROOT
BRANCH   7  12
ATOM     12  C   UNL     1       3.783   4.217  17.487  0.00  0.00    +0.000 C 
BRANCH  12  13
ATOM     13  N   UNL     1       2.633   5.058  17.872  0.00  0.00    +0.000 NA
BRANCH  13  14
ATOM     14  C   UNL     1       1.696   4.401  18.820  0.00  0.00    +0.000 C 
ATOM     15  C   UNL     1       1.186   3.056  18.274  0.00  0.00    +0.000 C 
ATOM     16  C   UNL     1       0.600   2.351  19.485  0.00  0.00    +0.000 C 
ATOM     17  C   UNL     1       1.527   2.721  20.625  0.00  0.00    +0.000 C 
ATOM     18  C   UNL     1       2.250   4.006  20.203  0.00  0.00    +0.000 C 
ENDBRANCH  13  14
BRANCH  13  19
ATOM     19  C   UNL     1       3.196   6.296  18.502  0.00  0.00    +0.000 C 
ATOM     20  C   UNL     1       2.856   7.651  17.937  0.00  0.00    +0.000 C 
ATOM     21  C   UNL     1       2.300   7.236  19.263  0.00  0.00    +0.000 C 
ENDBRANCH  13  19
ENDBRANCH  12  13
ENDBRANCH   7  12
TORSDOF 4
ENDMDL
MODEL 6
REMARK VINA RESULT:      -6.8      1.002      1.322
REMARK  Name = 
REMARK  4 active torsions:
REMARK  status: ('A' for Active; 'I' for Inactive)
REMARK    1  A    between atoms: N_7  and  C_8
REMARK    2  A    between atoms: C_8  and  N_9
REMARK    3  A    between atoms: N_9  and  C_10
REMARK    4  A    between atoms: N_9  and  C_15
REMARK                            x       y       z     vdW  Elec       q    Type
REMARK                         _______ _______ _______ _____ _____    ______ ____
ROOT
ATOM      1  F   UNL     1       1.278   2.916  22.067  0.00  0.00    +0.000 F 
ATOM      2  C   UNL     1       1.952   3.545  21.094  0.00  0.00    +0.000 A 
ATOM      3  C   UNL     1       1.638   4.873  20.804  0.00  0.00    +0.000 A 
ATOM      4  C   UNL     1       2.298   5.488  19.731  0.00  0.00    +0.000 A 
ATOM      5  N   UNL     1       2.140   6.748  19.213  0.00  0.00    +0.000 NA
ATOM      6  C   UNL     1       2.902   6.786  18.145  0.00  0.00    +0.000 A 
ATOM      7  N   UNL     1       3.580   5.610  17.959  0.00  0.00    +0.000 N 
ATOM      8  C   UNL     1       3.243   4.768  19.001  0.00  0.00    +0.000 A 
ATOM      9  C   UNL     1       3.608   3.453  19.320  0.00  0.00    +0.000 A 
ATOM     10  C   UNL     1       2.928   2.858  20.379  0.00  0.00    +0.000 A 
ATOM     11  F   UNL     1       3.208   1.583  20.686  0.00  0.00    +0.000 F 
ENDROOT
BRANCH   7  12
ATOM     12  C   UNL     1       4.187   5.148  16.717  0.00  0.00    +0.000 C 
BRANCH  12  13
ATOM     13  N   UNL     1       5.514   5.730  16.437  0.00  0.00    +0.000 NA
BRANCH  13  14
ATOM     14  C   UNL     1       6.204   6.264  17.641  0.00  0.00    +0.000 C 
ATOM     15  C   UNL     1       7.138   5.217  18.271  0.00  0.00    +0.000 C 
ATOM     16  C   UNL     1       8.040   6.017  19.194  0.00  0.00    +0.000 C 
ATOM     17  C   UNL     1       8.291   7.313  18.450  0.00  0.00    +0.000 C 
ATOM     18  C   UNL     1       7.146   7.467  17.441  0.00  0.00    +0.000 C 
ENDBRANCH  13  14
BRANCH  13  19
ATOM     19  C   UNL     1       6.342   4.641  15.827  0.00  0.00    +0.000 C 
ATOM     20  C   UNL     1       5.990   4.096  14.467  0.00  0.00    +0.000 C 
ATOM     21  C   UNL     1       7.221   4.928  14.640  0.00  0.00    +0.000 C 
ENDBRANCH  13  19
ENDBRANCH  12  13
ENDBRANCH   7  12
TORSDOF 4
ENDMDL
MODEL 7
REMARK VINA RESULT:      -6.7      3.870      5.800
REMARK  Name = 
REMARK  4 active torsions:
REMARK  status: ('A' for Active; 'I' for Inactive)
REMARK    1  A    between atoms: N_7  and  C_8
REMARK    2  A    between atoms: C_8  and  N_9
REMARK    3  A    between atoms: N_9  and  C_10
REMARK    4  A    between atoms: N_9  and  C_15
REMARK                            x       y       z     vdW  Elec       q    Type
REMARK                         _______ _______ _______ _____ _____    ______ ____
ROOT
ATOM      1  F   UNL     1      -0.638  11.135  21.579  0.00  0.00    +0.000 F 
ATOM      2  C   UNL     1       0.144  10.244  20.952  0.00  0.00    +0.000 A 
ATOM      3  C   UNL     1       0.669  10.568  19.700  0.00  0.00    +0.000 A 
ATOM      4  C   UNL     1       1.418   9.594  19.027  0.00  0.00    +0.000 A 
ATOM      5  N   UNL     1       1.993   9.639  17.782  0.00  0.00    +0.000 NA
ATOM      6  C   UNL     1       2.471   8.433  17.574  0.00  0.00    +0.000 A 
ATOM      7  N   UNL     1       2.261   7.608  18.648  0.00  0.00    +0.000 N 
ATOM      8  C   UNL     1       1.622   8.350  19.622  0.00  0.00    +0.000 A 
ATOM      9  C   UNL     1       1.149   8.034  20.903  0.00  0.00    +0.000 A 
ATOM     10  C   UNL     1       0.394   9.012  21.546  0.00  0.00    +0.000 A 
ATOM     11  F   UNL     1      -0.123   8.733  22.752  0.00  0.00    +0.000 F 
ENDROOT
BRANCH   7  12
ATOM     12  C   UNL     1       2.291   6.151  18.637  0.00  0.00    +0.000 C 
BRANCH  12  13
ATOM     13  N   UNL     1       3.498   5.564  19.250  0.00  0.00    +0.000 NA
BRANCH  13  14
ATOM     14  C   UNL     1       3.244   4.305  19.998  0.00  0.00    +0.000 C 
ATOM     15  C   UNL     1       2.256   4.522  21.156  0.00  0.00    +0.000 C 
ATOM     16  C   UNL     1       1.802   3.124  21.536  0.00  0.00    +0.000 C 
ATOM     17  C   UNL     1       1.705   2.384  20.218  0.00  0.00    +0.000 C 
ATOM     18  C   UNL     1       2.595   3.142  19.224  0.00  0.00    +0.000 C 
ENDBRANCH  13  14
BRANCH  13  19
ATOM     19  C   UNL     1       4.461   5.297  18.133  0.00  0.00    +0.000 C 
ATOM     20  C   UNL     1       5.700   6.143  17.986  0.00  0.00    +0.000 C 
ATOM     21  C   UNL     1       5.819   4.716  18.422  0.00  0.00    +0.000 C 
ENDBRANCH  13  19
ENDBRANCH  12  13
ENDBRANCH   7  12
TORSDOF 4
ENDMDL
MODEL 8
REMARK VINA RESULT:      -6.7      3.667      5.326
REMARK  Name = 
REMARK  4 active torsions:
REMARK  status: ('A' for Active; 'I' for Inactive)
REMARK    1  A    between atoms: N_7  and  C_8
REMARK    2  A    between atoms: C_8  and  N_9
REMARK    3  A    between atoms: N_9  and  C_10
REMARK    4  A    between atoms: N_9  and  C_15
REMARK                            x       y       z     vdW  Elec       q    Type
REMARK                         _______ _______ _______ _____ _____    ______ ____
ROOT
ATOM      1  F   UNL     1      -0.996  10.752  19.951  0.00  0.00    +0.000 F 
ATOM      2  C   UNL     1       0.019   9.883  19.844  0.00  0.00    +0.000 A 
ATOM      3  C   UNL     1       0.691   9.775  18.626  0.00  0.00    +0.000 A 
ATOM      4  C   UNL     1       1.697   8.805  18.511  0.00  0.00    +0.000 A 
ATOM      5  N   UNL     1       2.463   8.465  17.425  0.00  0.00    +0.000 NA
ATOM      6  C   UNL     1       3.162   7.420  17.805  0.00  0.00    +0.000 A 
ATOM      7  N   UNL     1       2.909   7.082  19.108  0.00  0.00    +0.000 N 
ATOM      8  C   UNL     1       1.998   7.994  19.604  0.00  0.00    +0.000 A 
ATOM      9  C   UNL     1       1.369   8.132  20.849  0.00  0.00    +0.000 A 
ATOM     10  C   UNL     1       0.363   9.092  20.934  0.00  0.00    +0.000 A 
ATOM     11  F   UNL     1      -0.301   9.223  22.092  0.00  0.00    +0.000 F 
ENDROOT
BRANCH   7  12
ATOM     12  C   UNL     1       3.182   5.795  19.736  0.00  0.00    +0.000 C 
BRANCH  12  13
ATOM     13  N   UNL     1       2.989   4.634  18.847  0.00  0.00    +0.000 NA
BRANCH  13  14
ATOM     14  C   UNL     1       4.254   4.080  18.295  0.00  0.00    +0.000 C 
ATOM     15  C   UNL     1       4.328   4.246  16.768  0.00  0.00    +0.000 C 
ATOM     16  C   UNL     1       5.791   4.023  16.431  0.00  0.00    +0.000 C 
ATOM     17  C   UNL     1       6.547   4.660  17.579  0.00  0.00    +0.000 C 
ATOM     18  C   UNL     1       5.571   4.728  18.762  0.00  0.00    +0.000 C 
ENDBRANCH  13  14
BRANCH  13  19
ATOM     19  C   UNL     1       2.294   3.582  19.656  0.00  0.00    +0.000 C 
ATOM     20  C   UNL     1       0.790   3.477  19.626  0.00  0.00    +0.000 C 
ATOM     21  C   UNL     1       1.624   2.418  18.976  0.00  0.00    +0.000 C 
ENDBRANCH  13  19
ENDBRANCH  12  13
ENDBRANCH   7  12
TORSDOF 4
ENDMDL
MODEL 9
REMARK VINA RESULT:      -6.7      1.737      1.876
REMARK  Name = 
REMARK  4 active torsions:
REMARK  status: ('A' for Active; 'I' for Inactive)
REMARK    1  A    between atoms: N_7  and  C_8
REMARK    2  A    between atoms: C_8  and  N_9
REMARK    3  A    between atoms: N_9  and  C_10
REMARK    4  A    between atoms: N_9  and  C_15
REMARK                            x       y       z     vdW  Elec       q    Type
REMARK                         _______ _______ _______ _____ _____    ______ ____
ROOT
ATOM      1  F   UNL     1       0.258   1.809  18.561  0.00  0.00    +0.000 F 
ATOM      2  C   UNL     1       1.310   2.594  18.833  0.00  0.00    +0.000 A 
ATOM      3  C   UNL     1       1.102   3.958  19.043  0.00  0.00    +0.000 A 
ATOM      4  C   UNL     1       2.223   4.773  19.247  0.00  0.00    +0.000 A 
ATOM      5  N   UNL     1       2.296   6.131  19.424  0.00  0.00    +0.000 NA
ATOM      6  C   UNL     1       3.578   6.413  19.448  0.00  0.00    +0.000 A 
ATOM      7  N   UNL     1       4.350   5.287  19.329  0.00  0.00    +0.000 N 
ATOM      8  C   UNL     1       3.496   4.205  19.244  0.00  0.00    +0.000 A 
ATOM      9  C   UNL     1       3.714   2.829  19.093  0.00  0.00    +0.000 A 
ATOM     10  C   UNL     1       2.586   2.041  18.876  0.00  0.00    +0.000 A 
ATOM     11  F   UNL     1       2.752   0.726  18.673  0.00  0.00    +0.000 F 
ENDROOT
BRANCH   7  12
ATOM     12  C   UNL     1       5.752   5.238  18.929  0.00  0.00    +0.000 C 
BRANCH  12  13
ATOM     13  N   UNL     1       6.014   5.761  17.574  0.00  0.00    +0.000 NA
BRANCH  13  14
ATOM     14  C   UNL     1       7.195   6.661  17.493  0.00  0.00    +0.000 C 
ATOM     15  C   UNL     1       6.778   8.125  17.274  0.00  0.00    +0.000 C 
ATOM     16  C   UNL     1       8.018   8.930  17.620  0.00  0.00    +0.000 C 
ATOM     17  C   UNL     1       8.635   8.194  18.792  0.00  0.00    +0.000 C 
ATOM     18  C   UNL     1       8.096   6.758  18.739  0.00  0.00    +0.000 C 
ENDBRANCH  13  14
BRANCH  13  19
ATOM     19  C   UNL     1       6.230   4.572  16.688  0.00  0.00    +0.000 C 
ATOM     20  C   UNL     1       5.552   4.500  15.344  0.00  0.00    +0.000 C 
ATOM     21  C   UNL     1       7.032   4.704  15.422  0.00  0.00    +0.000 C 
ENDBRANCH  13  19
ENDBRANCH  12  13
ENDBRANCH   7  12
TORSDOF 4
ENDMDL
