MODEL 1
REMARK VINA RESULT:      -8.6      0.000      0.000
REMARK  Name = 
REMARK  13 active torsions:
REMARK  status: ('A' for Active; 'I' for Inactive)
REMARK    1  A    between atoms: C_1  and  C_2
REMARK    2  A    between atoms: C_2  and  O_3
REMARK    3  A    between atoms: O_3  and  C_4
REMARK    4  A    between atoms: C_4  and  C_6
REMARK    5  A    between atoms: C_7  and  C_8
REMARK    6  A    between atoms: C_10  and  C_11
REMARK    7  A    between atoms: C_12  and  S_13
REMARK    8  A    between atoms: S_13  and  N_16
REMARK    9  A    between atoms: C_19  and  C_20
REMARK   10  A    between atoms: N_22  and  C_23
REMARK   11  A    between atoms: C_23  and  C_24
REMARK   12  A    between atoms: C_28  and  O_29
REMARK   13  A    between atoms: O_29  and  C_30
REMARK                            x       y       z     vdW  Elec       q    Type
REMARK                         _______ _______ _______ _____ _____    ______ ____
ROOT
ATOM      1  N   UNL     1       5.320   4.360  18.250  0.00  0.00    +0.000 NA
ATOM      2  C   UNL     1       6.198   4.541  17.056  0.00  0.00    +0.000 C 
ATOM      3  C   UNL     1       7.677   4.614  17.413  0.00  0.00    +0.000 C 
ATOM      4  C   UNL     1       7.937   5.700  18.460  0.00  0.00    +0.000 C 
ATOM      5  C   UNL     1       7.153   5.320  19.708  0.00  0.00    +0.000 C 
ATOM      6  C   UNL     1       5.661   5.170  19.453  0.00  0.00    +0.000 C 
ENDROOT
BRANCH   4   7
ATOM      7  C   UNL     1       7.720   7.094  17.842  0.00  0.00    +0.000 C 
ATOM      8  O   UNL     1       7.008   7.216  16.845  0.00  0.00    +0.000 OA
ATOM      9  N   UNL     1       8.367   8.164  18.411  0.00  0.00    +0.000 N 
ATOM     10  H   UNL     1       9.049   8.029  19.139  0.00  0.00    +0.000 HD
BRANCH   9  11
ATOM     11  C   UNL     1       8.250   9.519  17.886  0.00  0.00    +0.000 C 
BRANCH  11  12
ATOM     12  C   UNL     1       9.089  10.559  18.603  0.00  0.00    +0.000 A 
ATOM     13  C   UNL     1       9.341  10.519  19.978  0.00  0.00    +0.000 A 
ATOM     14  C   UNL     1      10.106  11.510  20.596  0.00  0.00    +0.000 A 
ATOM     15  C   UNL     1      10.655  12.541  19.839  0.00  0.00    +0.000 A 
ATOM     16  C   UNL     1      10.463  12.583  18.459  0.00  0.00    +0.000 A 
ATOM     17  C   UNL     1       9.692  11.589  17.845  0.00  0.00    +0.000 A 
BRANCH  16  18
ATOM     18  O   UNL     1      11.066  13.643  17.842  0.00  0.00    +0.000 OA
ATOM     19  C   UNL     1      11.985  13.359  16.797  0.00  0.00    +0.000 C 
ENDBRANCH  16  18
ENDBRANCH  11  12
ENDBRANCH   9  11
ENDBRANCH   4   7
BRANCH   1  20
ATOM     20  S   UNL     1       3.637   4.590  17.848  0.00  0.00    +0.000 S 
ATOM     21  O   UNL     1       3.039   3.280  17.772  0.00  0.00    +0.000 OA
ATOM     22  O   UNL     1       3.574   5.524  16.741  0.00  0.00    +0.000 OA
BRANCH  20  29
ATOM     23  C   UNL     1       2.478   6.789  19.216  0.00  0.00    +0.000 A 
ATOM     24  C   UNL     1       1.876   6.973  20.459  0.00  0.00    +0.000 A 
ATOM     25  C   UNL     1       1.289   8.185  21.094  0.00  0.00    +0.000 C 
ATOM     26  N   UNL     1       1.877   5.770  21.118  0.00  0.00    +0.000 N 
ATOM     27  C   UNL     1       2.423   4.798  20.321  0.00  0.00    +0.000 A 
ATOM     28  C   UNL     1       2.475   3.377  20.749  0.00  0.00    +0.000 C 
ATOM     29  C   UNL     1       2.859   5.413  19.156  0.00  0.00    +0.000 A 
ATOM     30  H   UNL     1       1.502   5.620  22.046  0.00  0.00    +0.000 HD
BRANCH  23  31
ATOM     31  C   UNL     1       2.610   7.845  18.223  0.00  0.00    +0.000 C 
ATOM     32  O   UNL     1       3.678   8.298  17.835  0.00  0.00    +0.000 OA
BRANCH  31  33
ATOM     33  O   UNL     1       1.375   8.323  17.882  0.00  0.00    +0.000 OA
BRANCH  33  35
ATOM     34  C   UNL     1      -0.274  10.065  18.153  0.00  0.00    +0.000 C 
ATOM     35  C   UNL     1       1.189   9.742  17.934  0.00  0.00    +0.000 C 
ENDBRANCH  33  35
ENDBRANCH  31  33
ENDBRANCH  23  31
ENDBRANCH  20  29
ENDBRANCH   1  20
TORSDOF 9
ENDMDL
MODEL 2
REMARK VINA RESULT:      -8.3      1.526      3.806
REMARK  Name = 
REMARK  13 active torsions:
REMARK  status: ('A' for Active; 'I' for Inactive)
REMARK    1  A    between atoms: C_1  and  C_2
REMARK    2  A    between atoms: C_2  and  O_3
REMARK    3  A    between atoms: O_3  and  C_4
REMARK    4  A    between atoms: C_4  and  C_6
REMARK    5  A    between atoms: C_7  and  C_8
REMARK    6  A    between atoms: C_10  and  C_11
REMARK    7  A    between atoms: C_12  and  S_13
REMARK    8  A    between atoms: S_13  and  N_16
REMARK    9  A    between atoms: C_19  and  C_20
REMARK   10  A    between atoms: N_22  and  C_23
REMARK   11  A    between atoms: C_23  and  C_24
REMARK   12  A    between atoms: C_28  and  O_29
REMARK   13  A    between atoms: O_29  and  C_30
REMARK                            x       y       z     vdW  Elec       q    Type
REMARK                         _______ _______ _______ _____ _____    ______ ____
ROOT
ATOM      1  N   UNL     1       5.354   4.842  18.081  0.00  0.00    +0.000 NA
ATOM      2  C   UNL     1       6.110   5.150  16.831  0.00  0.00    +0.000 C 
ATOM      3  C   UNL     1       7.619   5.141  17.033  0.00  0.00    +0.000 C 
ATOM      4  C   UNL     1       8.028   6.079  18.171  0.00  0.00    +0.000 C 
ATOM      5  C   UNL     1       7.364   5.565  19.440  0.00  0.00    +0.000 C 
ATOM      6  C   UNL     1       5.848   5.484  19.331  0.00  0.00    +0.000 C 
ENDROOT
BRANCH   4   7
ATOM      7  C   UNL     1       7.802   7.545  17.756  0.00  0.00    +0.000 C 
ATOM      8  O   UNL     1       7.015   7.807  16.846  0.00  0.00    +0.000 OA
ATOM      9  N   UNL     1       8.521   8.521  18.401  0.00  0.00    +0.000 N 
ATOM     10  H   UNL     1       9.255   8.281  19.046  0.00  0.00    +0.000 HD
BRANCH   9  11
ATOM     11  C   UNL     1       8.400   9.934  18.065  0.00  0.00    +0.000 C 
BRANCH  11  12
ATOM     12  C   UNL     1       9.409  10.843  18.741  0.00  0.00    +0.000 A 
ATOM     13  C   UNL     1       9.597  10.874  20.127  0.00  0.00    +0.000 A 
ATOM     14  C   UNL     1      10.527  11.741  20.704  0.00  0.00    +0.000 A 
ATOM     15  C   UNL     1      11.302  12.571  19.899  0.00  0.00    +0.000 A 
ATOM     16  C   UNL     1      11.172  12.529  18.511  0.00  0.00    +0.000 A 
ATOM     17  C   UNL     1      10.237  11.660  17.938  0.00  0.00    +0.000 A 
BRANCH  16  18
ATOM     18  O   UNL     1      12.002  13.388  17.845  0.00  0.00    +0.000 OA
ATOM     19  C   UNL     1      12.332  14.611  18.487  0.00  0.00    +0.000 C 
ENDBRANCH  16  18
ENDBRANCH  11  12
ENDBRANCH   9  11
ENDBRANCH   4   7
BRANCH   1  20
ATOM     20  S   UNL     1       3.649   5.162  17.894  0.00  0.00    +0.000 S 
ATOM     21  O   UNL     1       3.174   4.310  16.831  0.00  0.00    +0.000 OA
ATOM     22  O   UNL     1       3.473   6.600  17.857  0.00  0.00    +0.000 OA
BRANCH  20  29
ATOM     23  C   UNL     1       2.879   3.381  19.963  0.00  0.00    +0.000 A 
ATOM     24  C   UNL     1       2.066   3.469  21.091  0.00  0.00    +0.000 A 
ATOM     25  C   UNL     1       1.721   2.462  22.131  0.00  0.00    +0.000 C 
ATOM     26  N   UNL     1       1.556   4.740  21.153  0.00  0.00    +0.000 N 
ATOM     27  C   UNL     1       2.048   5.495  20.122  0.00  0.00    +0.000 A 
ATOM     28  C   UNL     1       1.729   6.940  19.990  0.00  0.00    +0.000 C 
ATOM     29  C   UNL     1       2.826   4.661  19.332  0.00  0.00    +0.000 A 
ATOM     30  H   UNL     1       0.929   5.076  21.873  0.00  0.00    +0.000 HD
BRANCH  23  31
ATOM     31  C   UNL     1       3.626   2.185  19.603  0.00  0.00    +0.000 C 
ATOM     32  O   UNL     1       3.276   1.383  18.748  0.00  0.00    +0.000 OA
BRANCH  31  33
ATOM     33  O   UNL     1       4.702   2.039  20.434  0.00  0.00    +0.000 OA
BRANCH  33  35
ATOM     34  C   UNL     1       5.830   0.566  21.980  0.00  0.00    +0.000 C 
ATOM     35  C   UNL     1       5.221   0.714  20.601  0.00  0.00    +0.000 C 
ENDBRANCH  33  35
ENDBRANCH  31  33
ENDBRANCH  23  31
ENDBRANCH  20  29
ENDBRANCH   1  20
TORSDOF 9
ENDMDL
MODEL 3
REMARK VINA RESULT:      -7.9      0.923      1.484
REMARK  Name = 
REMARK  13 active torsions:
REMARK  status: ('A' for Active; 'I' for Inactive)
REMARK    1  A    between atoms: C_1  and  C_2
REMARK    2  A    between atoms: C_2  and  O_3
REMARK    3  A    between atoms: O_3  and  C_4
REMARK    4  A    between atoms: C_4  and  C_6
REMARK    5  A    between atoms: C_7  and  C_8
REMARK    6  A    between atoms: C_10  and  C_11
REMARK    7  A    between atoms: C_12  and  S_13
REMARK    8  A    between atoms: S_13  and  N_16
REMARK    9  A    between atoms: C_19  and  C_20
REMARK   10  A    between atoms: N_22  and  C_23
REMARK   11  A    between atoms: C_23  and  C_24
REMARK   12  A    between atoms: C_28  and  O_29
REMARK   13  A    between atoms: O_29  and  C_30
REMARK                            x       y       z     vdW  Elec       q    Type
REMARK                         _______ _______ _______ _____ _____    ______ ____
ROOT
ATOM      1  N   UNL     1       5.321   4.329  18.261  0.00  0.00    +0.000 NA
ATOM      2  C   UNL     1       6.187   4.519  17.059  0.00  0.00    +0.000 C 
ATOM      3  C   UNL     1       7.669   4.595  17.403  0.00  0.00    +0.000 C 
ATOM      4  C   UNL     1       7.935   5.677  18.452  0.00  0.00    +0.000 C 
ATOM      5  C   UNL     1       7.164   5.289  19.705  0.00  0.00    +0.000 C 
ATOM      6  C   UNL     1       5.670   5.135  19.464  0.00  0.00    +0.000 C 
ENDROOT
BRANCH   4   7
ATOM      7  C   UNL     1       7.708   7.074  17.842  0.00  0.00    +0.000 C 
ATOM      8  O   UNL     1       6.977   7.198  16.859  0.00  0.00    +0.000 OA
ATOM      9  N   UNL     1       8.366   8.141  18.401  0.00  0.00    +0.000 N 
ATOM     10  H   UNL     1       9.062   8.003  19.115  0.00  0.00    +0.000 HD
BRANCH   9  11
ATOM     11  C   UNL     1       8.240   9.497  17.883  0.00  0.00    +0.000 C 
BRANCH  11  12
ATOM     12  C   UNL     1       9.217  10.500  18.464  0.00  0.00    +0.000 A 
ATOM     13  C   UNL     1      10.281  11.040  17.732  0.00  0.00    +0.000 A 
ATOM     14  C   UNL     1      11.165  11.949  18.318  0.00  0.00    +0.000 A 
ATOM     15  C   UNL     1      10.980  12.352  19.637  0.00  0.00    +0.000 A 
ATOM     16  C   UNL     1       9.902  11.870  20.378  0.00  0.00    +0.000 A 
ATOM     17  C   UNL     1       9.021  10.957  19.788  0.00  0.00    +0.000 A 
BRANCH  16  18
ATOM     18  O   UNL     1       9.837  12.357  21.653  0.00  0.00    +0.000 OA
ATOM     19  C   UNL     1       9.855  13.767  21.819  0.00  0.00    +0.000 C 
ENDBRANCH  16  18
ENDBRANCH  11  12
ENDBRANCH   9  11
ENDBRANCH   4   7
BRANCH   1  20
ATOM     20  S   UNL     1       3.634   4.555  17.875  0.00  0.00    +0.000 S 
ATOM     21  O   UNL     1       3.038   3.243  17.806  0.00  0.00    +0.000 OA
ATOM     22  O   UNL     1       3.557   5.489  16.770  0.00  0.00    +0.000 OA
BRANCH  20  29
ATOM     23  C   UNL     1       2.518   6.759  19.271  0.00  0.00    +0.000 A 
ATOM     24  C   UNL     1       1.912   6.938  20.513  0.00  0.00    +0.000 A 
ATOM     25  C   UNL     1       1.351   8.153  21.163  0.00  0.00    +0.000 C 
ATOM     26  N   UNL     1       1.880   5.726  21.152  0.00  0.00    +0.000 N 
ATOM     27  C   UNL     1       2.407   4.753  20.344  0.00  0.00    +0.000 A 
ATOM     28  C   UNL     1       2.422   3.324  20.748  0.00  0.00    +0.000 C 
ATOM     29  C   UNL     1       2.866   5.376  19.192  0.00  0.00    +0.000 A 
ATOM     30  H   UNL     1       1.495   5.570  22.075  0.00  0.00    +0.000 HD
BRANCH  23  31
ATOM     31  C   UNL     1       2.683   7.827  18.296  0.00  0.00    +0.000 C 
ATOM     32  O   UNL     1       3.763   8.208  17.864  0.00  0.00    +0.000 OA
BRANCH  31  33
ATOM     33  O   UNL     1       1.474   8.406  18.029  0.00  0.00    +0.000 OA
BRANCH  33  35
ATOM     34  C   UNL     1       1.064  10.600  18.953  0.00  0.00    +0.000 C 
ATOM     35  C   UNL     1       1.474   9.807  17.729  0.00  0.00    +0.000 C 
ENDBRANCH  33  35
ENDBRANCH  31  33
ENDBRANCH  23  31
ENDBRANCH  20  29
ENDBRANCH   1  20
TORSDOF 9
ENDMDL
MODEL 4
REMARK VINA RESULT:      -7.7      1.694      4.000
REMARK  Name = 
REMARK  13 active torsions:
REMARK  status: ('A' for Active; 'I' for Inactive)
REMARK    1  A    between atoms: C_1  and  C_2
REMARK    2  A    between atoms: C_2  and  O_3
REMARK    3  A    between atoms: O_3  and  C_4
REMARK    4  A    between atoms: C_4  and  C_6
REMARK    5  A    between atoms: C_7  and  C_8
REMARK    6  A    between atoms: C_10  and  C_11
REMARK    7  A    between atoms: C_12  and  S_13
REMARK    8  A    between atoms: S_13  and  N_16
REMARK    9  A    between atoms: C_19  and  C_20
REMARK   10  A    between atoms: N_22  and  C_23
REMARK   11  A    between atoms: C_23  and  C_24
REMARK   12  A    between atoms: C_28  and  O_29
REMARK   13  A    between atoms: O_29  and  C_30
REMARK                            x       y       z     vdW  Elec       q    Type
REMARK                         _______ _______ _______ _____ _____    ______ ____
ROOT
ATOM      1  N   UNL     1       5.364   4.855  18.013  0.00  0.00    +0.000 NA
ATOM      2  C   UNL     1       6.150   5.187  16.787  0.00  0.00    +0.000 C 
ATOM      3  C   UNL     1       7.654   5.171  17.024  0.00  0.00    +0.000 C 
ATOM      4  C   UNL     1       8.037   6.086  18.191  0.00  0.00    +0.000 C 
ATOM      5  C   UNL     1       7.342   5.548  19.433  0.00  0.00    +0.000 C 
ATOM      6  C   UNL     1       5.829   5.472  19.286  0.00  0.00    +0.000 C 
ENDROOT
BRANCH   4   7
ATOM      7  C   UNL     1       7.822   7.561  17.800  0.00  0.00    +0.000 C 
ATOM      8  O   UNL     1       7.042   7.843  16.890  0.00  0.00    +0.000 OA
ATOM      9  N   UNL     1       8.544   8.521  18.465  0.00  0.00    +0.000 N 
ATOM     10  H   UNL     1       9.273   8.265  19.110  0.00  0.00    +0.000 HD
BRANCH   9  11
ATOM     11  C   UNL     1       8.434   9.940  18.152  0.00  0.00    +0.000 C 
BRANCH  11  12
ATOM     12  C   UNL     1       9.472  10.825  18.814  0.00  0.00    +0.000 A 
ATOM     13  C   UNL     1      10.697  11.140  18.215  0.00  0.00    +0.000 A 
ATOM     14  C   UNL     1      11.629  11.947  18.871  0.00  0.00    +0.000 A 
ATOM     15  C   UNL     1      11.336  12.473  20.126  0.00  0.00    +0.000 A 
ATOM     16  C   UNL     1      10.105  12.218  20.728  0.00  0.00    +0.000 A 
ATOM     17  C   UNL     1       9.175  11.406  20.068  0.00  0.00    +0.000 A 
BRANCH  16  18
ATOM     18  O   UNL     1       9.948  12.806  21.953  0.00  0.00    +0.000 OA
ATOM     19  C   UNL     1       9.577  14.177  21.980  0.00  0.00    +0.000 C 
ENDBRANCH  16  18
ENDBRANCH  11  12
ENDBRANCH   9  11
ENDBRANCH   4   7
BRANCH   1  20
ATOM     20  S   UNL     1       3.664   5.182  17.791  0.00  0.00    +0.000 S 
ATOM     21  O   UNL     1       3.202   4.312  16.737  0.00  0.00    +0.000 OA
ATOM     22  O   UNL     1       3.498   6.620  17.723  0.00  0.00    +0.000 OA
BRANCH  20  29
ATOM     23  C   UNL     1       2.765   3.417  19.822  0.00  0.00    +0.000 A 
ATOM     24  C   UNL     1       1.973   3.543  20.962  0.00  0.00    +0.000 A 
ATOM     25  C   UNL     1       1.553   2.542  21.979  0.00  0.00    +0.000 C 
ATOM     26  N   UNL     1       1.573   4.851  21.062  0.00  0.00    +0.000 N 
ATOM     27  C   UNL     1       2.118   5.589  20.045  0.00  0.00    +0.000 A 
ATOM     28  C   UNL     1       1.922   7.059  19.955  0.00  0.00    +0.000 C 
ATOM     29  C   UNL     1       2.816   4.714  19.225  0.00  0.00    +0.000 A 
ATOM     30  H   UNL     1       0.984   5.220  21.798  0.00  0.00    +0.000 HD
BRANCH  23  31
ATOM     31  C   UNL     1       3.404   2.172  19.423  0.00  0.00    +0.000 C 
ATOM     32  O   UNL     1       2.832   1.253  18.853  0.00  0.00    +0.000 OA
BRANCH  31  33
ATOM     33  O   UNL     1       4.694   2.143  19.877  0.00  0.00    +0.000 OA
BRANCH  33  35
ATOM     34  C   UNL     1       5.552   0.079  20.791  0.00  0.00    +0.000 C 
ATOM     35  C   UNL     1       4.939   1.430  21.095  0.00  0.00    +0.000 C 
ENDBRANCH  33  35
ENDBRANCH  31  33
ENDBRANCH  23  31
ENDBRANCH  20  29
ENDBRANCH   1  20
TORSDOF 9
ENDMDL
MODEL 5
REMARK VINA RESULT:      -7.7      0.964      1.114
REMARK  Name = 
REMARK  13 active torsions:
REMARK  status: ('A' for Active; 'I' for Inactive)
REMARK    1  A    between atoms: C_1  and  C_2
REMARK    2  A    between atoms: C_2  and  O_3
REMARK    3  A    between atoms: O_3  and  C_4
REMARK    4  A    between atoms: C_4  and  C_6
REMARK    5  A    between atoms: C_7  and  C_8
REMARK    6  A    between atoms: C_10  and  C_11
REMARK    7  A    between atoms: C_12  and  S_13
REMARK    8  A    between atoms: S_13  and  N_16
REMARK    9  A    between atoms: C_19  and  C_20
REMARK   10  A    between atoms: N_22  and  C_23
REMARK   11  A    between atoms: C_23  and  C_24
REMARK   12  A    between atoms: C_28  and  O_29
REMARK   13  A    between atoms: O_29  and  C_30
REMARK                            x       y       z     vdW  Elec       q    Type
REMARK                         _______ _______ _______ _____ _____    ______ ____
ROOT
ATOM      1  N   UNL     1       4.862   5.030  18.215  0.00  0.00    +0.000 NA
ATOM      2  C   UNL     1       5.754   4.901  17.024  0.00  0.00    +0.000 C 
ATOM      3  C   UNL     1       7.204   4.625  17.397  0.00  0.00    +0.000 C 
ATOM      4  C   UNL     1       7.733   5.682  18.371  0.00  0.00    +0.000 C 
ATOM      5  C   UNL     1       6.882   5.599  19.630  0.00  0.00    +0.000 C 
ATOM      6  C   UNL     1       5.399   5.810  19.365  0.00  0.00    +0.000 C 
ENDROOT
BRANCH   4   7
ATOM      7  C   UNL     1       7.871   7.039  17.657  0.00  0.00    +0.000 C 
ATOM      8  O   UNL     1       7.765   7.097  16.431  0.00  0.00    +0.000 OA
ATOM      9  N   UNL     1       8.149   8.148  18.417  0.00  0.00    +0.000 N 
ATOM     10  H   UNL     1       8.366   8.062  19.396  0.00  0.00    +0.000 HD
BRANCH   9  11
ATOM     11  C   UNL     1       8.326   9.472  17.835  0.00  0.00    +0.000 C 
BRANCH  11  12
ATOM     12  C   UNL     1       9.270  10.386  18.593  0.00  0.00    +0.000 A 
ATOM     13  C   UNL     1       9.239  10.528  19.985  0.00  0.00    +0.000 A 
ATOM     14  C   UNL     1      10.118  11.395  20.636  0.00  0.00    +0.000 A 
ATOM     15  C   UNL     1      11.061  12.111  19.906  0.00  0.00    +0.000 A 
ATOM     16  C   UNL     1      11.150  11.955  18.523  0.00  0.00    +0.000 A 
ATOM     17  C   UNL     1      10.264  11.087  17.875  0.00  0.00    +0.000 A 
BRANCH  16  18
ATOM     18  O   UNL     1      12.127  12.711  17.937  0.00  0.00    +0.000 OA
ATOM     19  C   UNL     1      11.859  14.092  17.739  0.00  0.00    +0.000 C 
ENDBRANCH  16  18
ENDBRANCH  11  12
ENDBRANCH   9  11
ENDBRANCH   4   7
BRANCH   1  20
ATOM     20  S   UNL     1       3.290   5.646  17.774  0.00  0.00    +0.000 S 
ATOM     21  O   UNL     1       2.481   4.510  17.404  0.00  0.00    +0.000 OA
ATOM     22  O   UNL     1       3.493   6.765  16.875  0.00  0.00    +0.000 OA
BRANCH  20  29
ATOM     23  C   UNL     1       1.957   7.637  19.293  0.00  0.00    +0.000 A 
ATOM     24  C   UNL     1       1.488   7.733  20.602  0.00  0.00    +0.000 A 
ATOM     25  C   UNL     1       0.791   8.837  21.315  0.00  0.00    +0.000 C 
ATOM     26  N   UNL     1       1.770   6.554  21.244  0.00  0.00    +0.000 N 
ATOM     27  C   UNL     1       2.368   5.677  20.378  0.00  0.00    +0.000 A 
ATOM     28  C   UNL     1       2.707   4.289  20.783  0.00  0.00    +0.000 C 
ATOM     29  C   UNL     1       2.551   6.343  19.175  0.00  0.00    +0.000 A 
ATOM     30  H   UNL     1       1.541   6.354  22.210  0.00  0.00    +0.000 HD
BRANCH  23  31
ATOM     31  C   UNL     1       1.790   8.689  18.302  0.00  0.00    +0.000 C 
ATOM     32  O   UNL     1       1.021   8.628  17.352  0.00  0.00    +0.000 OA
BRANCH  31  33
ATOM     33  O   UNL     1       2.692   9.691  18.528  0.00  0.00    +0.000 OA
BRANCH  33  35
ATOM     34  C   UNL     1       1.474  11.715  19.031  0.00  0.00    +0.000 C 
ATOM     35  C   UNL     1       2.357  10.993  18.034  0.00  0.00    +0.000 C 
ENDBRANCH  33  35
ENDBRANCH  31  33
ENDBRANCH  23  31
ENDBRANCH  20  29
ENDBRANCH   1  20
TORSDOF 9
ENDMDL
MODEL 6
REMARK VINA RESULT:      -7.7      1.758      3.307
REMARK  Name = 
REMARK  13 active torsions:
REMARK  status: ('A' for Active; 'I' for Inactive)
REMARK    1  A    between atoms: C_1  and  C_2
REMARK    2  A    between atoms: C_2  and  O_3
REMARK    3  A    between atoms: O_3  and  C_4
REMARK    4  A    between atoms: C_4  and  C_6
REMARK    5  A    between atoms: C_7  and  C_8
REMARK    6  A    between atoms: C_10  and  C_11
REMARK    7  A    between atoms: C_12  and  S_13
REMARK    8  A    between atoms: S_13  and  N_16
REMARK    9  A    between atoms: C_19  and  C_20
REMARK   10  A    between atoms: N_22  and  C_23
REMARK   11  A    between atoms: C_23  and  C_24
REMARK   12  A    between atoms: C_28  and  O_29
REMARK   13  A    between atoms: O_29  and  C_30
REMARK                            x       y       z     vdW  Elec       q    Type
REMARK                         _______ _______ _______ _____ _____    ______ ____
ROOT
ATOM      1  N   UNL     1       5.419   4.309  18.208  0.00  0.00    +0.000 NA
ATOM      2  C   UNL     1       6.436   4.429  17.121  0.00  0.00    +0.000 C 
ATOM      3  C   UNL     1       7.861   4.515  17.648  0.00  0.00    +0.000 C 
ATOM      4  C   UNL     1       8.004   5.650  18.665  0.00  0.00    +0.000 C 
ATOM      5  C   UNL     1       7.073   5.334  19.827  0.00  0.00    +0.000 C 
ATOM      6  C   UNL     1       5.621   5.176  19.403  0.00  0.00    +0.000 C 
ENDROOT
BRANCH   4   7
ATOM      7  C   UNL     1       7.875   7.013  17.960  0.00  0.00    +0.000 C 
ATOM      8  O   UNL     1       7.398   7.071  16.826  0.00  0.00    +0.000 OA
ATOM      9  N   UNL     1       8.336   8.130  18.613  0.00  0.00    +0.000 N 
ATOM     10  H   UNL     1       8.844   8.049  19.478  0.00  0.00    +0.000 HD
BRANCH   9  11
ATOM     11  C   UNL     1       8.285   9.460  18.022  0.00  0.00    +0.000 C 
BRANCH  11  12
ATOM     12  C   UNL     1       9.278  10.454  18.591  0.00  0.00    +0.000 A 
ATOM     13  C   UNL     1      10.361  10.953  17.858  0.00  0.00    +0.000 A 
ATOM     14  C   UNL     1      11.259  11.855  18.432  0.00  0.00    +0.000 A 
ATOM     15  C   UNL     1      11.070  12.292  19.740  0.00  0.00    +0.000 A 
ATOM     16  C   UNL     1       9.974  11.852  20.480  0.00  0.00    +0.000 A 
ATOM     17  C   UNL     1       9.078  10.945  19.901  0.00  0.00    +0.000 A 
BRANCH  16  18
ATOM     18  O   UNL     1       9.907  12.370  21.743  0.00  0.00    +0.000 OA
ATOM     19  C   UNL     1       8.729  12.116  22.495  0.00  0.00    +0.000 C 
ENDBRANCH  16  18
ENDBRANCH  11  12
ENDBRANCH   9  11
ENDBRANCH   4   7
BRANCH   1  20
ATOM     20  S   UNL     1       3.799   4.524  17.596  0.00  0.00    +0.000 S 
ATOM     21  O   UNL     1       3.038   3.367  18.002  0.00  0.00    +0.000 OA
ATOM     22  O   UNL     1       3.903   4.921  16.206  0.00  0.00    +0.000 OA
BRANCH  20  29
ATOM     23  C   UNL     1       2.204   5.878  19.512  0.00  0.00    +0.000 A 
ATOM     24  C   UNL     1       1.909   7.212  19.788  0.00  0.00    +0.000 A 
ATOM     25  C   UNL     1       1.048   7.829  20.832  0.00  0.00    +0.000 C 
ATOM     26  N   UNL     1       2.581   7.994  18.884  0.00  0.00    +0.000 N 
ATOM     27  C   UNL     1       3.342   7.210  18.057  0.00  0.00    +0.000 A 
ATOM     28  C   UNL     1       4.243   7.799  17.033  0.00  0.00    +0.000 C 
ATOM     29  C   UNL     1       3.082   5.887  18.385  0.00  0.00    +0.000 A 
ATOM     30  H   UNL     1       2.543   9.005  18.854  0.00  0.00    +0.000 HD
BRANCH  23  31
ATOM     31  C   UNL     1       1.700   4.765  20.303  0.00  0.00    +0.000 C 
ATOM     32  O   UNL     1       0.562   4.321  20.223  0.00  0.00    +0.000 OA
BRANCH  31  33
ATOM     33  O   UNL     1       2.642   4.373  21.213  0.00  0.00    +0.000 OA
BRANCH  33  35
ATOM     34  C   UNL     1       1.653   2.321  22.014  0.00  0.00    +0.000 C 
ATOM     35  C   UNL     1       2.859   2.965  21.361  0.00  0.00    +0.000 C 
ENDBRANCH  33  35
ENDBRANCH  31  33
ENDBRANCH  23  31
ENDBRANCH  20  29
ENDBRANCH   1  20
TORSDOF 9
ENDMDL
MODEL 7
REMARK VINA RESULT:      -7.6      1.625      3.567
REMARK  Name = 
REMARK  13 active torsions:
REMARK  status: ('A' for Active; 'I' for Inactive)
REMARK    1  A    between atoms: C_1  and  C_2
REMARK    2  A    between atoms: C_2  and  O_3
REMARK    3  A    between atoms: O_3  and  C_4
REMARK    4  A    between atoms: C_4  and  C_6
REMARK    5  A    between atoms: C_7  and  C_8
REMARK    6  A    between atoms: C_10  and  C_11
REMARK    7  A    between atoms: C_12  and  S_13
REMARK    8  A    between atoms: S_13  and  N_16
REMARK    9  A    between atoms: C_19  and  C_20
REMARK   10  A    between atoms: N_22  and  C_23
REMARK   11  A    between atoms: C_23  and  C_24
REMARK   12  A    between atoms: C_28  and  O_29
REMARK   13  A    between atoms: O_29  and  C_30
REMARK                            x       y       z     vdW  Elec       q    Type
REMARK                         _______ _______ _______ _____ _____    ______ ____
ROOT
ATOM      1  N   UNL     1       5.349   5.097  17.891  0.00  0.00    +0.000 NA
ATOM      2  C   UNL     1       6.045   5.514  16.637  0.00  0.00    +0.000 C 
ATOM      3  C   UNL     1       7.562   5.488  16.764  0.00  0.00    +0.000 C 
ATOM      4  C   UNL     1       8.029   6.323  17.959  0.00  0.00    +0.000 C 
ATOM      5  C   UNL     1       7.424   5.699  19.209  0.00  0.00    +0.000 C 
ATOM      6  C   UNL     1       5.905   5.628  19.166  0.00  0.00    +0.000 C 
ENDROOT
BRANCH   4   7
ATOM      7  C   UNL     1       7.788   7.820  17.686  0.00  0.00    +0.000 C 
ATOM      8  O   UNL     1       6.932   8.161  16.869  0.00  0.00    +0.000 OA
ATOM      9  N   UNL     1       8.573   8.735  18.344  0.00  0.00    +0.000 N 
ATOM     10  H   UNL     1       9.354   8.437  18.903  0.00  0.00    +0.000 HD
BRANCH   9  11
ATOM     11  C   UNL     1       8.443  10.171  18.135  0.00  0.00    +0.000 C 
BRANCH  11  12
ATOM     12  C   UNL     1       9.495  11.017  18.825  0.00  0.00    +0.000 A 
ATOM     13  C   UNL     1      10.743  11.294  18.256  0.00  0.00    +0.000 A 
ATOM     14  C   UNL     1      11.686  12.066  18.939  0.00  0.00    +0.000 A 
ATOM     15  C   UNL     1      11.382  12.594  20.190  0.00  0.00    +0.000 A 
ATOM     16  C   UNL     1      10.130  12.377  20.763  0.00  0.00    +0.000 A 
ATOM     17  C   UNL     1       9.189  11.601  20.076  0.00  0.00    +0.000 A 
BRANCH  16  18
ATOM     18  O   UNL     1       9.965  12.963  21.987  0.00  0.00    +0.000 OA
ATOM     19  C   UNL     1       8.790  12.640  22.716  0.00  0.00    +0.000 C 
ENDBRANCH  16  18
ENDBRANCH  11  12
ENDBRANCH   9  11
ENDBRANCH   4   7
BRANCH   1  20
ATOM     20  S   UNL     1       3.637   5.432  17.814  0.00  0.00    +0.000 S 
ATOM     21  O   UNL     1       3.074   4.526  16.843  0.00  0.00    +0.000 OA
ATOM     22  O   UNL     1       3.475   6.868  17.704  0.00  0.00    +0.000 OA
BRANCH  20  29
ATOM     23  C   UNL     1       2.985   3.779  20.025  0.00  0.00    +0.000 A 
ATOM     24  C   UNL     1       2.273   3.949  21.211  0.00  0.00    +0.000 A 
ATOM     25  C   UNL     1       1.984   3.006  22.324  0.00  0.00    +0.000 C 
ATOM     26  N   UNL     1       1.812   5.240  21.251  0.00  0.00    +0.000 N 
ATOM     27  C   UNL     1       2.241   5.928  20.146  0.00  0.00    +0.000 A 
ATOM     28  C   UNL     1       1.959   7.375  19.970  0.00  0.00    +0.000 C 
ATOM     29  C   UNL     1       2.922   5.029  19.338  0.00  0.00    +0.000 A 
ATOM     30  H   UNL     1       1.259   5.633  22.003  0.00  0.00    +0.000 HD
BRANCH  23  31
ATOM     31  C   UNL     1       3.661   2.541  19.666  0.00  0.00    +0.000 C 
ATOM     32  O   UNL     1       4.715   2.161  20.157  0.00  0.00    +0.000 OA
BRANCH  31  33
ATOM     33  O   UNL     1       3.005   1.935  18.630  0.00  0.00    +0.000 OA
BRANCH  33  35
ATOM     34  C   UNL     1       0.620   2.301  18.528  0.00  0.00    +0.000 C 
ATOM     35  C   UNL     1       1.731   1.348  18.919  0.00  0.00    +0.000 C 
ENDBRANCH  33  35
ENDBRANCH  31  33
ENDBRANCH  23  31
ENDBRANCH  20  29
ENDBRANCH   1  20
TORSDOF 9
ENDMDL
MODEL 8
REMARK VINA RESULT:      -7.3      5.390      9.442
REMARK  Name = 
REMARK  13 active torsions:
REMARK  status: ('A' for Active; 'I' for Inactive)
REMARK    1  A    between atoms: C_1  and  C_2
REMARK    2  A    between atoms: C_2  and  O_3
REMARK    3  A    between atoms: O_3  and  C_4
REMARK    4  A    between atoms: C_4  and  C_6
REMARK    5  A    between atoms: C_7  and  C_8
REMARK    6  A    between atoms: C_10  and  C_11
REMARK    7  A    between atoms: C_12  and  S_13
REMARK    8  A    between atoms: S_13  and  N_16
REMARK    9  A    between atoms: C_19  and  C_20
REMARK   10  A    between atoms: N_22  and  C_23
REMARK   11  A    between atoms: C_23  and  C_24
REMARK   12  A    between atoms: C_28  and  O_29
REMARK   13  A    between atoms: O_29  and  C_30
REMARK                            x       y       z     vdW  Elec       q    Type
REMARK                         _______ _______ _______ _____ _____    ______ ____
ROOT
ATOM      1  N   UNL     1       0.548  12.559  20.108  0.00  0.00    +0.000 NA
ATOM      2  C   UNL     1       0.245  12.250  18.678  0.00  0.00    +0.000 C 
ATOM      3  C   UNL     1      -0.543  10.959  18.505  0.00  0.00    +0.000 C 
ATOM      4  C   UNL     1       0.167   9.786  19.185  0.00  0.00    +0.000 C 
ATOM      5  C   UNL     1       0.252  10.110  20.670  0.00  0.00    +0.000 C 
ATOM      6  C   UNL     1       0.980  11.414  20.957  0.00  0.00    +0.000 C 
ENDROOT
BRANCH   4   7
ATOM      7  C   UNL     1       1.462   9.438  18.426  0.00  0.00    +0.000 C 
ATOM      8  O   UNL     1       1.890  10.208  17.566  0.00  0.00    +0.000 OA
ATOM      9  N   UNL     1       2.083   8.247  18.713  0.00  0.00    +0.000 N 
ATOM     10  H   UNL     1       1.649   7.571  19.319  0.00  0.00    +0.000 HD
BRANCH   9  11
ATOM     11  C   UNL     1       3.296   7.814  18.033  0.00  0.00    +0.000 C 
BRANCH  11  12
ATOM     12  C   UNL     1       3.364   6.330  17.725  0.00  0.00    +0.000 A 
ATOM     13  C   UNL     1       2.308   5.450  17.984  0.00  0.00    +0.000 A 
ATOM     14  C   UNL     1       2.424   4.088  17.698  0.00  0.00    +0.000 A 
ATOM     15  C   UNL     1       3.590   3.593  17.122  0.00  0.00    +0.000 A 
ATOM     16  C   UNL     1       4.642   4.451  16.807  0.00  0.00    +0.000 A 
ATOM     17  C   UNL     1       4.522   5.815  17.099  0.00  0.00    +0.000 A 
BRANCH  16  18
ATOM     18  O   UNL     1       5.719   3.832  16.238  0.00  0.00    +0.000 OA
ATOM     19  C   UNL     1       5.908   3.997  14.840  0.00  0.00    +0.000 C 
ENDBRANCH  16  18
ENDBRANCH  11  12
ENDBRANCH   9  11
ENDBRANCH   4   7
BRANCH   1  20
ATOM     20  S   UNL     1       1.703  13.861  20.250  0.00  0.00    +0.000 S 
ATOM     21  O   UNL     1       2.856  13.488  19.467  0.00  0.00    +0.000 OA
ATOM     22  O   UNL     1       1.810  14.201  21.655  0.00  0.00    +0.000 OA
BRANCH  20  29
ATOM     23  C   UNL     1       1.693  16.177  18.613  0.00  0.00    +0.000 A 
ATOM     24  C   UNL     1       0.750  17.147  18.278  0.00  0.00    +0.000 A 
ATOM     25  C   UNL     1       0.844  18.342  17.396  0.00  0.00    +0.000 C 
ATOM     26  N   UNL     1      -0.421  16.847  18.925  0.00  0.00    +0.000 N 
ATOM     27  C   UNL     1      -0.281  15.684  19.637  0.00  0.00    +0.000 A 
ATOM     28  C   UNL     1      -1.420  15.074  20.369  0.00  0.00    +0.000 C 
ATOM     29  C   UNL     1       1.040  15.277  19.509  0.00  0.00    +0.000 A 
ATOM     30  H   UNL     1      -1.272  17.391  18.862  0.00  0.00    +0.000 HD
BRANCH  23  31
ATOM     31  C   UNL     1       3.043  16.150  18.071  0.00  0.00    +0.000 C 
ATOM     32  O   UNL     1       3.408  15.419  17.159  0.00  0.00    +0.000 OA
BRANCH  31  33
ATOM     33  O   UNL     1       3.857  16.971  18.801  0.00  0.00    +0.000 OA
BRANCH  33  35
ATOM     34  C   UNL     1       4.482  16.892  21.132  0.00  0.00    +0.000 C 
ATOM     35  C   UNL     1       4.737  16.346  19.742  0.00  0.00    +0.000 C 
ENDBRANCH  33  35
ENDBRANCH  31  33
ENDBRANCH  23  31
ENDBRANCH  20  29
ENDBRANCH   1  20
TORSDOF 9
ENDMDL
MODEL 9
REMARK VINA RESULT:      -7.2      5.389      9.729
REMARK  Name = 
REMARK  13 active torsions:
REMARK  status: ('A' for Active; 'I' for Inactive)
REMARK    1  A    between atoms: C_1  and  C_2
REMARK    2  A    between atoms: C_2  and  O_3
REMARK    3  A    between atoms: O_3  and  C_4
REMARK    4  A    between atoms: C_4  and  C_6
REMARK    5  A    between atoms: C_7  and  C_8
REMARK    6  A    between atoms: C_10  and  C_11
REMARK    7  A    between atoms: C_12  and  S_13
REMARK    8  A    between atoms: S_13  and  N_16
REMARK    9  A    between atoms: C_19  and  C_20
REMARK   10  A    between atoms: N_22  and  C_23
REMARK   11  A    between atoms: C_23  and  C_24
REMARK   12  A    between atoms: C_28  and  O_29
REMARK   13  A    between atoms: O_29  and  C_30
REMARK                            x       y       z     vdW  Elec       q    Type
REMARK                         _______ _______ _______ _____ _____    ______ ____
ROOT
ATOM      1  N   UNL     1       0.635  12.571  20.025  0.00  0.00    +0.000 NA
ATOM      2  C   UNL     1       0.333  12.255  18.597  0.00  0.00    +0.000 C 
ATOM      3  C   UNL     1      -0.454  10.962  18.430  0.00  0.00    +0.000 C 
ATOM      4  C   UNL     1       0.257   9.793  19.116  0.00  0.00    +0.000 C 
ATOM      5  C   UNL     1       0.341  10.124  20.599  0.00  0.00    +0.000 C 
ATOM      6  C   UNL     1       1.067  11.431  20.879  0.00  0.00    +0.000 C 
ENDROOT
BRANCH   4   7
ATOM      7  C   UNL     1       1.552   9.443  18.359  0.00  0.00    +0.000 C 
ATOM      8  O   UNL     1       2.096  10.294  17.654  0.00  0.00    +0.000 OA
ATOM      9  N   UNL     1       2.044   8.165  18.468  0.00  0.00    +0.000 N 
ATOM     10  H   UNL     1       1.517   7.447  18.937  0.00  0.00    +0.000 HD
BRANCH   9  11
ATOM     11  C   UNL     1       3.246   7.726  17.772  0.00  0.00    +0.000 C 
BRANCH  11  12
ATOM     12  C   UNL     1       3.471   6.227  17.763  0.00  0.00    +0.000 A 
ATOM     13  C   UNL     1       4.440   5.607  16.967  0.00  0.00    +0.000 A 
ATOM     14  C   UNL     1       4.599   4.220  16.980  0.00  0.00    +0.000 A 
ATOM     15  C   UNL     1       3.807   3.435  17.813  0.00  0.00    +0.000 A 
ATOM     16  C   UNL     1       2.865   4.026  18.654  0.00  0.00    +0.000 A 
ATOM     17  C   UNL     1       2.708   5.416  18.634  0.00  0.00    +0.000 A 
BRANCH  16  18
ATOM     18  O   UNL     1       2.166   3.138  19.424  0.00  0.00    +0.000 OA
ATOM     19  C   UNL     1       0.943   3.583  19.992  0.00  0.00    +0.000 C 
ENDBRANCH  16  18
ENDBRANCH  11  12
ENDBRANCH   9  11
ENDBRANCH   4   7
BRANCH   1  20
ATOM     20  S   UNL     1       1.788  13.874  20.161  0.00  0.00    +0.000 S 
ATOM     21  O   UNL     1       2.929  13.515  19.354  0.00  0.00    +0.000 OA
ATOM     22  O   UNL     1       1.919  14.200  21.567  0.00  0.00    +0.000 OA
BRANCH  20  29
ATOM     23  C   UNL     1       1.745  16.211  18.553  0.00  0.00    +0.000 A 
ATOM     24  C   UNL     1       0.792  17.181  18.245  0.00  0.00    +0.000 A 
ATOM     25  C   UNL     1       0.868  18.387  17.376  0.00  0.00    +0.000 C 
ATOM     26  N   UNL     1      -0.367  16.867  18.905  0.00  0.00    +0.000 N 
ATOM     27  C   UNL     1      -0.212  15.696  19.599  0.00  0.00    +0.000 A 
ATOM     28  C   UNL     1      -1.338  15.072  20.340  0.00  0.00    +0.000 C 
ATOM     29  C   UNL     1       1.108  15.297  19.447  0.00  0.00    +0.000 A 
ATOM     30  H   UNL     1      -1.222  17.408  18.860  0.00  0.00    +0.000 HD
BRANCH  23  31
ATOM     31  C   UNL     1       3.087  16.197  17.992  0.00  0.00    +0.000 C 
ATOM     32  O   UNL     1       3.467  15.418  17.128  0.00  0.00    +0.000 OA
BRANCH  31  33
ATOM     33  O   UNL     1       3.878  17.099  18.648  0.00  0.00    +0.000 OA
BRANCH  33  35
ATOM     34  C   UNL     1       4.975  17.838  20.669  0.00  0.00    +0.000 C 
ATOM     35  C   UNL     1       4.525  16.649  19.844  0.00  0.00    +0.000 C 
ENDBRANCH  33  35
ENDBRANCH  31  33
ENDBRANCH  23  31
ENDBRANCH  20  29
ENDBRANCH   1  20
TORSDOF 9
ENDMDL
