MODEL 1
REMARK VINA RESULT:      -6.9      0.000      0.000
REMARK  Name = 
REMARK  4 active torsions:
REMARK  status: ('A' for Active; 'I' for Inactive)
REMARK    1  A    between atoms: C_1  and  C_2
REMARK    2  A    between atoms: C_3  and  C_4
REMARK    3  A    between atoms: C_15  and  O_16
REMARK    4  A    between atoms: C_18  and  O_19
REMARK                            x       y       z     vdW  Elec       q    Type
REMARK                         _______ _______ _______ _____ _____    ______ ____
ROOT
ATOM      1  C   UNL     1       5.927   5.083  19.282  0.00  0.00    +0.000 C 
ATOM      2  C   UNL     1       5.196   4.542  18.073  0.00  0.00    +0.000 A 
ATOM      3  C   UNL     1       3.986   3.940  18.158  0.00  0.00    +0.000 A 
ATOM      4  C   UNL     1       3.300   3.374  16.962  0.00  0.00    +0.000 A 
ATOM      5  O   UNL     1       2.209   2.817  17.027  0.00  0.00    +0.000 OA
ATOM      6  O   UNL     1       3.957   3.498  15.750  0.00  0.00    +0.000 OA
ATOM      7  C   UNL     1       5.197   4.148  15.633  0.00  0.00    +0.000 A 
ATOM      8  C   UNL     1       5.711   4.215  14.333  0.00  0.00    +0.000 A 
ATOM      9  C   UNL     1       6.924   4.847  14.127  0.00  0.00    +0.000 A 
ATOM     10  C   UNL     1       7.614   5.407  15.192  0.00  0.00    +0.000 A 
ATOM     11  C   UNL     1       7.082   5.329  16.486  0.00  0.00    +0.000 A 
ATOM     12  C   UNL     1       5.852   4.688  16.746  0.00  0.00    +0.000 A 
ENDROOT
BRANCH   3  13
ATOM     13  C   UNL     1       3.292   3.823  19.459  0.00  0.00    +0.000 A 
ATOM     14  C   UNL     1       3.466   2.678  20.249  0.00  0.00    +0.000 A 
ATOM     15  C   UNL     1       2.740   2.523  21.432  0.00  0.00    +0.000 A 
ATOM     16  C   UNL     1       1.843   3.510  21.836  0.00  0.00    +0.000 A 
ATOM     17  C   UNL     1       1.680   4.662  21.066  0.00  0.00    +0.000 A 
ATOM     18  C   UNL     1       2.404   4.821  19.882  0.00  0.00    +0.000 A 
ENDBRANCH   3  13
BRANCH   9  19
ATOM     19  O   UNL     1       7.482   4.950  12.888  0.00  0.00    +0.000 OA
ATOM     20  H   UNL     1       7.982   4.140  12.698  0.00  0.00    +0.000 HD
ENDBRANCH   9  19
BRANCH  11  21
ATOM     21  O   UNL     1       7.803   5.910  17.495  0.00  0.00    +0.000 OA
ATOM     22  H   UNL     1       7.781   5.340  18.281  0.00  0.00    +0.000 HD
ENDBRANCH  11  21
TORSDOF 3
ENDMDL
MODEL 2
REMARK VINA RESULT:      -6.8      4.715      7.179
REMARK  Name = 
REMARK  4 active torsions:
REMARK  status: ('A' for Active; 'I' for Inactive)
REMARK    1  A    between atoms: C_1  and  C_2
REMARK    2  A    between atoms: C_3  and  C_4
REMARK    3  A    between atoms: C_15  and  O_16
REMARK    4  A    between atoms: C_18  and  O_19
REMARK                            x       y       z     vdW  Elec       q    Type
REMARK                         _______ _______ _______ _____ _____    ______ ____
ROOT
ATOM      1  C   UNL     1       2.591   8.252  17.438  0.00  0.00    +0.000 C 
ATOM      2  C   UNL     1       2.141   7.842  18.822  0.00  0.00    +0.000 A 
ATOM      3  C   UNL     1       2.347   6.600  19.321  0.00  0.00    +0.000 A 
ATOM      4  C   UNL     1       1.860   6.200  20.671  0.00  0.00    +0.000 A 
ATOM      5  O   UNL     1       2.031   5.075  21.130  0.00  0.00    +0.000 OA
ATOM      6  O   UNL     1       1.185   7.163  21.401  0.00  0.00    +0.000 OA
ATOM      7  C   UNL     1       0.988   8.467  20.917  0.00  0.00    +0.000 A 
ATOM      8  C   UNL     1       0.314   9.329  21.791  0.00  0.00    +0.000 A 
ATOM      9  C   UNL     1       0.087  10.635  21.398  0.00  0.00    +0.000 A 
ATOM     10  C   UNL     1       0.523  11.081  20.159  0.00  0.00    +0.000 A 
ATOM     11  C   UNL     1       1.195  10.202  19.298  0.00  0.00    +0.000 A 
ATOM     12  C   UNL     1       1.444   8.859  19.654  0.00  0.00    +0.000 A 
ENDROOT
BRANCH   3  13
ATOM     13  C   UNL     1       3.079   5.583  18.533  0.00  0.00    +0.000 A 
ATOM     14  C   UNL     1       2.373   4.642  17.772  0.00  0.00    +0.000 A 
ATOM     15  C   UNL     1       3.055   3.623  17.103  0.00  0.00    +0.000 A 
ATOM     16  C   UNL     1       4.444   3.543  17.184  0.00  0.00    +0.000 A 
ATOM     17  C   UNL     1       5.155   4.489  17.922  0.00  0.00    +0.000 A 
ATOM     18  C   UNL     1       4.476   5.509  18.593  0.00  0.00    +0.000 A 
ENDBRANCH   3  13
BRANCH   9  19
ATOM     19  O   UNL     1      -0.561  11.527  22.199  0.00  0.00    +0.000 OA
ATOM     20  H   UNL     1      -0.382  11.307  23.127  0.00  0.00    +0.000 HD
ENDBRANCH   9  19
BRANCH  11  21
ATOM     21  O   UNL     1       1.612  10.704  18.094  0.00  0.00    +0.000 OA
ATOM     22  H   UNL     1       1.071  10.329  17.380  0.00  0.00    +0.000 HD
ENDBRANCH  11  21
TORSDOF 3
ENDMDL
MODEL 3
REMARK VINA RESULT:      -6.8      4.654      7.109
REMARK  Name = 
REMARK  4 active torsions:
REMARK  status: ('A' for Active; 'I' for Inactive)
REMARK    1  A    between atoms: C_1  and  C_2
REMARK    2  A    between atoms: C_3  and  C_4
REMARK    3  A    between atoms: C_15  and  O_16
REMARK    4  A    between atoms: C_18  and  O_19
REMARK                            x       y       z     vdW  Elec       q    Type
REMARK                         _______ _______ _______ _____ _____    ______ ____
ROOT
ATOM      1  C   UNL     1       2.737   8.143  17.429  0.00  0.00    +0.000 C 
ATOM      2  C   UNL     1       2.228   7.755  18.801  0.00  0.00    +0.000 A 
ATOM      3  C   UNL     1       2.420   6.524  19.332  0.00  0.00    +0.000 A 
ATOM      4  C   UNL     1       1.875   6.146  20.666  0.00  0.00    +0.000 A 
ATOM      5  O   UNL     1       2.033   5.032  21.153  0.00  0.00    +0.000 OA
ATOM      6  O   UNL     1       1.163   7.118  21.347  0.00  0.00    +0.000 OA
ATOM      7  C   UNL     1       0.979   8.411  20.830  0.00  0.00    +0.000 A 
ATOM      8  C   UNL     1       0.262   9.284  21.657  0.00  0.00    +0.000 A 
ATOM      9  C   UNL     1       0.044  10.581  21.229  0.00  0.00    +0.000 A 
ATOM     10  C   UNL     1       0.532  11.007  20.003  0.00  0.00    +0.000 A 
ATOM     11  C   UNL     1       1.247  10.117  19.189  0.00  0.00    +0.000 A 
ATOM     12  C   UNL     1       1.488   8.783  19.581  0.00  0.00    +0.000 A 
ENDROOT
BRANCH   3  13
ATOM     13  C   UNL     1       3.192   5.498  18.596  0.00  0.00    +0.000 A 
ATOM     14  C   UNL     1       4.591   5.481  18.673  0.00  0.00    +0.000 A 
ATOM     15  C   UNL     1       5.327   4.574  17.907  0.00  0.00    +0.000 A 
ATOM     16  C   UNL     1       4.672   3.678  17.066  0.00  0.00    +0.000 A 
ATOM     17  C   UNL     1       3.278   3.674  16.999  0.00  0.00    +0.000 A 
ATOM     18  C   UNL     1       2.539   4.580  17.764  0.00  0.00    +0.000 A 
ENDBRANCH   3  13
BRANCH   9  19
ATOM     19  O   UNL     1      -0.644  11.483  21.984  0.00  0.00    +0.000 OA
ATOM     20  H   UNL     1      -1.462  11.069  22.304  0.00  0.00    +0.000 HD
ENDBRANCH   9  19
BRANCH  11  21
ATOM     21  O   UNL     1       1.714  10.599  17.995  0.00  0.00    +0.000 OA
ATOM     22  H   UNL     1       1.204  10.210  17.265  0.00  0.00    +0.000 HD
ENDBRANCH  11  21
TORSDOF 3
ENDMDL
MODEL 4
REMARK VINA RESULT:      -6.6      0.150      1.091
REMARK  Name = 
REMARK  4 active torsions:
REMARK  status: ('A' for Active; 'I' for Inactive)
REMARK    1  A    between atoms: C_1  and  C_2
REMARK    2  A    between atoms: C_3  and  C_4
REMARK    3  A    between atoms: C_15  and  O_16
REMARK    4  A    between atoms: C_18  and  O_19
REMARK                            x       y       z     vdW  Elec       q    Type
REMARK                         _______ _______ _______ _____ _____    ______ ____
ROOT
ATOM      1  C   UNL     1       5.855   5.044  19.371  0.00  0.00    +0.000 C 
ATOM      2  C   UNL     1       5.162   4.558  18.117  0.00  0.00    +0.000 A 
ATOM      3  C   UNL     1       3.950   3.954  18.138  0.00  0.00    +0.000 A 
ATOM      4  C   UNL     1       3.302   3.442  16.897  0.00  0.00    +0.000 A 
ATOM      5  O   UNL     1       2.209   2.884  16.904  0.00  0.00    +0.000 OA
ATOM      6  O   UNL     1       3.996   3.618  15.713  0.00  0.00    +0.000 OA
ATOM      7  C   UNL     1       5.239   4.271  15.664  0.00  0.00    +0.000 A 
ATOM      8  C   UNL     1       5.793   4.395  14.384  0.00  0.00    +0.000 A 
ATOM      9  C   UNL     1       7.012   5.034  14.243  0.00  0.00    +0.000 A 
ATOM     10  C   UNL     1       7.668   5.545  15.353  0.00  0.00    +0.000 A 
ATOM     11  C   UNL     1       7.096   5.411  16.626  0.00  0.00    +0.000 A 
ATOM     12  C   UNL     1       5.859   4.760  16.818  0.00  0.00    +0.000 A 
ENDROOT
BRANCH   3  13
ATOM     13  C   UNL     1       3.216   3.781  19.410  0.00  0.00    +0.000 A 
ATOM     14  C   UNL     1       2.382   4.803  19.886  0.00  0.00    +0.000 A 
ATOM     15  C   UNL     1       1.762   4.682  21.132  0.00  0.00    +0.000 A 
ATOM     16  C   UNL     1       1.964   3.541  21.905  0.00  0.00    +0.000 A 
ATOM     17  C   UNL     1       2.776   2.510  21.429  0.00  0.00    +0.000 A 
ATOM     18  C   UNL     1       3.398   2.627  20.184  0.00  0.00    +0.000 A 
ENDBRANCH   3  13
BRANCH   9  19
ATOM     19  O   UNL     1       7.608   5.190  13.028  0.00  0.00    +0.000 OA
ATOM     20  H   UNL     1       7.154   4.629  12.378  0.00  0.00    +0.000 HD
ENDBRANCH   9  19
BRANCH  11  21
ATOM     21  O   UNL     1       7.786   5.946  17.681  0.00  0.00    +0.000 OA
ATOM     22  H   UNL     1       7.441   6.833  17.879  0.00  0.00    +0.000 HD
ENDBRANCH  11  21
TORSDOF 3
ENDMDL
MODEL 5
REMARK VINA RESULT:      -6.4      2.099      6.509
REMARK  Name = 
REMARK  4 active torsions:
REMARK  status: ('A' for Active; 'I' for Inactive)
REMARK    1  A    between atoms: C_1  and  C_2
REMARK    2  A    between atoms: C_3  and  C_4
REMARK    3  A    between atoms: C_15  and  O_16
REMARK    4  A    between atoms: C_18  and  O_19
REMARK                            x       y       z     vdW  Elec       q    Type
REMARK                         _______ _______ _______ _____ _____    ______ ____
ROOT
ATOM      1  C   UNL     1       5.342   2.440  16.325  0.00  0.00    +0.000 C 
ATOM      2  C   UNL     1       4.971   3.889  16.555  0.00  0.00    +0.000 A 
ATOM      3  C   UNL     1       5.266   4.870  15.669  0.00  0.00    +0.000 A 
ATOM      4  C   UNL     1       4.931   6.298  15.932  0.00  0.00    +0.000 A 
ATOM      5  O   UNL     1       5.202   7.197  15.142  0.00  0.00    +0.000 OA
ATOM      6  O   UNL     1       4.295   6.579  17.128  0.00  0.00    +0.000 OA
ATOM      7  C   UNL     1       3.951   5.574  18.048  0.00  0.00    +0.000 A 
ATOM      8  C   UNL     1       3.285   6.022  19.194  0.00  0.00    +0.000 A 
ATOM      9  C   UNL     1       2.900   5.097  20.147  0.00  0.00    +0.000 A 
ATOM     10  C   UNL     1       3.168   3.748  19.964  0.00  0.00    +0.000 A 
ATOM     11  C   UNL     1       3.837   3.320  18.809  0.00  0.00    +0.000 A 
ATOM     12  C   UNL     1       4.255   4.229  17.814  0.00  0.00    +0.000 A 
ENDROOT
BRANCH   3  13
ATOM     13  C   UNL     1       5.937   4.553  14.389  0.00  0.00    +0.000 A 
ATOM     14  C   UNL     1       7.206   5.080  14.111  0.00  0.00    +0.000 A 
ATOM     15  C   UNL     1       7.802   4.860  12.867  0.00  0.00    +0.000 A 
ATOM     16  C   UNL     1       7.139   4.109  11.898  0.00  0.00    +0.000 A 
ATOM     17  C   UNL     1       5.885   3.563  12.175  0.00  0.00    +0.000 A 
ATOM     18  C   UNL     1       5.286   3.781  13.418  0.00  0.00    +0.000 A 
ENDBRANCH   3  13
BRANCH   9  19
ATOM     19  O   UNL     1       2.247   5.463  21.286  0.00  0.00    +0.000 OA
ATOM     20  H   UNL     1       1.617   6.171  21.076  0.00  0.00    +0.000 HD
ENDBRANCH   9  19
BRANCH  11  21
ATOM     21  O   UNL     1       4.063   1.975  18.679  0.00  0.00    +0.000 OA
ATOM     22  H   UNL     1       4.945   1.828  18.302  0.00  0.00    +0.000 HD
ENDBRANCH  11  21
TORSDOF 3
ENDMDL
MODEL 6
REMARK VINA RESULT:      -6.4      4.762      6.377
REMARK  Name = 
REMARK  4 active torsions:
REMARK  status: ('A' for Active; 'I' for Inactive)
REMARK    1  A    between atoms: C_1  and  C_2
REMARK    2  A    between atoms: C_3  and  C_4
REMARK    3  A    between atoms: C_15  and  O_16
REMARK    4  A    between atoms: C_18  and  O_19
REMARK                            x       y       z     vdW  Elec       q    Type
REMARK                         _______ _______ _______ _____ _____    ______ ____
ROOT
ATOM      1  C   UNL     1       0.976   7.455  21.273  0.00  0.00    +0.000 C 
ATOM      2  C   UNL     1       1.694   7.712  19.966  0.00  0.00    +0.000 A 
ATOM      3  C   UNL     1       1.538   8.856  19.258  0.00  0.00    +0.000 A 
ATOM      4  C   UNL     1       2.219   9.075  17.951  0.00  0.00    +0.000 A 
ATOM      5  O   UNL     1       2.078  10.102  17.296  0.00  0.00    +0.000 OA
ATOM      6  O   UNL     1       3.029   8.051  17.491  0.00  0.00    +0.000 OA
ATOM      7  C   UNL     1       3.231   6.869  18.224  0.00  0.00    +0.000 A 
ATOM      8  C   UNL     1       4.103   5.947  17.634  0.00  0.00    +0.000 A 
ATOM      9  C   UNL     1       4.366   4.760  18.294  0.00  0.00    +0.000 A 
ATOM     10  C   UNL     1       3.776   4.494  19.520  0.00  0.00    +0.000 A 
ATOM     11  C   UNL     1       2.905   5.430  20.094  0.00  0.00    +0.000 A 
ATOM     12  C   UNL     1       2.602   6.651  19.454  0.00  0.00    +0.000 A 
ENDROOT
BRANCH   3  13
ATOM     13  C   UNL     1       0.677   9.946  19.767  0.00  0.00    +0.000 A 
ATOM     14  C   UNL     1      -0.613  10.125  19.247  0.00  0.00    +0.000 A 
ATOM     15  C   UNL     1      -1.393  11.208  19.657  0.00  0.00    +0.000 A 
ATOM     16  C   UNL     1      -0.895  12.114  20.591  0.00  0.00    +0.000 A 
ATOM     17  C   UNL     1       0.380  11.931  21.129  0.00  0.00    +0.000 A 
ATOM     18  C   UNL     1       1.163  10.849  20.721  0.00  0.00    +0.000 A 
ENDBRANCH   3  13
BRANCH   9  19
ATOM     19  O   UNL     1       5.206   3.819  17.778  0.00  0.00    +0.000 OA
ATOM     20  H   UNL     1       5.793   3.499  18.481  0.00  0.00    +0.000 HD
ENDBRANCH   9  19
BRANCH  11  21
ATOM     21  O   UNL     1       2.363   5.116  21.312  0.00  0.00    +0.000 OA
ATOM     22  H   UNL     1       2.401   5.892  21.895  0.00  0.00    +0.000 HD
ENDBRANCH  11  21
TORSDOF 3
ENDMDL
MODEL 7
REMARK VINA RESULT:      -6.4      3.769      6.575
REMARK  Name = 
REMARK  4 active torsions:
REMARK  status: ('A' for Active; 'I' for Inactive)
REMARK    1  A    between atoms: C_1  and  C_2
REMARK    2  A    between atoms: C_3  and  C_4
REMARK    3  A    between atoms: C_15  and  O_16
REMARK    4  A    between atoms: C_18  and  O_19
REMARK                            x       y       z     vdW  Elec       q    Type
REMARK                         _______ _______ _______ _____ _____    ______ ____
ROOT
ATOM      1  C   UNL     1       3.700   7.786  16.681  0.00  0.00    +0.000 C 
ATOM      2  C   UNL     1       3.326   7.137  17.996  0.00  0.00    +0.000 A 
ATOM      3  C   UNL     1       3.849   5.957  18.406  0.00  0.00    +0.000 A 
ATOM      4  C   UNL     1       3.438   5.312  19.684  0.00  0.00    +0.000 A 
ATOM      5  O   UNL     1       3.896   4.238  20.060  0.00  0.00    +0.000 OA
ATOM      6  O   UNL     1       2.493   5.980  20.443  0.00  0.00    +0.000 OA
ATOM      7  C   UNL     1       1.960   7.220  20.054  0.00  0.00    +0.000 A 
ATOM      8  C   UNL     1       1.039   7.777  20.950  0.00  0.00    +0.000 A 
ATOM      9  C   UNL     1       0.474   9.003  20.649  0.00  0.00    +0.000 A 
ATOM     10  C   UNL     1       0.818   9.667  19.481  0.00  0.00    +0.000 A 
ATOM     11  C   UNL     1       1.743   9.093  18.598  0.00  0.00    +0.000 A 
ATOM     12  C   UNL     1       2.340   7.841  18.860  0.00  0.00    +0.000 A 
ENDROOT
BRANCH   3  13
ATOM     13  C   UNL     1       4.866   5.259  17.588  0.00  0.00    +0.000 A 
ATOM     14  C   UNL     1       6.230   5.501  17.803  0.00  0.00    +0.000 A 
ATOM     15  C   UNL     1       7.188   4.917  16.972  0.00  0.00    +0.000 A 
ATOM     16  C   UNL     1       6.792   4.085  15.926  0.00  0.00    +0.000 A 
ATOM     17  C   UNL     1       5.437   3.822  15.719  0.00  0.00    +0.000 A 
ATOM     18  C   UNL     1       4.476   4.405  16.548  0.00  0.00    +0.000 A 
ENDBRANCH   3  13
BRANCH   9  19
ATOM     19  O   UNL     1      -0.428   9.603  21.475  0.00  0.00    +0.000 OA
ATOM     20  H   UNL     1      -0.720   8.962  22.144  0.00  0.00    +0.000 HD
ENDBRANCH   9  19
BRANCH  11  21
ATOM     21  O   UNL     1       2.053   9.802  17.468  0.00  0.00    +0.000 OA
ATOM     22  H   UNL     1       2.231   9.188  16.737  0.00  0.00    +0.000 HD
ENDBRANCH  11  21
TORSDOF 3
ENDMDL
MODEL 8
REMARK VINA RESULT:      -6.4      2.105      6.490
REMARK  Name = 
REMARK  4 active torsions:
REMARK  status: ('A' for Active; 'I' for Inactive)
REMARK    1  A    between atoms: C_1  and  C_2
REMARK    2  A    between atoms: C_3  and  C_4
REMARK    3  A    between atoms: C_15  and  O_16
REMARK    4  A    between atoms: C_18  and  O_19
REMARK                            x       y       z     vdW  Elec       q    Type
REMARK                         _______ _______ _______ _____ _____    ______ ____
ROOT
ATOM      1  C   UNL     1       5.339   2.472  16.260  0.00  0.00    +0.000 C 
ATOM      2  C   UNL     1       4.962   3.912  16.527  0.00  0.00    +0.000 A 
ATOM      3  C   UNL     1       5.228   4.913  15.654  0.00  0.00    +0.000 A 
ATOM      4  C   UNL     1       4.887   6.332  15.951  0.00  0.00    +0.000 A 
ATOM      5  O   UNL     1       5.132   7.248  15.173  0.00  0.00    +0.000 OA
ATOM      6  O   UNL     1       4.276   6.585  17.167  0.00  0.00    +0.000 OA
ATOM      7  C   UNL     1       3.961   5.560  18.074  0.00  0.00    +0.000 A 
ATOM      8  C   UNL     1       3.317   5.980  19.244  0.00  0.00    +0.000 A 
ATOM      9  C   UNL     1       2.962   5.033  20.187  0.00  0.00    +0.000 A 
ATOM     10  C   UNL     1       3.238   3.691  19.973  0.00  0.00    +0.000 A 
ATOM     11  C   UNL     1       3.883   3.290  18.795  0.00  0.00    +0.000 A 
ATOM     12  C   UNL     1       4.271   4.222  17.808  0.00  0.00    +0.000 A 
ENDROOT
BRANCH   3  13
ATOM     13  C   UNL     1       5.872   4.626  14.353  0.00  0.00    +0.000 A 
ATOM     14  C   UNL     1       5.217   3.831  13.403  0.00  0.00    +0.000 A 
ATOM     15  C   UNL     1       5.860   3.481  12.214  0.00  0.00    +0.000 A 
ATOM     16  C   UNL     1       7.157   3.926  11.964  0.00  0.00    +0.000 A 
ATOM     17  C   UNL     1       7.808   4.735  12.896  0.00  0.00    +0.000 A 
ATOM     18  C   UNL     1       7.168   5.087  14.086  0.00  0.00    +0.000 A 
ENDBRANCH   3  13
BRANCH   9  19
ATOM     19  O   UNL     1       2.332   5.371  21.347  0.00  0.00    +0.000 OA
ATOM     20  H   UNL     1       2.975   5.783  21.948  0.00  0.00    +0.000 HD
ENDBRANCH   9  19
BRANCH  11  21
ATOM     21  O   UNL     1       4.118   1.950  18.634  0.00  0.00    +0.000 OA
ATOM     22  H   UNL     1       3.298   1.455  18.795  0.00  0.00    +0.000 HD
ENDBRANCH  11  21
TORSDOF 3
ENDMDL
MODEL 9
REMARK VINA RESULT:      -6.4      4.073      5.964
REMARK  Name = 
REMARK  4 active torsions:
REMARK  status: ('A' for Active; 'I' for Inactive)
REMARK    1  A    between atoms: C_1  and  C_2
REMARK    2  A    between atoms: C_3  and  C_4
REMARK    3  A    between atoms: C_15  and  O_16
REMARK    4  A    between atoms: C_18  and  O_19
REMARK                            x       y       z     vdW  Elec       q    Type
REMARK                         _______ _______ _______ _____ _____    ______ ____
ROOT
ATOM      1  C   UNL     1       1.627   5.753  20.640  0.00  0.00    +0.000 C 
ATOM      2  C   UNL     1       2.206   6.503  19.461  0.00  0.00    +0.000 A 
ATOM      3  C   UNL     1       2.998   5.913  18.535  0.00  0.00    +0.000 A 
ATOM      4  C   UNL     1       3.594   6.677  17.403  0.00  0.00    +0.000 A 
ATOM      5  O   UNL     1       4.321   6.156  16.564  0.00  0.00    +0.000 OA
ATOM      6  O   UNL     1       3.296   8.027  17.337  0.00  0.00    +0.000 OA
ATOM      7  C   UNL     1       2.451   8.654  18.267  0.00  0.00    +0.000 A 
ATOM      8  C   UNL     1       2.227  10.017  18.041  0.00  0.00    +0.000 A 
ATOM      9  C   UNL     1       1.398  10.710  18.905  0.00  0.00    +0.000 A 
ATOM     10  C   UNL     1       0.799  10.061  19.974  0.00  0.00    +0.000 A 
ATOM     11  C   UNL     1       1.037   8.695  20.184  0.00  0.00    +0.000 A 
ATOM     12  C   UNL     1       1.880   7.949  19.333  0.00  0.00    +0.000 A 
ENDROOT
BRANCH   3  13
ATOM     13  C   UNL     1       3.300   4.467  18.613  0.00  0.00    +0.000 A 
ATOM     14  C   UNL     1       2.530   3.547  17.888  0.00  0.00    +0.000 A 
ATOM     15  C   UNL     1       2.751   2.175  18.033  0.00  0.00    +0.000 A 
ATOM     16  C   UNL     1       3.744   1.715  18.895  0.00  0.00    +0.000 A 
ATOM     17  C   UNL     1       4.529   2.625  19.604  0.00  0.00    +0.000 A 
ATOM     18  C   UNL     1       4.310   3.998  19.462  0.00  0.00    +0.000 A 
ENDBRANCH   3  13
BRANCH   9  19
ATOM     19  O   UNL     1       1.135  12.037  18.743  0.00  0.00    +0.000 OA
ATOM     20  H   UNL     1       1.922  12.473  18.376  0.00  0.00    +0.000 HD
ENDBRANCH   9  19
BRANCH  11  21
ATOM     21  O   UNL     1       0.408   8.107  21.249  0.00  0.00    +0.000 OA
ATOM     22  H   UNL     1       0.096   8.793  21.863  0.00  0.00    +0.000 HD
ENDBRANCH  11  21
TORSDOF 3
ENDMDL
