MODEL 1
REMARK VINA RESULT:      -8.2      0.000      0.000
REMARK  Name = 
REMARK  7 active torsions:
REMARK  status: ('A' for Active; 'I' for Inactive)
REMARK    1  A    between atoms: C_1  and  C_2
REMARK    2  A    between atoms: C_2  and  C_3
REMARK    3  A    between atoms: C_6  and  C_7
REMARK    4  A    between atoms: C_11  and  C_12
REMARK    5  A    between atoms: C_12  and  O_13
REMARK    6  A    between atoms: C_12  and  C_14
REMARK    7  A    between atoms: C_12  and  C_21
REMARK                            x       y       z     vdW  Elec       q    Type
REMARK                         _______ _______ _______ _____ _____    ______ ____
ROOT
ATOM      1  C   UNL     1       0.944  10.571  18.695  0.00  0.00    +0.000 C 
ENDROOT
BRANCH   1   2
ATOM      2  C   UNL     1      -0.586  10.648  18.414  0.00  0.00    +0.000 A 
ATOM      3  C   UNL     1      -1.201   9.798  17.469  0.00  0.00    +0.000 A 
ATOM      4  C   UNL     1      -2.548   9.949  17.125  0.00  0.00    +0.000 A 
ATOM      5  C   UNL     1      -3.308  10.951  17.718  0.00  0.00    +0.000 A 
ATOM      6 CL   UNL     1      -4.952  11.166  17.264  0.00  0.00    +0.000 Cl
ATOM      7  C   UNL     1      -2.736  11.793  18.665  0.00  0.00    +0.000 A 
ATOM      8  C   UNL     1      -1.388  11.645  19.008  0.00  0.00    +0.000 A 
ENDBRANCH   1   2
BRANCH   1  13
ATOM      9  C   UNL     1       2.207   7.037  19.703  0.00  0.00    +0.000 A 
ATOM     10  C   UNL     1       1.592   6.859  20.943  0.00  0.00    +0.000 A 
ATOM     11  C   UNL     1       0.798   7.872  21.468  0.00  0.00    +0.000 A 
ATOM     12  C   UNL     1       0.598   9.050  20.742  0.00  0.00    +0.000 A 
ATOM     13  C   UNL     1       1.224   9.271  19.494  0.00  0.00    +0.000 A 
ATOM     14  C   UNL     1       2.059   8.249  19.008  0.00  0.00    +0.000 A 
BRANCH   9  20
ATOM     15  C   UNL     1       2.942   3.087  17.370  0.00  0.00    +0.000 C 
ATOM     16  C   UNL     1       3.688   4.372  17.725  0.00  0.00    +0.000 C 
ATOM     17  C   UNL     1       4.650   4.769  16.608  0.00  0.00    +0.000 C 
ATOM     18  C   UNL     1       4.391   4.276  19.075  0.00  0.00    +0.000 C 
ATOM     19  O   UNL     1       3.951   5.420  19.799  0.00  0.00    +0.000 OA
ATOM     20  C   UNL     1       2.955   5.947  19.055  0.00  0.00    +0.000 C 
ATOM     21  N   UNL     1       2.691   5.449  17.890  0.00  0.00    +0.000 NA
ENDBRANCH   9  20
ENDBRANCH   1  13
BRANCH   1  22
ATOM     22  C   UNL     1       1.512  11.838  19.324  0.00  0.00    +0.000 A 
ATOM     23  C   UNL     1       1.426  12.167  20.665  0.00  0.00    +0.000 A 
ATOM     24  N   UNL     1       1.872  13.325  21.200  0.00  0.00    +0.000 NA
ATOM     25  C   UNL     1       2.468  14.168  20.349  0.00  0.00    +0.000 A 
ATOM     26  N   UNL     1       2.667  13.952  19.043  0.00  0.00    +0.000 NA
ATOM     27  C   UNL     1       2.195  12.778  18.567  0.00  0.00    +0.000 A 
ENDBRANCH   1  22
BRANCH   1  28
ATOM     28  O   UNL     1       1.607  10.539  17.419  0.00  0.00    +0.000 OA
ATOM     29  H   UNL     1       2.421  10.027  17.513  0.00  0.00    +0.000 HD
ENDBRANCH   1  28
TORSDOF 5
ENDMDL
MODEL 2
REMARK VINA RESULT:      -8.1      0.750      1.468
REMARK  Name = 
REMARK  7 active torsions:
REMARK  status: ('A' for Active; 'I' for Inactive)
REMARK    1  A    between atoms: C_1  and  C_2
REMARK    2  A    between atoms: C_2  and  C_3
REMARK    3  A    between atoms: C_6  and  C_7
REMARK    4  A    between atoms: C_11  and  C_12
REMARK    5  A    between atoms: C_12  and  O_13
REMARK    6  A    between atoms: C_12  and  C_14
REMARK    7  A    between atoms: C_12  and  C_21
REMARK                            x       y       z     vdW  Elec       q    Type
REMARK                         _______ _______ _______ _____ _____    ______ ____
ROOT
ATOM      1  C   UNL     1       0.941  10.551  18.646  0.00  0.00    +0.000 C 
ENDROOT
BRANCH   1   2
ATOM      2  C   UNL     1      -0.590  10.642  18.371  0.00  0.00    +0.000 A 
ATOM      3  C   UNL     1      -1.224   9.771  17.459  0.00  0.00    +0.000 A 
ATOM      4  C   UNL     1      -2.571   9.931  17.118  0.00  0.00    +0.000 A 
ATOM      5  C   UNL     1      -3.311  10.964  17.682  0.00  0.00    +0.000 A 
ATOM      6 CL   UNL     1      -4.955  11.190  17.230  0.00  0.00    +0.000 Cl
ATOM      7  C   UNL     1      -2.720  11.829  18.597  0.00  0.00    +0.000 A 
ATOM      8  C   UNL     1      -1.372  11.671  18.936  0.00  0.00    +0.000 A 
ENDBRANCH   1   2
BRANCH   1  13
ATOM      9  C   UNL     1       2.206   7.052  19.768  0.00  0.00    +0.000 A 
ATOM     10  C   UNL     1       1.550   6.892  20.989  0.00  0.00    +0.000 A 
ATOM     11  C   UNL     1       0.728   7.907  21.466  0.00  0.00    +0.000 A 
ATOM     12  C   UNL     1       0.541   9.067  20.710  0.00  0.00    +0.000 A 
ATOM     13  C   UNL     1       1.207   9.270  19.480  0.00  0.00    +0.000 A 
ATOM     14  C   UNL     1       2.069   8.248  19.044  0.00  0.00    +0.000 A 
BRANCH   9  20
ATOM     15  C   UNL     1       5.933   4.681  18.332  0.00  0.00    +0.000 C 
ATOM     16  C   UNL     1       4.469   4.425  18.683  0.00  0.00    +0.000 C 
ATOM     17  C   UNL     1       4.292   3.037  19.296  0.00  0.00    +0.000 C 
ATOM     18  C   UNL     1       3.544   4.642  17.490  0.00  0.00    +0.000 C 
ATOM     19  O   UNL     1       2.545   5.540  17.961  0.00  0.00    +0.000 OA
ATOM     20  C   UNL     1       2.986   5.957  19.168  0.00  0.00    +0.000 C 
ATOM     21  N   UNL     1       4.054   5.433  19.678  0.00  0.00    +0.000 NA
ENDBRANCH   9  20
ENDBRANCH   1  13
BRANCH   1  22
ATOM     22  C   UNL     1       1.531  11.826  19.235  0.00  0.00    +0.000 A 
ATOM     23  C   UNL     1       2.228  12.785  18.521  0.00  0.00    +0.000 A 
ATOM     24  N   UNL     1       2.806  13.877  19.066  0.00  0.00    +0.000 NA
ATOM     25  C   UNL     1       2.636  14.029  20.384  0.00  0.00    +0.000 A 
ATOM     26  N   UNL     1       1.941  13.212  21.184  0.00  0.00    +0.000 NA
ATOM     27  C   UNL     1       1.390  12.135  20.580  0.00  0.00    +0.000 A 
ENDBRANCH   1  22
BRANCH   1  28
ATOM     28  O   UNL     1       1.595  10.472  17.367  0.00  0.00    +0.000 OA
ATOM     29  H   UNL     1       1.904   9.565  17.240  0.00  0.00    +0.000 HD
ENDBRANCH   1  28
TORSDOF 5
ENDMDL
MODEL 3
REMARK VINA RESULT:      -8.1      4.303      7.227
REMARK  Name = 
REMARK  7 active torsions:
REMARK  status: ('A' for Active; 'I' for Inactive)
REMARK    1  A    between atoms: C_1  and  C_2
REMARK    2  A    between atoms: C_2  and  C_3
REMARK    3  A    between atoms: C_6  and  C_7
REMARK    4  A    between atoms: C_11  and  C_12
REMARK    5  A    between atoms: C_12  and  O_13
REMARK    6  A    between atoms: C_12  and  C_14
REMARK    7  A    between atoms: C_12  and  C_21
REMARK                            x       y       z     vdW  Elec       q    Type
REMARK                         _______ _______ _______ _____ _____    ______ ____
ROOT
ATOM      1  C   UNL     1       3.924   5.445  18.763  0.00  0.00    +0.000 C 
ENDROOT
BRANCH   1   2
ATOM      2  C   UNL     1       3.030   6.720  18.721  0.00  0.00    +0.000 A 
ATOM      3  C   UNL     1       3.048   7.591  17.610  0.00  0.00    +0.000 A 
ATOM      4  C   UNL     1       2.342   8.799  17.623  0.00  0.00    +0.000 A 
ATOM      5  C   UNL     1       1.604   9.159  18.745  0.00  0.00    +0.000 A 
ATOM      6 CL   UNL     1       0.772  10.664  18.779  0.00  0.00    +0.000 Cl
ATOM      7  C   UNL     1       1.552   8.315  19.848  0.00  0.00    +0.000 A 
ATOM      8  C   UNL     1       2.261   7.109  19.838  0.00  0.00    +0.000 A 
ENDBRANCH   1   2
BRANCH   1  13
ATOM      9  C   UNL     1       6.238   5.369  15.642  0.00  0.00    +0.000 A 
ATOM     10  C   UNL     1       7.396   5.971  16.133  0.00  0.00    +0.000 A 
ATOM     11  C   UNL     1       7.431   6.424  17.447  0.00  0.00    +0.000 A 
ATOM     12  C   UNL     1       6.320   6.250  18.276  0.00  0.00    +0.000 A 
ATOM     13  C   UNL     1       5.124   5.664  17.803  0.00  0.00    +0.000 A 
ATOM     14  C   UNL     1       5.099   5.257  16.457  0.00  0.00    +0.000 A 
BRANCH   9  20
ATOM     15  C   UNL     1       6.226   2.054  12.387  0.00  0.00    +0.000 C 
ATOM     16  C   UNL     1       5.823   3.519  12.542  0.00  0.00    +0.000 C 
ATOM     17  C   UNL     1       4.604   3.842  11.681  0.00  0.00    +0.000 C 
ATOM     18  C   UNL     1       6.984   4.468  12.263  0.00  0.00    +0.000 C 
ATOM     19  O   UNL     1       7.043   5.319  13.402  0.00  0.00    +0.000 OA
ATOM     20  C   UNL     1       6.197   4.767  14.299  0.00  0.00    +0.000 C 
ATOM     21  N   UNL     1       5.472   3.751  13.957  0.00  0.00    +0.000 NA
ENDBRANCH   9  20
ENDBRANCH   1  13
BRANCH   1  22
ATOM     22  C   UNL     1       3.153   4.152  18.532  0.00  0.00    +0.000 A 
ATOM     23  C   UNL     1       1.864   4.073  18.035  0.00  0.00    +0.000 A 
ATOM     24  N   UNL     1       1.164   2.926  17.899  0.00  0.00    +0.000 NA
ATOM     25  C   UNL     1       1.810   1.805  18.240  0.00  0.00    +0.000 A 
ATOM     26  N   UNL     1       3.073   1.732  18.680  0.00  0.00    +0.000 NA
ATOM     27  C   UNL     1       3.718   2.914  18.799  0.00  0.00    +0.000 A 
ENDBRANCH   1  22
BRANCH   1  28
ATOM     28  O   UNL     1       4.378   5.293  20.120  0.00  0.00    +0.000 OA
ATOM     29  H   UNL     1       5.339   5.395  20.132  0.00  0.00    +0.000 HD
ENDBRANCH   1  28
TORSDOF 5
ENDMDL
MODEL 4
REMARK VINA RESULT:      -8.0      0.622      1.284
REMARK  Name = 
REMARK  7 active torsions:
REMARK  status: ('A' for Active; 'I' for Inactive)
REMARK    1  A    between atoms: C_1  and  C_2
REMARK    2  A    between atoms: C_2  and  C_3
REMARK    3  A    between atoms: C_6  and  C_7
REMARK    4  A    between atoms: C_11  and  C_12
REMARK    5  A    between atoms: C_12  and  O_13
REMARK    6  A    between atoms: C_12  and  C_14
REMARK    7  A    between atoms: C_12  and  C_21
REMARK                            x       y       z     vdW  Elec       q    Type
REMARK                         _______ _______ _______ _____ _____    ______ ____
ROOT
ATOM      1  C   UNL     1       1.028  10.720  18.676  0.00  0.00    +0.000 C 
ENDROOT
BRANCH   1   2
ATOM      2  C   UNL     1      -0.492  10.838  18.353  0.00  0.00    +0.000 A 
ATOM      3  C   UNL     1      -1.290  11.845  18.937  0.00  0.00    +0.000 A 
ATOM      4  C   UNL     1      -2.675  11.875  18.746  0.00  0.00    +0.000 A 
ATOM      5  C   UNL     1      -3.290  10.901  17.967  0.00  0.00    +0.000 A 
ATOM      6 CL   UNL     1      -4.998  10.912  17.769  0.00  0.00    +0.000 Cl
ATOM      7  C   UNL     1      -2.530   9.906  17.364  0.00  0.00    +0.000 A 
ATOM      8  C   UNL     1      -1.145   9.873  17.557  0.00  0.00    +0.000 A 
ENDBRANCH   1   2
BRANCH   1  13
ATOM      9  C   UNL     1       2.108   7.111  19.628  0.00  0.00    +0.000 A 
ATOM     10  C   UNL     1       1.522   6.962  20.885  0.00  0.00    +0.000 A 
ATOM     11  C   UNL     1       0.808   8.018  21.440  0.00  0.00    +0.000 A 
ATOM     12  C   UNL     1       0.656   9.210  20.726  0.00  0.00    +0.000 A 
ATOM     13  C   UNL     1       1.254   9.400  19.460  0.00  0.00    +0.000 A 
ATOM     14  C   UNL     1       2.011   8.334  18.943  0.00  0.00    +0.000 A 
BRANCH   9  20
ATOM     15  C   UNL     1       4.399   3.098  19.147  0.00  0.00    +0.000 C 
ATOM     16  C   UNL     1       3.507   4.022  18.320  0.00  0.00    +0.000 C 
ATOM     17  C   UNL     1       2.660   3.222  17.333  0.00  0.00    +0.000 C 
ATOM     18  C   UNL     1       4.304   5.122  17.626  0.00  0.00    +0.000 C 
ATOM     19  O   UNL     1       3.652   6.333  17.992  0.00  0.00    +0.000 OA
ATOM     20  C   UNL     1       2.769   5.982  18.951  0.00  0.00    +0.000 C 
ATOM     21  N   UNL     1       2.602   4.733  19.245  0.00  0.00    +0.000 NA
ENDBRANCH   9  20
ENDBRANCH   1  13
BRANCH   1  22
ATOM     22  C   UNL     1       1.607  11.962  19.341  0.00  0.00    +0.000 A 
ATOM     23  C   UNL     1       1.466  12.287  20.679  0.00  0.00    +0.000 A 
ATOM     24  N   UNL     1       1.924  13.425  21.244  0.00  0.00    +0.000 NA
ATOM     25  C   UNL     1       2.591  14.252  20.430  0.00  0.00    +0.000 A 
ATOM     26  N   UNL     1       2.847  14.036  19.134  0.00  0.00    +0.000 NA
ATOM     27  C   UNL     1       2.359  12.883  18.627  0.00  0.00    +0.000 A 
ENDBRANCH   1  22
BRANCH   1  28
ATOM     28  O   UNL     1       1.725  10.693  17.418  0.00  0.00    +0.000 OA
ATOM     29  H   UNL     1       1.278  10.062  16.837  0.00  0.00    +0.000 HD
ENDBRANCH   1  28
TORSDOF 5
ENDMDL
MODEL 5
REMARK VINA RESULT:      -7.9      4.061      7.992
REMARK  Name = 
REMARK  7 active torsions:
REMARK  status: ('A' for Active; 'I' for Inactive)
REMARK    1  A    between atoms: C_1  and  C_2
REMARK    2  A    between atoms: C_2  and  C_3
REMARK    3  A    between atoms: C_6  and  C_7
REMARK    4  A    between atoms: C_11  and  C_12
REMARK    5  A    between atoms: C_12  and  O_13
REMARK    6  A    between atoms: C_12  and  C_14
REMARK    7  A    between atoms: C_12  and  C_21
REMARK                            x       y       z     vdW  Elec       q    Type
REMARK                         _______ _______ _______ _____ _____    ______ ____
ROOT
ATOM      1  C   UNL     1       6.225   5.179  17.620  0.00  0.00    +0.000 C 
ENDROOT
BRANCH   1   2
ATOM      2  C   UNL     1       6.134   4.790  16.115  0.00  0.00    +0.000 A 
ATOM      3  C   UNL     1       4.971   4.192  15.581  0.00  0.00    +0.000 A 
ATOM      4  C   UNL     1       4.932   3.730  14.262  0.00  0.00    +0.000 A 
ATOM      5  C   UNL     1       6.054   3.855  13.449  0.00  0.00    +0.000 A 
ATOM      6 CL   UNL     1       6.022   3.247  11.841  0.00  0.00    +0.000 Cl
ATOM      7  C   UNL     1       7.208   4.455  13.939  0.00  0.00    +0.000 A 
ATOM      8  C   UNL     1       7.249   4.915  15.260  0.00  0.00    +0.000 A 
ENDBRANCH   1   2
BRANCH   1  13
ATOM      9  C   UNL     1       2.740   6.433  18.795  0.00  0.00    +0.000 A 
ATOM     10  C   UNL     1       2.209   5.285  19.383  0.00  0.00    +0.000 A 
ATOM     11  C   UNL     1       2.948   4.107  19.381  0.00  0.00    +0.000 A 
ATOM     12  C   UNL     1       4.226   4.086  18.818  0.00  0.00    +0.000 A 
ATOM     13  C   UNL     1       4.785   5.226  18.196  0.00  0.00    +0.000 A 
ATOM     14  C   UNL     1       3.997   6.390  18.170  0.00  0.00    +0.000 A 
BRANCH   9  20
ATOM     15  C   UNL     1       1.949  10.966  18.152  0.00  0.00    +0.000 C 
ATOM     16  C   UNL     1       1.172   9.699  18.506  0.00  0.00    +0.000 C 
ATOM     17  C   UNL     1      -0.248   9.757  17.946  0.00  0.00    +0.000 C 
ATOM     18  C   UNL     1       1.182   9.416  20.005  0.00  0.00    +0.000 C 
ATOM     19  O   UNL     1       1.630   8.070  20.120  0.00  0.00    +0.000 OA
ATOM     20  C   UNL     1       2.047   7.730  18.881  0.00  0.00    +0.000 C 
ATOM     21  N   UNL     1       1.869   8.550  17.896  0.00  0.00    +0.000 NA
ENDBRANCH   9  20
ENDBRANCH   1  13
BRANCH   1  22
ATOM     22  C   UNL     1       7.053   6.432  17.876  0.00  0.00    +0.000 A 
ATOM     23  C   UNL     1       8.032   6.555  18.845  0.00  0.00    +0.000 A 
ATOM     24  N   UNL     1       8.711   7.693  19.109  0.00  0.00    +0.000 NA
ATOM     25  C   UNL     1       8.416   8.741  18.331  0.00  0.00    +0.000 A 
ATOM     26  N   UNL     1       7.534   8.745  17.325  0.00  0.00    +0.000 NA
ATOM     27  C   UNL     1       6.884   7.579  17.114  0.00  0.00    +0.000 A 
ENDBRANCH   1  22
BRANCH   1  28
ATOM     28  O   UNL     1       7.003   4.160  18.272  0.00  0.00    +0.000 OA
ATOM     29  H   UNL     1       7.643   4.592  18.854  0.00  0.00    +0.000 HD
ENDBRANCH   1  28
TORSDOF 5
ENDMDL
MODEL 6
REMARK VINA RESULT:      -7.9      0.662      1.628
REMARK  Name = 
REMARK  7 active torsions:
REMARK  status: ('A' for Active; 'I' for Inactive)
REMARK    1  A    between atoms: C_1  and  C_2
REMARK    2  A    between atoms: C_2  and  C_3
REMARK    3  A    between atoms: C_6  and  C_7
REMARK    4  A    between atoms: C_11  and  C_12
REMARK    5  A    between atoms: C_12  and  O_13
REMARK    6  A    between atoms: C_12  and  C_14
REMARK    7  A    between atoms: C_12  and  C_21
REMARK                            x       y       z     vdW  Elec       q    Type
REMARK                         _______ _______ _______ _____ _____    ______ ____
ROOT
ATOM      1  C   UNL     1       1.016  10.692  18.632  0.00  0.00    +0.000 C 
ENDROOT
BRANCH   1   2
ATOM      2  C   UNL     1      -0.506  10.816  18.326  0.00  0.00    +0.000 A 
ATOM      3  C   UNL     1      -1.294  11.826  18.919  0.00  0.00    +0.000 A 
ATOM      4  C   UNL     1      -2.681  11.863  18.743  0.00  0.00    +0.000 A 
ATOM      5  C   UNL     1      -3.308  10.892  17.970  0.00  0.00    +0.000 A 
ATOM      6 CL   UNL     1      -5.018  10.910  17.790  0.00  0.00    +0.000 Cl
ATOM      7  C   UNL     1      -2.559   9.894  17.359  0.00  0.00    +0.000 A 
ATOM      8  C   UNL     1      -1.172   9.854  17.537  0.00  0.00    +0.000 A 
ENDBRANCH   1   2
BRANCH   1  13
ATOM      9  C   UNL     1       2.090   7.102  19.664  0.00  0.00    +0.000 A 
ATOM     10  C   UNL     1       1.504   6.983  20.925  0.00  0.00    +0.000 A 
ATOM     11  C   UNL     1       0.793   8.052  21.456  0.00  0.00    +0.000 A 
ATOM     12  C   UNL     1       0.642   9.228  20.716  0.00  0.00    +0.000 A 
ATOM     13  C   UNL     1       1.240   9.389  19.446  0.00  0.00    +0.000 A 
ATOM     14  C   UNL     1       1.994   8.310  18.952  0.00  0.00    +0.000 A 
BRANCH   9  20
ATOM     15  C   UNL     1       4.949   4.806  16.813  0.00  0.00    +0.000 C 
ATOM     16  C   UNL     1       4.155   4.558  18.093  0.00  0.00    +0.000 C 
ATOM     17  C   UNL     1       4.885   3.575  19.005  0.00  0.00    +0.000 C 
ATOM     18  C   UNL     1       2.724   4.113  17.806  0.00  0.00    +0.000 C 
ATOM     19  O   UNL     1       1.907   5.000  18.562  0.00  0.00    +0.000 OA
ATOM     20  C   UNL     1       2.747   5.957  19.012  0.00  0.00    +0.000 C 
ATOM     21  N   UNL     1       4.019   5.844  18.804  0.00  0.00    +0.000 NA
ENDBRANCH   9  20
ENDBRANCH   1  13
BRANCH   1  22
ATOM     22  C   UNL     1       1.615  11.944  19.261  0.00  0.00    +0.000 A 
ATOM     23  C   UNL     1       2.329  12.913  18.579  0.00  0.00    +0.000 A 
ATOM     24  N   UNL     1       2.914  13.984  19.158  0.00  0.00    +0.000 NA
ATOM     25  C   UNL     1       2.735  14.102  20.479  0.00  0.00    +0.000 A 
ATOM     26  N   UNL     1       2.024  13.271  21.250  0.00  0.00    +0.000 NA
ATOM     27  C   UNL     1       1.466  12.217  20.613  0.00  0.00    +0.000 A 
ENDBRANCH   1  22
BRANCH   1  28
ATOM     28  O   UNL     1       1.697  10.627  17.367  0.00  0.00    +0.000 OA
ATOM     29  H   UNL     1       2.227   9.819  17.349  0.00  0.00    +0.000 HD
ENDBRANCH   1  28
TORSDOF 5
ENDMDL
MODEL 7
REMARK VINA RESULT:      -7.8      4.156      8.174
REMARK  Name = 
REMARK  7 active torsions:
REMARK  status: ('A' for Active; 'I' for Inactive)
REMARK    1  A    between atoms: C_1  and  C_2
REMARK    2  A    between atoms: C_2  and  C_3
REMARK    3  A    between atoms: C_6  and  C_7
REMARK    4  A    between atoms: C_11  and  C_12
REMARK    5  A    between atoms: C_12  and  O_13
REMARK    6  A    between atoms: C_12  and  C_14
REMARK    7  A    between atoms: C_12  and  C_21
REMARK                            x       y       z     vdW  Elec       q    Type
REMARK                         _______ _______ _______ _____ _____    ______ ____
ROOT
ATOM      1  C   UNL     1       6.107   5.162  17.295  0.00  0.00    +0.000 C 
ENDROOT
BRANCH   1   2
ATOM      2  C   UNL     1       6.205   4.825  15.777  0.00  0.00    +0.000 A 
ATOM      3  C   UNL     1       5.172   4.130  15.111  0.00  0.00    +0.000 A 
ATOM      4  C   UNL     1       5.313   3.719  13.782  0.00  0.00    +0.000 A 
ATOM      5  C   UNL     1       6.488   3.995  13.091  0.00  0.00    +0.000 A 
ATOM      6 CL   UNL     1       6.680   3.451  11.471  0.00  0.00    +0.000 Cl
ATOM      7  C   UNL     1       7.517   4.692  13.713  0.00  0.00    +0.000 A 
ATOM      8  C   UNL     1       7.379   5.101  15.043  0.00  0.00    +0.000 A 
ENDBRANCH   1   2
BRANCH   1  13
ATOM      9  C   UNL     1       2.581   6.466  18.278  0.00  0.00    +0.000 A 
ATOM     10  C   UNL     1       1.894   5.274  18.514  0.00  0.00    +0.000 A 
ATOM     11  C   UNL     1       2.544   4.059  18.334  0.00  0.00    +0.000 A 
ATOM     12  C   UNL     1       3.886   4.036  17.947  0.00  0.00    +0.000 A 
ATOM     13  C   UNL     1       4.605   5.223  17.679  0.00  0.00    +0.000 A 
ATOM     14  C   UNL     1       3.910   6.437  17.823  0.00  0.00    +0.000 A 
BRANCH   9  20
ATOM     15  C   UNL     1       1.998  11.074  18.230  0.00  0.00    +0.000 C 
ATOM     16  C   UNL     1       1.182   9.812  18.503  0.00  0.00    +0.000 C 
ATOM     17  C   UNL     1      -0.273  10.003  18.080  0.00  0.00    +0.000 C 
ATOM     18  C   UNL     1       1.299   9.353  19.953  0.00  0.00    +0.000 C 
ATOM     19  O   UNL     1       1.677   7.984  19.874  0.00  0.00    +0.000 OA
ATOM     20  C   UNL     1       1.971   7.774  18.572  0.00  0.00    +0.000 C 
ATOM     21  N   UNL     1       1.761   8.712  17.706  0.00  0.00    +0.000 NA
ENDBRANCH   9  20
ENDBRANCH   1  13
BRANCH   1  22
ATOM     22  C   UNL     1       6.917   6.386  17.701  0.00  0.00    +0.000 A 
ATOM     23  C   UNL     1       6.839   7.628  17.097  0.00  0.00    +0.000 A 
ATOM     24  N   UNL     1       7.613   8.688  17.420  0.00  0.00    +0.000 NA
ATOM     25  C   UNL     1       8.473   8.495  18.427  0.00  0.00    +0.000 A 
ATOM     26  N   UNL     1       8.612   7.367  19.133  0.00  0.00    +0.000 NA
ATOM     27  C   UNL     1       7.814   6.342  18.758  0.00  0.00    +0.000 A 
ENDBRANCH   1  22
BRANCH   1  28
ATOM     28  O   UNL     1       6.773   4.103  18.005  0.00  0.00    +0.000 OA
ATOM     29  H   UNL     1       7.054   4.445  18.864  0.00  0.00    +0.000 HD
ENDBRANCH   1  28
TORSDOF 5
ENDMDL
MODEL 8
REMARK VINA RESULT:      -7.8      0.756      1.034
REMARK  Name = 
REMARK  7 active torsions:
REMARK  status: ('A' for Active; 'I' for Inactive)
REMARK    1  A    between atoms: C_1  and  C_2
REMARK    2  A    between atoms: C_2  and  C_3
REMARK    3  A    between atoms: C_6  and  C_7
REMARK    4  A    between atoms: C_11  and  C_12
REMARK    5  A    between atoms: C_12  and  O_13
REMARK    6  A    between atoms: C_12  and  C_14
REMARK    7  A    between atoms: C_12  and  C_21
REMARK                            x       y       z     vdW  Elec       q    Type
REMARK                         _______ _______ _______ _____ _____    ______ ____
ROOT
ATOM      1  C   UNL     1       0.746  10.867  18.965  0.00  0.00    +0.000 C 
ENDROOT
BRANCH   1   2
ATOM      2  C   UNL     1      -0.771  10.870  18.607  0.00  0.00    +0.000 A 
ATOM      3  C   UNL     1      -1.290  10.019  17.608  0.00  0.00    +0.000 A 
ATOM      4  C   UNL     1      -2.625  10.109  17.200  0.00  0.00    +0.000 A 
ATOM      5  C   UNL     1      -3.467  11.049  17.782  0.00  0.00    +0.000 A 
ATOM      6 CL   UNL     1      -5.096  11.190  17.250  0.00  0.00    +0.000 Cl
ATOM      7  C   UNL     1      -2.991  11.891  18.781  0.00  0.00    +0.000 A 
ATOM      8  C   UNL     1      -1.655  11.804  19.188  0.00  0.00    +0.000 A 
ENDBRANCH   1   2
BRANCH   1  13
ATOM      9  C   UNL     1       2.126   7.295  19.624  0.00  0.00    +0.000 A 
ATOM     10  C   UNL     1       1.549   6.992  20.858  0.00  0.00    +0.000 A 
ATOM     11  C   UNL     1       0.745   7.932  21.490  0.00  0.00    +0.000 A 
ATOM     12  C   UNL     1       0.495   9.163  20.877  0.00  0.00    +0.000 A 
ATOM     13  C   UNL     1       1.081   9.510  19.638  0.00  0.00    +0.000 A 
ATOM     14  C   UNL     1       1.928   8.559  19.043  0.00  0.00    +0.000 A 
BRANCH   9  20
ATOM     15  C   UNL     1       5.008   3.738  18.834  0.00  0.00    +0.000 C 
ATOM     16  C   UNL     1       3.869   4.476  18.134  0.00  0.00    +0.000 C 
ATOM     17  C   UNL     1       3.058   3.522  17.260  0.00  0.00    +0.000 C 
ATOM     18  C   UNL     1       4.365   5.686  17.347  0.00  0.00    +0.000 C 
ATOM     19  O   UNL     1       3.562   6.770  17.800  0.00  0.00    +0.000 OA
ATOM     20  C   UNL     1       2.884   6.287  18.863  0.00  0.00    +0.000 C 
ATOM     21  N   UNL     1       2.979   5.034  19.170  0.00  0.00    +0.000 NA
ENDBRANCH   9  20
ENDBRANCH   1  13
BRANCH   1  22
ATOM     22  C   UNL     1       1.188  12.094  19.753  0.00  0.00    +0.000 A 
ATOM     23  C   UNL     1       0.734  12.435  21.015  0.00  0.00    +0.000 A 
ATOM     24  N   UNL     1       1.081  13.561  21.676  0.00  0.00    +0.000 NA
ATOM     25  C   UNL     1       1.957  14.356  21.051  0.00  0.00    +0.000 A 
ATOM     26  N   UNL     1       2.516  14.121  19.858  0.00  0.00    +0.000 NA
ATOM     27  C   UNL     1       2.126  12.981  19.246  0.00  0.00    +0.000 A 
ENDBRANCH   1  22
BRANCH   1  28
ATOM     28  O   UNL     1       1.470  11.018  17.732  0.00  0.00    +0.000 OA
ATOM     29  H   UNL     1       0.848  10.908  16.999  0.00  0.00    +0.000 HD
ENDBRANCH   1  28
TORSDOF 5
ENDMDL
MODEL 9
REMARK VINA RESULT:      -7.8      0.728      1.241
REMARK  Name = 
REMARK  7 active torsions:
REMARK  status: ('A' for Active; 'I' for Inactive)
REMARK    1  A    between atoms: C_1  and  C_2
REMARK    2  A    between atoms: C_2  and  C_3
REMARK    3  A    between atoms: C_6  and  C_7
REMARK    4  A    between atoms: C_11  and  C_12
REMARK    5  A    between atoms: C_12  and  O_13
REMARK    6  A    between atoms: C_12  and  C_14
REMARK    7  A    between atoms: C_12  and  C_21
REMARK                            x       y       z     vdW  Elec       q    Type
REMARK                         _______ _______ _______ _____ _____    ______ ____
ROOT
ATOM      1  C   UNL     1       0.573  10.700  18.767  0.00  0.00    +0.000 C 
ENDROOT
BRANCH   1   2
ATOM      2  C   UNL     1      -0.952  10.772  18.459  0.00  0.00    +0.000 A 
ATOM      3  C   UNL     1      -1.538   9.961  17.463  0.00  0.00    +0.000 A 
ATOM      4  C   UNL     1      -2.880  10.113  17.100  0.00  0.00    +0.000 A 
ATOM      5  C   UNL     1      -3.664  11.077  17.725  0.00  0.00    +0.000 A 
ATOM      6 CL   UNL     1      -5.301  11.294  17.248  0.00  0.00    +0.000 Cl
ATOM      7  C   UNL     1      -3.121  11.879  18.722  0.00  0.00    +0.000 A 
ATOM      8  C   UNL     1      -1.778  11.731  19.084  0.00  0.00    +0.000 A 
ENDBRANCH   1   2
BRANCH   1  13
ATOM      9  C   UNL     1       1.893   7.330  20.181  0.00  0.00    +0.000 A 
ATOM     10  C   UNL     1       1.139   7.197  21.348  0.00  0.00    +0.000 A 
ATOM     11  C   UNL     1       0.233   8.191  21.697  0.00  0.00    +0.000 A 
ATOM     12  C   UNL     1       0.060   9.302  20.867  0.00  0.00    +0.000 A 
ATOM     13  C   UNL     1       0.823   9.477  19.689  0.00  0.00    +0.000 A 
ATOM     14  C   UNL     1       1.766   8.480  19.385  0.00  0.00    +0.000 A 
BRANCH   9  20
ATOM     15  C   UNL     1       3.996   4.454  17.200  0.00  0.00    +0.000 C 
ATOM     16  C   UNL     1       4.185   4.981  18.621  0.00  0.00    +0.000 C 
ATOM     17  C   UNL     1       5.669   5.105  18.962  0.00  0.00    +0.000 C 
ATOM     18  C   UNL     1       3.432   4.146  19.651  0.00  0.00    +0.000 C 
ATOM     19  O   UNL     1       2.659   5.085  20.389  0.00  0.00    +0.000 OA
ATOM     20  C   UNL     1       2.773   6.247  19.710  0.00  0.00    +0.000 C 
ATOM     21  N   UNL     1       3.574   6.323  18.696  0.00  0.00    +0.000 NA
ENDBRANCH   9  20
ENDBRANCH   1  13
BRANCH   1  22
ATOM     22  C   UNL     1       1.153  12.012  19.282  0.00  0.00    +0.000 A 
ATOM     23  C   UNL     1       1.468  13.105  18.495  0.00  0.00    +0.000 A 
ATOM     24  N   UNL     1       2.047  14.237  18.952  0.00  0.00    +0.000 NA
ATOM     25  C   UNL     1       2.278  14.283  20.269  0.00  0.00    +0.000 A 
ATOM     26  N   UNL     1       1.973  13.323  21.151  0.00  0.00    +0.000 NA
ATOM     27  C   UNL     1       1.401  12.214  20.632  0.00  0.00    +0.000 A 
ENDBRANCH   1  22
BRANCH   1  28
ATOM     28  O   UNL     1       1.250  10.537  17.509  0.00  0.00    +0.000 OA
ATOM     29  H   UNL     1       2.075  10.059  17.668  0.00  0.00    +0.000 HD
ENDBRANCH   1  28
TORSDOF 5
ENDMDL
