MODEL 1
REMARK VINA RESULT:      -7.6      0.000      0.000
REMARK  Name = 
REMARK  4 active torsions:
REMARK  status: ('A' for Active; 'I' for Inactive)
REMARK    1  A    between atoms: C_1  and  C_2
REMARK    2  A    between atoms: C_2  and  C_4
REMARK    3  A    between atoms: C_7  and  C_8
REMARK    4  A    between atoms: N_16  and  C_17
REMARK                            x       y       z     vdW  Elec       q    Type
REMARK                         _______ _______ _______ _____ _____    ______ ____
ROOT
ATOM      1  C   UNL     1       4.274   4.079  17.162  0.00  0.00    +0.000 A 
ATOM      2  N   UNL     1       3.808   2.911  17.559  0.00  0.00    +0.000 NA
ATOM      3  C   UNL     1       2.888   3.189  18.538  0.00  0.00    +0.000 A 
ATOM      4  C   UNL     1       2.113   2.308  19.308  0.00  0.00    +0.000 A 
ATOM      5  C   UNL     1       1.246   2.838  20.272  0.00  0.00    +0.000 A 
ATOM      6  C   UNL     1       1.146   4.216  20.460  0.00  0.00    +0.000 A 
ATOM      7  C   UNL     1       1.905   5.110  19.696  0.00  0.00    +0.000 A 
ATOM      8  C   UNL     1       2.771   4.562  18.741  0.00  0.00    +0.000 A 
ATOM      9  N   UNL     1       3.658   5.109  17.842  0.00  0.00    +0.000 N 
ATOM     10  C   UNL     1       3.919   6.518  17.668  0.00  0.00    +0.000 C 
ENDROOT
BRANCH   1  14
ATOM     11  C   UNL     1       6.291   4.187  14.184  0.00  0.00    +0.000 A 
ATOM     12  C   UNL     1       7.224   4.675  15.076  0.00  0.00    +0.000 A 
ATOM     13  C   UNL     1       6.592   4.697  16.343  0.00  0.00    +0.000 A 
ATOM     14  C   UNL     1       5.300   4.229  16.170  0.00  0.00    +0.000 A 
ATOM     15  O   UNL     1       5.127   3.922  14.844  0.00  0.00    +0.000 OA
BRANCH  11  17
ATOM     16  C   UNL     1       5.207   3.205  12.139  0.00  0.00    +0.000 C 
ATOM     17  C   UNL     1       6.371   3.938  12.761  0.00  0.00    +0.000 C 
ATOM     18  O   UNL     1       7.317   4.308  12.066  0.00  0.00    +0.000 OA
ENDBRANCH  11  17
ENDBRANCH   1  14
TORSDOF 2
ENDMDL
MODEL 2
REMARK VINA RESULT:      -7.6      1.510      1.767
REMARK  Name = 
REMARK  4 active torsions:
REMARK  status: ('A' for Active; 'I' for Inactive)
REMARK    1  A    between atoms: C_1  and  C_2
REMARK    2  A    between atoms: C_2  and  C_4
REMARK    3  A    between atoms: C_7  and  C_8
REMARK    4  A    between atoms: N_16  and  C_17
REMARK                            x       y       z     vdW  Elec       q    Type
REMARK                         _______ _______ _______ _____ _____    ______ ____
ROOT
ATOM      1  C   UNL     1       4.575   4.338  18.569  0.00  0.00    +0.000 A 
ATOM      2  N   UNL     1       4.791   3.357  19.426  0.00  0.00    +0.000 NA
ATOM      3  C   UNL     1       3.613   3.193  20.109  0.00  0.00    +0.000 A 
ATOM      4  C   UNL     1       3.302   2.300  21.146  0.00  0.00    +0.000 A 
ATOM      5  C   UNL     1       2.018   2.334  21.705  0.00  0.00    +0.000 A 
ATOM      6  C   UNL     1       1.061   3.232  21.235  0.00  0.00    +0.000 A 
ATOM      7  C   UNL     1       1.350   4.126  20.197  0.00  0.00    +0.000 A 
ATOM      8  C   UNL     1       2.641   4.081  19.655  0.00  0.00    +0.000 A 
ATOM      9  N   UNL     1       3.277   4.793  18.663  0.00  0.00    +0.000 N 
ATOM     10  C   UNL     1       2.691   5.856  17.882  0.00  0.00    +0.000 C 
ENDROOT
BRANCH   1  14
ATOM     11  C   UNL     1       6.747   5.168  15.823  0.00  0.00    +0.000 A 
ATOM     12  C   UNL     1       7.310   5.989  16.779  0.00  0.00    +0.000 A 
ATOM     13  C   UNL     1       6.567   5.785  17.968  0.00  0.00    +0.000 A 
ATOM     14  C   UNL     1       5.580   4.855  17.686  0.00  0.00    +0.000 A 
ATOM     15  O   UNL     1       5.699   4.486  16.370  0.00  0.00    +0.000 OA
BRANCH  11  17
ATOM     16  C   UNL     1       6.256   3.932  13.689  0.00  0.00    +0.000 C 
ATOM     17  C   UNL     1       7.088   4.948  14.434  0.00  0.00    +0.000 C 
ATOM     18  O   UNL     1       7.991   5.556  13.859  0.00  0.00    +0.000 OA
ENDBRANCH  11  17
ENDBRANCH   1  14
TORSDOF 2
ENDMDL
MODEL 3
REMARK VINA RESULT:      -7.0      0.911      1.957
REMARK  Name = 
REMARK  4 active torsions:
REMARK  status: ('A' for Active; 'I' for Inactive)
REMARK    1  A    between atoms: C_1  and  C_2
REMARK    2  A    between atoms: C_2  and  C_4
REMARK    3  A    between atoms: C_7  and  C_8
REMARK    4  A    between atoms: N_16  and  C_17
REMARK                            x       y       z     vdW  Elec       q    Type
REMARK                         _______ _______ _______ _____ _____    ______ ____
ROOT
ATOM      1  C   UNL     1       4.415   4.785  17.182  0.00  0.00    +0.000 A 
ATOM      2  N   UNL     1       4.111   5.951  17.719  0.00  0.00    +0.000 NA
ATOM      3  C   UNL     1       3.189   5.681  18.698  0.00  0.00    +0.000 A 
ATOM      4  C   UNL     1       2.521   6.564  19.561  0.00  0.00    +0.000 A 
ATOM      5  C   UNL     1       1.597   6.045  20.476  0.00  0.00    +0.000 A 
ATOM      6  C   UNL     1       1.349   4.675  20.538  0.00  0.00    +0.000 A 
ATOM      7  C   UNL     1       2.011   3.777  19.692  0.00  0.00    +0.000 A 
ATOM      8  C   UNL     1       2.926   4.316  18.779  0.00  0.00    +0.000 A 
ATOM      9  N   UNL     1       3.731   3.764  17.808  0.00  0.00    +0.000 N 
ATOM     10  C   UNL     1       3.816   2.360  17.482  0.00  0.00    +0.000 C 
ENDROOT
BRANCH   1  14
ATOM     11  C   UNL     1       6.057   4.104  14.053  0.00  0.00    +0.000 A 
ATOM     12  C   UNL     1       7.128   4.654  14.726  0.00  0.00    +0.000 A 
ATOM     13  C   UNL     1       6.659   4.986  16.020  0.00  0.00    +0.000 A 
ATOM     14  C   UNL     1       5.321   4.631  16.080  0.00  0.00    +0.000 A 
ATOM     15  O   UNL     1       4.964   4.094  14.869  0.00  0.00    +0.000 OA
BRANCH  11  17
ATOM     16  C   UNL     1       4.544   3.422  12.164  0.00  0.00    +0.000 C 
ATOM     17  C   UNL     1       5.943   3.577  12.710  0.00  0.00    +0.000 C 
ATOM     18  O   UNL     1       6.917   3.282  12.019  0.00  0.00    +0.000 OA
ENDBRANCH  11  17
ENDBRANCH   1  14
TORSDOF 2
ENDMDL
MODEL 4
REMARK VINA RESULT:      -7.0      1.563      2.013
REMARK  Name = 
REMARK  4 active torsions:
REMARK  status: ('A' for Active; 'I' for Inactive)
REMARK    1  A    between atoms: C_1  and  C_2
REMARK    2  A    between atoms: C_2  and  C_4
REMARK    3  A    between atoms: C_7  and  C_8
REMARK    4  A    between atoms: N_16  and  C_17
REMARK                            x       y       z     vdW  Elec       q    Type
REMARK                         _______ _______ _______ _____ _____    ______ ____
ROOT
ATOM      1  C   UNL     1       3.714   4.692  17.960  0.00  0.00    +0.000 A 
ATOM      2  N   UNL     1       2.400   4.573  17.945  0.00  0.00    +0.000 NA
ATOM      3  C   UNL     1       2.070   3.932  19.112  0.00  0.00    +0.000 A 
ATOM      4  C   UNL     1       0.809   3.539  19.586  0.00  0.00    +0.000 A 
ATOM      5  C   UNL     1       0.727   2.872  20.814  0.00  0.00    +0.000 A 
ATOM      6  C   UNL     1       1.876   2.610  21.560  0.00  0.00    +0.000 A 
ATOM      7  C   UNL     1       3.142   3.001  21.107  0.00  0.00    +0.000 A 
ATOM      8  C   UNL     1       3.204   3.661  19.873  0.00  0.00    +0.000 A 
ATOM      9  N   UNL     1       4.240   4.167  19.122  0.00  0.00    +0.000 N 
ATOM     10  C   UNL     1       5.638   4.123  19.477  0.00  0.00    +0.000 C 
ENDROOT
BRANCH   1  14
ATOM     11  C   UNL     1       5.817   5.405  15.127  0.00  0.00    +0.000 A 
ATOM     12  C   UNL     1       5.408   6.693  15.404  0.00  0.00    +0.000 A 
ATOM     13  C   UNL     1       4.553   6.609  16.529  0.00  0.00    +0.000 A 
ATOM     14  C   UNL     1       4.470   5.274  16.888  0.00  0.00    +0.000 A 
ATOM     15  O   UNL     1       5.246   4.546  16.022  0.00  0.00    +0.000 OA
BRANCH  11  17
ATOM     16  C   UNL     1       6.173   3.715  13.300  0.00  0.00    +0.000 C 
ATOM     17  C   UNL     1       6.696   4.881  14.104  0.00  0.00    +0.000 C 
ATOM     18  O   UNL     1       7.807   5.354  13.867  0.00  0.00    +0.000 OA
ENDBRANCH  11  17
ENDBRANCH   1  14
TORSDOF 2
ENDMDL
MODEL 5
REMARK VINA RESULT:      -6.8      2.642      4.063
REMARK  Name = 
REMARK  4 active torsions:
REMARK  status: ('A' for Active; 'I' for Inactive)
REMARK    1  A    between atoms: C_1  and  C_2
REMARK    2  A    between atoms: C_2  and  C_4
REMARK    3  A    between atoms: C_7  and  C_8
REMARK    4  A    between atoms: N_16  and  C_17
REMARK                            x       y       z     vdW  Elec       q    Type
REMARK                         _______ _______ _______ _____ _____    ______ ____
ROOT
ATOM      1  C   UNL     1       3.097   6.659  18.186  0.00  0.00    +0.000 A 
ATOM      2  N   UNL     1       2.716   7.819  17.683  0.00  0.00    +0.000 NA
ATOM      3  C   UNL     1       2.004   8.440  18.677  0.00  0.00    +0.000 A 
ATOM      4  C   UNL     1       1.358   9.686  18.664  0.00  0.00    +0.000 A 
ATOM      5  C   UNL     1       0.669  10.102  19.810  0.00  0.00    +0.000 A 
ATOM      6  C   UNL     1       0.633   9.299  20.949  0.00  0.00    +0.000 A 
ATOM      7  C   UNL     1       1.277   8.057  20.984  0.00  0.00    +0.000 A 
ATOM      8  C   UNL     1       1.955   7.655  19.826  0.00  0.00    +0.000 A 
ATOM      9  N   UNL     1       2.670   6.528  19.491  0.00  0.00    +0.000 N 
ATOM     10  C   UNL     1       2.904   5.392  20.350  0.00  0.00    +0.000 C 
ENDROOT
BRANCH   1  14
ATOM     11  C   UNL     1       5.361   4.821  16.078  0.00  0.00    +0.000 A 
ATOM     12  C   UNL     1       4.628   3.757  16.561  0.00  0.00    +0.000 A 
ATOM     13  C   UNL     1       3.652   4.305  17.429  0.00  0.00    +0.000 A 
ATOM     14  C   UNL     1       3.835   5.678  17.445  0.00  0.00    +0.000 A 
ATOM     15  O   UNL     1       4.886   5.981  16.616  0.00  0.00    +0.000 OA
BRANCH  11  17
ATOM     16  C   UNL     1       6.337   4.061  13.889  0.00  0.00    +0.000 C 
ATOM     17  C   UNL     1       6.475   4.872  15.155  0.00  0.00    +0.000 C 
ATOM     18  O   UNL     1       7.484   5.546  15.357  0.00  0.00    +0.000 OA
ENDBRANCH  11  17
ENDBRANCH   1  14
TORSDOF 2
ENDMDL
MODEL 6
REMARK VINA RESULT:      -6.7      1.465      2.522
REMARK  Name = 
REMARK  4 active torsions:
REMARK  status: ('A' for Active; 'I' for Inactive)
REMARK    1  A    between atoms: C_1  and  C_2
REMARK    2  A    between atoms: C_2  and  C_4
REMARK    3  A    between atoms: C_7  and  C_8
REMARK    4  A    between atoms: N_16  and  C_17
REMARK                            x       y       z     vdW  Elec       q    Type
REMARK                         _______ _______ _______ _____ _____    ______ ____
ROOT
ATOM      1  C   UNL     1       4.766   5.412  16.504  0.00  0.00    +0.000 A 
ATOM      2  N   UNL     1       4.405   6.672  16.661  0.00  0.00    +0.000 NA
ATOM      3  C   UNL     1       3.592   6.691  17.766  0.00  0.00    +0.000 A 
ATOM      4  C   UNL     1       2.920   7.771  18.358  0.00  0.00    +0.000 A 
ATOM      5  C   UNL     1       2.122   7.535  19.484  0.00  0.00    +0.000 A 
ATOM      6  C   UNL     1       2.002   6.251  20.015  0.00  0.00    +0.000 A 
ATOM      7  C   UNL     1       2.669   5.162  19.442  0.00  0.00    +0.000 A 
ATOM      8  C   UNL     1       3.458   5.417  18.313  0.00  0.00    +0.000 A 
ATOM      9  N   UNL     1       4.227   4.621  17.496  0.00  0.00    +0.000 N 
ATOM     10  C   UNL     1       4.409   3.196  17.638  0.00  0.00    +0.000 C 
ENDROOT
BRANCH   1  14
ATOM     11  C   UNL     1       6.155   3.993  13.502  0.00  0.00    +0.000 A 
ATOM     12  C   UNL     1       7.319   4.501  14.042  0.00  0.00    +0.000 A 
ATOM     13  C   UNL     1       6.959   5.109  15.268  0.00  0.00    +0.000 A 
ATOM     14  C   UNL     1       5.591   4.953  15.423  0.00  0.00    +0.000 A 
ATOM     15  O   UNL     1       5.110   4.270  14.335  0.00  0.00    +0.000 OA
BRANCH  11  17
ATOM     16  C   UNL     1       4.511   3.351  11.711  0.00  0.00    +0.000 C 
ATOM     17  C   UNL     1       5.909   3.266  12.275  0.00  0.00    +0.000 C 
ATOM     18  O   UNL     1       6.779   2.621  11.691  0.00  0.00    +0.000 OA
ENDBRANCH  11  17
ENDBRANCH   1  14
TORSDOF 2
ENDMDL
MODEL 7
REMARK VINA RESULT:      -6.7      1.489      1.725
REMARK  Name = 
REMARK  4 active torsions:
REMARK  status: ('A' for Active; 'I' for Inactive)
REMARK    1  A    between atoms: C_1  and  C_2
REMARK    2  A    between atoms: C_2  and  C_4
REMARK    3  A    between atoms: C_7  and  C_8
REMARK    4  A    between atoms: N_16  and  C_17
REMARK                            x       y       z     vdW  Elec       q    Type
REMARK                         _______ _______ _______ _____ _____    ______ ____
ROOT
ATOM      1  C   UNL     1       3.981   4.679  18.091  0.00  0.00    +0.000 A 
ATOM      2  N   UNL     1       4.365   3.564  18.683  0.00  0.00    +0.000 NA
ATOM      3  C   UNL     1       3.481   3.368  19.715  0.00  0.00    +0.000 A 
ATOM      4  C   UNL     1       3.445   2.343  20.673  0.00  0.00    +0.000 A 
ATOM      5  C   UNL     1       2.444   2.368  21.651  0.00  0.00    +0.000 A 
ATOM      6  C   UNL     1       1.493   3.387  21.671  0.00  0.00    +0.000 A 
ATOM      7  C   UNL     1       1.508   4.414  20.719  0.00  0.00    +0.000 A 
ATOM      8  C   UNL     1       2.521   4.375  19.752  0.00  0.00    +0.000 A 
ATOM      9  N   UNL     1       2.855   5.194  18.698  0.00  0.00    +0.000 N 
ATOM     10  C   UNL     1       2.162   6.401  18.316  0.00  0.00    +0.000 C 
ENDROOT
BRANCH   1  14
ATOM     11  C   UNL     1       5.941   5.408  15.162  0.00  0.00    +0.000 A 
ATOM     12  C   UNL     1       5.508   6.688  15.438  0.00  0.00    +0.000 A 
ATOM     13  C   UNL     1       4.704   6.597  16.600  0.00  0.00    +0.000 A 
ATOM     14  C   UNL     1       4.675   5.266  16.980  0.00  0.00    +0.000 A 
ATOM     15  O   UNL     1       5.434   4.547  16.091  0.00  0.00    +0.000 OA
BRANCH  11  17
ATOM     16  C   UNL     1       6.229   3.758  13.286  0.00  0.00    +0.000 C 
ATOM     17  C   UNL     1       6.790   4.893  14.109  0.00  0.00    +0.000 C 
ATOM     18  O   UNL     1       7.906   5.350  13.862  0.00  0.00    +0.000 OA
ENDBRANCH  11  17
ENDBRANCH   1  14
TORSDOF 2
ENDMDL
MODEL 8
REMARK VINA RESULT:      -6.6      3.782      7.266
REMARK  Name = 
REMARK  4 active torsions:
REMARK  status: ('A' for Active; 'I' for Inactive)
REMARK    1  A    between atoms: C_1  and  C_2
REMARK    2  A    between atoms: C_2  and  C_4
REMARK    3  A    between atoms: C_7  and  C_8
REMARK    4  A    between atoms: N_16  and  C_17
REMARK                            x       y       z     vdW  Elec       q    Type
REMARK                         _______ _______ _______ _____ _____    ______ ____
ROOT
ATOM      1  C   UNL     1       3.277   6.944  17.885  0.00  0.00    +0.000 A 
ATOM      2  N   UNL     1       4.399   7.309  17.294  0.00  0.00    +0.000 NA
ATOM      3  C   UNL     1       4.961   6.153  16.815  0.00  0.00    +0.000 A 
ATOM      4  C   UNL     1       6.169   5.970  16.124  0.00  0.00    +0.000 A 
ATOM      5  C   UNL     1       6.543   4.674  15.750  0.00  0.00    +0.000 A 
ATOM      6  C   UNL     1       5.728   3.583  16.048  0.00  0.00    +0.000 A 
ATOM      7  C   UNL     1       4.516   3.747  16.730  0.00  0.00    +0.000 A 
ATOM      8  C   UNL     1       4.162   5.050  17.101  0.00  0.00    +0.000 A 
ATOM      9  N   UNL     1       3.086   5.583  17.775  0.00  0.00    +0.000 N 
ATOM     10  C   UNL     1       1.969   4.837  18.303  0.00  0.00    +0.000 C 
ENDROOT
BRANCH   1  14
ATOM     11  C   UNL     1       1.292   8.828  20.221  0.00  0.00    +0.000 A 
ATOM     12  C   UNL     1       0.979   9.534  19.077  0.00  0.00    +0.000 A 
ATOM     13  C   UNL     1       1.685   8.912  18.019  0.00  0.00    +0.000 A 
ATOM     14  C   UNL     1       2.403   7.859  18.561  0.00  0.00    +0.000 A 
ATOM     15  O   UNL     1       2.156   7.819  19.910  0.00  0.00    +0.000 OA
BRANCH  11  17
ATOM     16  C   UNL     1      -0.537   8.539  21.923  0.00  0.00    +0.000 C 
ATOM     17  C   UNL     1       0.864   8.997  21.593  0.00  0.00    +0.000 C 
ATOM     18  O   UNL     1       1.588   9.467  22.470  0.00  0.00    +0.000 OA
ENDBRANCH  11  17
ENDBRANCH   1  14
TORSDOF 2
ENDMDL
MODEL 9
REMARK VINA RESULT:      -6.5      2.894      4.646
REMARK  Name = 
REMARK  4 active torsions:
REMARK  status: ('A' for Active; 'I' for Inactive)
REMARK    1  A    between atoms: C_1  and  C_2
REMARK    2  A    between atoms: C_2  and  C_4
REMARK    3  A    between atoms: C_7  and  C_8
REMARK    4  A    between atoms: N_16  and  C_17
REMARK                            x       y       z     vdW  Elec       q    Type
REMARK                         _______ _______ _______ _____ _____    ______ ____
ROOT
ATOM      1  C   UNL     1       2.771   6.768  18.585  0.00  0.00    +0.000 A 
ATOM      2  N   UNL     1       2.523   7.942  18.036  0.00  0.00    +0.000 NA
ATOM      3  C   UNL     1       1.788   8.638  18.962  0.00  0.00    +0.000 A 
ATOM      4  C   UNL     1       1.246   9.930  18.880  0.00  0.00    +0.000 A 
ATOM      5  C   UNL     1       0.506  10.422  19.962  0.00  0.00    +0.000 A 
ATOM      6  C   UNL     1       0.317   9.648  21.107  0.00  0.00    +0.000 A 
ATOM      7  C   UNL     1       0.856   8.360  21.210  0.00  0.00    +0.000 A 
ATOM      8  C   UNL     1       1.588   7.883  20.115  0.00  0.00    +0.000 A 
ATOM      9  N   UNL     1       2.235   6.697  19.854  0.00  0.00    +0.000 N 
ATOM     10  C   UNL     1       2.310   5.564  20.745  0.00  0.00    +0.000 C 
ENDROOT
BRANCH   1  14
ATOM     11  C   UNL     1       5.175   4.615  16.992  0.00  0.00    +0.000 A 
ATOM     12  C   UNL     1       4.075   3.789  16.901  0.00  0.00    +0.000 A 
ATOM     13  C   UNL     1       2.996   4.493  17.488  0.00  0.00    +0.000 A 
ATOM     14  C   UNL     1       3.484   5.716  17.918  0.00  0.00    +0.000 A 
ATOM     15  O   UNL     1       4.820   5.778  17.611  0.00  0.00    +0.000 OA
BRANCH  11  17
ATOM     16  C   UNL     1       7.612   4.590  17.612  0.00  0.00    +0.000 C 
ATOM     17  C   UNL     1       6.544   4.434  16.557  0.00  0.00    +0.000 C 
ATOM     18  O   UNL     1       6.848   4.149  15.399  0.00  0.00    +0.000 OA
ENDBRANCH  11  17
ENDBRANCH   1  14
TORSDOF 2
ENDMDL
