MODEL 1
REMARK VINA RESULT:      -9.0      0.000      0.000
REMARK  Name = 
REMARK  8 active torsions:
REMARK  status: ('A' for Active; 'I' for Inactive)
REMARK    1  A    between atoms: C_1  and  C_2
REMARK    2  A    between atoms: C_4  and  C_5
REMARK    3  A    between atoms: C_8  and  C_9
REMARK    4  A    between atoms: C_10  and  N_11
REMARK    5  A    between atoms: C_12  and  C_14
REMARK    6  A    between atoms: C_17  and  O_18
REMARK    7  A    between atoms: O_18  and  C_19
REMARK    8  A    between atoms: C_19  and  C_20
REMARK                            x       y       z     vdW  Elec       q    Type
REMARK                         _______ _______ _______ _____ _____    ______ ____
ROOT
ATOM      1  N   UNL     1       2.252   6.444  20.558  0.00  0.00    +0.000 N 
ATOM      2  C   UNL     1       1.950   7.582  19.837  0.00  0.00    +0.000 C 
ATOM      3  O   UNL     1       2.073   7.747  18.628  0.00  0.00    +0.000 OA
ATOM      4  H   UNL     1       1.901   6.401  21.504  0.00  0.00    +0.000 HD
ENDROOT
BRANCH   1  10
ATOM      5  C   UNL     1       4.640   4.346  18.633  0.00  0.00    +0.000 A 
ATOM      6  C   UNL     1       4.307   3.058  19.049  0.00  0.00    +0.000 A 
ATOM      7  C   UNL     1       3.239   2.854  19.917  0.00  0.00    +0.000 A 
ATOM      8  C   UNL     1       2.469   3.928  20.404  0.00  0.00    +0.000 A 
ATOM      9  C   UNL     1       1.240   3.533  21.176  0.00  0.00    +0.000 C 
ATOM     10  C   UNL     1       2.858   5.244  20.089  0.00  0.00    +0.000 A 
ATOM     11  C   UNL     1       3.924   5.427  19.177  0.00  0.00    +0.000 A 
BRANCH   5  15
ATOM     12  C   UNL     1       6.955   4.779  14.267  0.00  0.00    +0.000 C 
ATOM     13  C   UNL     1       6.640   4.735  15.714  0.00  0.00    +0.000 A 
ATOM     14  N   UNL     1       5.461   4.558  16.274  0.00  0.00    +0.000 NA
ATOM     15  C   UNL     1       5.680   4.569  17.636  0.00  0.00    +0.000 A 
ATOM     16  C   UNL     1       7.021   4.763  17.892  0.00  0.00    +0.000 A 
ATOM     17  N   UNL     1       7.617   4.868  16.667  0.00  0.00    +0.000 N 
ATOM     18  H   UNL     1       8.603   4.998  16.490  0.00  0.00    +0.000 HD
ENDBRANCH   5  15
ENDBRANCH   1  10
BRANCH   2  19
ATOM     19  C   UNL     1       1.373   8.730  20.588  0.00  0.00    +0.000 A 
ATOM     20  C   UNL     1       1.091   9.888  19.851  0.00  0.00    +0.000 A 
ATOM     21  C   UNL     1       0.387  10.946  20.428  0.00  0.00    +0.000 A 
ATOM     22  C   UNL     1      -0.071  10.841  21.740  0.00  0.00    +0.000 A 
ATOM     23  C   UNL     1       0.280   9.723  22.505  0.00  0.00    +0.000 A 
ATOM     24  C   UNL     1       0.996   8.661  21.933  0.00  0.00    +0.000 A 
BRANCH  22  25
ATOM     25  O   UNL     1      -0.888  11.754  22.349  0.00  0.00    +0.000 OA
BRANCH  25  26
ATOM     26  C   UNL     1      -2.018  12.166  21.564  0.00  0.00    +0.000 C 
BRANCH  26  27
ATOM     27  C   UNL     1      -3.208  12.490  22.435  0.00  0.00    +0.000 A 
ATOM     28  C   UNL     1      -3.167  12.225  23.804  0.00  0.00    +0.000 A 
ATOM     29  C   UNL     1      -4.309  12.447  24.568  0.00  0.00    +0.000 A 
ATOM     30  C   UNL     1      -5.458  12.923  23.949  0.00  0.00    +0.000 A 
ATOM     31  C   UNL     1      -5.420  13.156  22.586  0.00  0.00    +0.000 A 
ATOM     32  N   UNL     1      -4.328  12.946  21.818  0.00  0.00    +0.000 NA
ENDBRANCH  26  27
ENDBRANCH  25  26
ENDBRANCH  22  25
ENDBRANCH   2  19
TORSDOF 6
ENDMDL
MODEL 2
REMARK VINA RESULT:      -9.0      3.257     11.412
REMARK  Name = 
REMARK  8 active torsions:
REMARK  status: ('A' for Active; 'I' for Inactive)
REMARK    1  A    between atoms: C_1  and  C_2
REMARK    2  A    between atoms: C_4  and  C_5
REMARK    3  A    between atoms: C_8  and  C_9
REMARK    4  A    between atoms: C_10  and  N_11
REMARK    5  A    between atoms: C_12  and  C_14
REMARK    6  A    between atoms: C_17  and  O_18
REMARK    7  A    between atoms: O_18  and  C_19
REMARK    8  A    between atoms: C_19  and  C_20
REMARK                            x       y       z     vdW  Elec       q    Type
REMARK                         _______ _______ _______ _____ _____    ______ ____
ROOT
ATOM      1  N   UNL     1       1.045   9.377  17.990  0.00  0.00    +0.000 N 
ATOM      2  C   UNL     1       1.690   8.462  18.798  0.00  0.00    +0.000 C 
ATOM      3  O   UNL     1       1.643   8.393  20.022  0.00  0.00    +0.000 OA
ATOM      4  H   UNL     1       1.024   9.172  17.002  0.00  0.00    +0.000 HD
ENDROOT
BRANCH   1  10
ATOM      5  C   UNL     1      -2.012  11.461  18.336  0.00  0.00    +0.000 A 
ATOM      6  C   UNL     1      -1.557  12.533  19.101  0.00  0.00    +0.000 A 
ATOM      7  C   UNL     1      -0.215  12.624  19.456  0.00  0.00    +0.000 A 
ATOM      8  C   UNL     1       0.720  11.646  19.063  0.00  0.00    +0.000 A 
ATOM      9  C   UNL     1       2.156  11.980  19.357  0.00  0.00    +0.000 C 
ATOM     10  C   UNL     1       0.262  10.498  18.387  0.00  0.00    +0.000 A 
ATOM     11  C   UNL     1      -1.099  10.443  18.007  0.00  0.00    +0.000 A 
BRANCH   5  15
ATOM     12  C   UNL     1      -6.972  11.429  18.276  0.00  0.00    +0.000 C 
ATOM     13  C   UNL     1      -5.543  11.389  17.889  0.00  0.00    +0.000 A 
ATOM     14  N   UNL     1      -4.494  11.560  18.668  0.00  0.00    +0.000 NA
ATOM     15  C   UNL     1      -3.389  11.408  17.858  0.00  0.00    +0.000 A 
ATOM     16  C   UNL     1      -3.789  11.146  16.565  0.00  0.00    +0.000 A 
ATOM     17  N   UNL     1      -5.155  11.139  16.598  0.00  0.00    +0.000 N 
ATOM     18  H   UNL     1      -5.771  10.959  15.818  0.00  0.00    +0.000 HD
ENDBRANCH   5  15
ENDBRANCH   1  10
BRANCH   2  19
ATOM     19  C   UNL     1       2.504   7.414  18.124  0.00  0.00    +0.000 A 
ATOM     20  C   UNL     1       3.636   7.849  17.420  0.00  0.00    +0.000 A 
ATOM     21  C   UNL     1       4.553   6.930  16.910  0.00  0.00    +0.000 A 
ATOM     22  C   UNL     1       4.365   5.567  17.127  0.00  0.00    +0.000 A 
ATOM     23  C   UNL     1       3.196   5.125  17.756  0.00  0.00    +0.000 A 
ATOM     24  C   UNL     1       2.264   6.044  18.262  0.00  0.00    +0.000 A 
BRANCH  22  25
ATOM     25  O   UNL     1       5.272   4.598  16.797  0.00  0.00    +0.000 OA
BRANCH  25  26
ATOM     26  C   UNL     1       6.531   5.095  16.312  0.00  0.00    +0.000 C 
BRANCH  26  27
ATOM     27  C   UNL     1       6.694   4.837  14.833  0.00  0.00    +0.000 A 
ATOM     28  C   UNL     1       5.889   3.895  14.193  0.00  0.00    +0.000 A 
ATOM     29  C   UNL     1       6.122   3.610  12.851  0.00  0.00    +0.000 A 
ATOM     30  C   UNL     1       7.149   4.267  12.185  0.00  0.00    +0.000 A 
ATOM     31  C   UNL     1       7.906   5.185  12.892  0.00  0.00    +0.000 A 
ATOM     32  N   UNL     1       7.707   5.479  14.195  0.00  0.00    +0.000 NA
ENDBRANCH  26  27
ENDBRANCH  25  26
ENDBRANCH  22  25
ENDBRANCH   2  19
TORSDOF 6
ENDMDL
MODEL 3
REMARK VINA RESULT:      -8.9      0.684      1.206
REMARK  Name = 
REMARK  8 active torsions:
REMARK  status: ('A' for Active; 'I' for Inactive)
REMARK    1  A    between atoms: C_1  and  C_2
REMARK    2  A    between atoms: C_4  and  C_5
REMARK    3  A    between atoms: C_8  and  C_9
REMARK    4  A    between atoms: C_10  and  N_11
REMARK    5  A    between atoms: C_12  and  C_14
REMARK    6  A    between atoms: C_17  and  O_18
REMARK    7  A    between atoms: O_18  and  C_19
REMARK    8  A    between atoms: C_19  and  C_20
REMARK                            x       y       z     vdW  Elec       q    Type
REMARK                         _______ _______ _______ _____ _____    ______ ____
ROOT
ATOM      1  N   UNL     1       2.217   6.229  20.377  0.00  0.00    +0.000 N 
ATOM      2  C   UNL     1       2.133   7.407  19.662  0.00  0.00    +0.000 C 
ATOM      3  O   UNL     1       2.622   7.643  18.563  0.00  0.00    +0.000 OA
ATOM      4  H   UNL     1       1.591   6.131  21.163  0.00  0.00    +0.000 HD
ENDROOT
BRANCH   1  10
ATOM      5  C   UNL     1       4.804   4.189  18.658  0.00  0.00    +0.000 A 
ATOM      6  C   UNL     1       4.652   2.944  19.264  0.00  0.00    +0.000 A 
ATOM      7  C   UNL     1       3.644   2.735  20.200  0.00  0.00    +0.000 A 
ATOM      8  C   UNL     1       2.755   3.764  20.567  0.00  0.00    +0.000 A 
ATOM      9  C   UNL     1       1.608   3.336  21.441  0.00  0.00    +0.000 C 
ATOM     10  C   UNL     1       2.961   5.059  20.053  0.00  0.00    +0.000 A 
ATOM     11  C   UNL     1       3.968   5.240  19.077  0.00  0.00    +0.000 A 
BRANCH   5  15
ATOM     12  C   UNL     1       6.882   4.387  14.157  0.00  0.00    +0.000 C 
ATOM     13  C   UNL     1       6.637   4.452  15.617  0.00  0.00    +0.000 A 
ATOM     14  N   UNL     1       5.500   4.244  16.250  0.00  0.00    +0.000 NA
ATOM     15  C   UNL     1       5.778   4.394  17.592  0.00  0.00    +0.000 A 
ATOM     16  C   UNL     1       7.111   4.704  17.761  0.00  0.00    +0.000 A 
ATOM     17  N   UNL     1       7.642   4.739  16.503  0.00  0.00    +0.000 N 
ATOM     18  H   UNL     1       8.607   4.921  16.266  0.00  0.00    +0.000 HD
ENDBRANCH   5  15
ENDBRANCH   1  10
BRANCH   2  19
ATOM     19  C   UNL     1       1.330   8.510  20.260  0.00  0.00    +0.000 A 
ATOM     20  C   UNL     1       1.017   8.395  21.622  0.00  0.00    +0.000 A 
ATOM     21  C   UNL     1       0.426   9.456  22.308  0.00  0.00    +0.000 A 
ATOM     22  C   UNL     1       0.174  10.656  21.647  0.00  0.00    +0.000 A 
ATOM     23  C   UNL     1       0.408  10.746  20.270  0.00  0.00    +0.000 A 
ATOM     24  C   UNL     1       0.992   9.679  19.573  0.00  0.00    +0.000 A 
BRANCH  22  25
ATOM     25  O   UNL     1      -0.266  11.799  22.257  0.00  0.00    +0.000 OA
BRANCH  25  26
ATOM     26  C   UNL     1      -1.285  11.594  23.250  0.00  0.00    +0.000 C 
BRANCH  26  27
ATOM     27  C   UNL     1      -2.585  12.250  22.851  0.00  0.00    +0.000 A 
ATOM     28  C   UNL     1      -3.578  12.476  23.805  0.00  0.00    +0.000 A 
ATOM     29  C   UNL     1      -4.801  12.996  23.394  0.00  0.00    +0.000 A 
ATOM     30  C   UNL     1      -5.004  13.273  22.048  0.00  0.00    +0.000 A 
ATOM     31  C   UNL     1      -3.972  13.016  21.163  0.00  0.00    +0.000 A 
ATOM     32  N   UNL     1      -2.775  12.508  21.531  0.00  0.00    +0.000 NA
ENDBRANCH  26  27
ENDBRANCH  25  26
ENDBRANCH  22  25
ENDBRANCH   2  19
TORSDOF 6
ENDMDL
MODEL 4
REMARK VINA RESULT:      -8.8      3.446      4.547
REMARK  Name = 
REMARK  8 active torsions:
REMARK  status: ('A' for Active; 'I' for Inactive)
REMARK    1  A    between atoms: C_1  and  C_2
REMARK    2  A    between atoms: C_4  and  C_5
REMARK    3  A    between atoms: C_8  and  C_9
REMARK    4  A    between atoms: C_10  and  N_11
REMARK    5  A    between atoms: C_12  and  C_14
REMARK    6  A    between atoms: C_17  and  O_18
REMARK    7  A    between atoms: O_18  and  C_19
REMARK    8  A    between atoms: C_19  and  C_20
REMARK                            x       y       z     vdW  Elec       q    Type
REMARK                         _______ _______ _______ _____ _____    ______ ____
ROOT
ATOM      1  N   UNL     1       4.592   6.816  17.835  0.00  0.00    +0.000 N 
ATOM      2  C   UNL     1       3.406   6.505  18.468  0.00  0.00    +0.000 C 
ATOM      3  O   UNL     1       3.011   5.390  18.793  0.00  0.00    +0.000 OA
ATOM      4  H   UNL     1       4.858   7.791  17.824  0.00  0.00    +0.000 HD
ENDROOT
BRANCH   1  10
ATOM      5  C   UNL     1       6.306   4.681  15.322  0.00  0.00    +0.000 A 
ATOM      6  C   UNL     1       7.417   4.223  16.028  0.00  0.00    +0.000 A 
ATOM      7  C   UNL     1       7.582   4.553  17.370  0.00  0.00    +0.000 A 
ATOM      8  C   UNL     1       6.646   5.354  18.052  0.00  0.00    +0.000 A 
ATOM      9  C   UNL     1       6.862   5.464  19.537  0.00  0.00    +0.000 C 
ATOM     10  C   UNL     1       5.578   5.921  17.330  0.00  0.00    +0.000 A 
ATOM     11  C   UNL     1       5.410   5.545  15.977  0.00  0.00    +0.000 A 
BRANCH   5  15
ATOM     12  C   UNL     1       3.971   3.128  11.230  0.00  0.00    +0.000 C 
ATOM     13  C   UNL     1       4.997   3.567  12.204  0.00  0.00    +0.000 A 
ATOM     14  N   UNL     1       4.805   3.979  13.442  0.00  0.00    +0.000 NA
ATOM     15  C   UNL     1       6.057   4.252  13.951  0.00  0.00    +0.000 A 
ATOM     16  C   UNL     1       7.016   4.002  12.992  0.00  0.00    +0.000 A 
ATOM     17  N   UNL     1       6.331   3.571  11.891  0.00  0.00    +0.000 N 
ATOM     18  H   UNL     1       6.734   3.284  11.010  0.00  0.00    +0.000 HD
ENDBRANCH   5  15
ENDBRANCH   1  10
BRANCH   2  19
ATOM     19  C   UNL     1       2.517   7.639  18.842  0.00  0.00    +0.000 A 
ATOM     20  C   UNL     1       2.189   8.545  17.824  0.00  0.00    +0.000 A 
ATOM     21  C   UNL     1       1.224   9.531  18.033  0.00  0.00    +0.000 A 
ATOM     22  C   UNL     1       0.553   9.599  19.251  0.00  0.00    +0.000 A 
ATOM     23  C   UNL     1       0.935   8.751  20.296  0.00  0.00    +0.000 A 
ATOM     24  C   UNL     1       1.912   7.764  20.096  0.00  0.00    +0.000 A 
BRANCH  22  25
ATOM     25  O   UNL     1      -0.503  10.430  19.508  0.00  0.00    +0.000 OA
BRANCH  25  26
ATOM     26  C   UNL     1      -0.763  11.404  18.484  0.00  0.00    +0.000 C 
BRANCH  26  27
ATOM     27  C   UNL     1      -2.064  11.122  17.770  0.00  0.00    +0.000 A 
ATOM     28  C   UNL     1      -2.090  10.256  16.677  0.00  0.00    +0.000 A 
ATOM     29  C   UNL     1      -3.283  10.086  15.981  0.00  0.00    +0.000 A 
ATOM     30  C   UNL     1      -4.413  10.783  16.389  0.00  0.00    +0.000 A 
ATOM     31  C   UNL     1      -4.304  11.627  17.479  0.00  0.00    +0.000 A 
ATOM     32  N   UNL     1      -3.160  11.816  18.172  0.00  0.00    +0.000 NA
ENDBRANCH  26  27
ENDBRANCH  25  26
ENDBRANCH  22  25
ENDBRANCH   2  19
TORSDOF 6
ENDMDL
MODEL 5
REMARK VINA RESULT:      -8.8      7.302     10.955
REMARK  Name = 
REMARK  8 active torsions:
REMARK  status: ('A' for Active; 'I' for Inactive)
REMARK    1  A    between atoms: C_1  and  C_2
REMARK    2  A    between atoms: C_4  and  C_5
REMARK    3  A    between atoms: C_8  and  C_9
REMARK    4  A    between atoms: C_10  and  N_11
REMARK    5  A    between atoms: C_12  and  C_14
REMARK    6  A    between atoms: C_17  and  O_18
REMARK    7  A    between atoms: O_18  and  C_19
REMARK    8  A    between atoms: C_19  and  C_20
REMARK                            x       y       z     vdW  Elec       q    Type
REMARK                         _______ _______ _______ _____ _____    ______ ____
ROOT
ATOM      1  N   UNL     1       9.240   9.499  19.304  0.00  0.00    +0.000 N 
ATOM      2  C   UNL     1       8.346   9.275  18.276  0.00  0.00    +0.000 C 
ATOM      3  O   UNL     1       7.834  10.116  17.544  0.00  0.00    +0.000 OA
ATOM      4  H   UNL     1       9.720   8.689  19.670  0.00  0.00    +0.000 HD
ENDROOT
BRANCH   1  10
ATOM      5  C   UNL     1       9.488  12.339  21.687  0.00  0.00    +0.000 A 
ATOM      6  C   UNL     1      10.472  13.134  21.102  0.00  0.00    +0.000 A 
ATOM      7  C   UNL     1      11.020  12.783  19.872  0.00  0.00    +0.000 A 
ATOM      8  C   UNL     1      10.608  11.624  19.185  0.00  0.00    +0.000 A 
ATOM      9  C   UNL     1      11.149  11.483  17.789  0.00  0.00    +0.000 C 
ATOM     10  C   UNL     1       9.700  10.748  19.810  0.00  0.00    +0.000 A 
ATOM     11  C   UNL     1       9.130  11.141  21.043  0.00  0.00    +0.000 A 
BRANCH   5  15
ATOM     12  C   UNL     1       7.878  15.133  25.457  0.00  0.00    +0.000 C 
ATOM     13  C   UNL     1       8.157  14.005  24.538  0.00  0.00    +0.000 A 
ATOM     14  N   UNL     1       8.793  14.047  23.384  0.00  0.00    +0.000 NA
ATOM     15  C   UNL     1       8.822  12.750  22.917  0.00  0.00    +0.000 A 
ATOM     16  C   UNL     1       8.183  11.917  23.811  0.00  0.00    +0.000 A 
ATOM     17  N   UNL     1       7.766  12.724  24.831  0.00  0.00    +0.000 N 
ATOM     18  H   UNL     1       7.277  12.430  25.665  0.00  0.00    +0.000 HD
ENDBRANCH   5  15
ENDBRANCH   1  10
BRANCH   2  19
ATOM     19  C   UNL     1       7.982   7.861  17.986  0.00  0.00    +0.000 A 
ATOM     20  C   UNL     1       8.250   6.922  18.991  0.00  0.00    +0.000 A 
ATOM     21  C   UNL     1       7.785   5.611  18.884  0.00  0.00    +0.000 A 
ATOM     22  C   UNL     1       7.017   5.235  17.784  0.00  0.00    +0.000 A 
ATOM     23  C   UNL     1       6.817   6.145  16.740  0.00  0.00    +0.000 A 
ATOM     24  C   UNL     1       7.292   7.462  16.838  0.00  0.00    +0.000 A 
BRANCH  22  25
ATOM     25  O   UNL     1       6.395   4.024  17.652  0.00  0.00    +0.000 OA
BRANCH  25  26
ATOM     26  C   UNL     1       5.128   4.072  16.975  0.00  0.00    +0.000 C 
BRANCH  26  27
ATOM     27  C   UNL     1       4.017   3.527  17.842  0.00  0.00    +0.000 A 
ATOM     28  C   UNL     1       2.702   3.531  17.379  0.00  0.00    +0.000 A 
ATOM     29  C   UNL     1       1.686   3.109  18.232  0.00  0.00    +0.000 A 
ATOM     30  C   UNL     1       2.007   2.700  19.520  0.00  0.00    +0.000 A 
ATOM     31  C   UNL     1       3.336   2.730  19.905  0.00  0.00    +0.000 A 
ATOM     32  N   UNL     1       4.342   3.138  19.102  0.00  0.00    +0.000 NA
ENDBRANCH  26  27
ENDBRANCH  25  26
ENDBRANCH  22  25
ENDBRANCH   2  19
TORSDOF 6
ENDMDL
MODEL 6
REMARK VINA RESULT:      -8.8      1.089      1.534
REMARK  Name = 
REMARK  8 active torsions:
REMARK  status: ('A' for Active; 'I' for Inactive)
REMARK    1  A    between atoms: C_1  and  C_2
REMARK    2  A    between atoms: C_4  and  C_5
REMARK    3  A    between atoms: C_8  and  C_9
REMARK    4  A    between atoms: C_10  and  N_11
REMARK    5  A    between atoms: C_12  and  C_14
REMARK    6  A    between atoms: C_17  and  O_18
REMARK    7  A    between atoms: O_18  and  C_19
REMARK    8  A    between atoms: C_19  and  C_20
REMARK                            x       y       z     vdW  Elec       q    Type
REMARK                         _______ _______ _______ _____ _____    ______ ____
ROOT
ATOM      1  N   UNL     1       2.209   6.131  20.422  0.00  0.00    +0.000 N 
ATOM      2  C   UNL     1       2.086   7.320  19.733  0.00  0.00    +0.000 C 
ATOM      3  O   UNL     1       2.491   7.566  18.602  0.00  0.00    +0.000 OA
ATOM      4  H   UNL     1       1.645   6.028  21.254  0.00  0.00    +0.000 HD
ENDROOT
BRANCH   1  10
ATOM      5  C   UNL     1       4.692   4.101  18.544  0.00  0.00    +0.000 A 
ATOM      6  C   UNL     1       4.518   2.833  19.096  0.00  0.00    +0.000 A 
ATOM      7  C   UNL     1       3.528   2.610  20.048  0.00  0.00    +0.000 A 
ATOM      8  C   UNL     1       2.679   3.645  20.484  0.00  0.00    +0.000 A 
ATOM      9  C   UNL     1       1.542   3.208  21.367  0.00  0.00    +0.000 C 
ATOM     10  C   UNL     1       2.910   4.956  20.025  0.00  0.00    +0.000 A 
ATOM     11  C   UNL     1       3.898   5.154  19.033  0.00  0.00    +0.000 A 
BRANCH   5  15
ATOM     12  C   UNL     1       6.700   4.338  14.014  0.00  0.00    +0.000 C 
ATOM     13  C   UNL     1       6.474   4.401  15.476  0.00  0.00    +0.000 A 
ATOM     14  N   UNL     1       5.352   4.166  16.127  0.00  0.00    +0.000 NA
ATOM     15  C   UNL     1       5.645   4.327  17.464  0.00  0.00    +0.000 A 
ATOM     16  C   UNL     1       6.972   4.673  17.614  0.00  0.00    +0.000 A 
ATOM     17  N   UNL     1       7.484   4.718  16.348  0.00  0.00    +0.000 N 
ATOM     18  H   UNL     1       8.440   4.925  16.096  0.00  0.00    +0.000 HD
ENDBRANCH   5  15
ENDBRANCH   1  10
BRANCH   2  19
ATOM     19  C   UNL     1       1.346   8.423  20.406  0.00  0.00    +0.000 A 
ATOM     20  C   UNL     1       1.128   8.287  21.784  0.00  0.00    +0.000 A 
ATOM     21  C   UNL     1       0.607   9.344  22.530  0.00  0.00    +0.000 A 
ATOM     22  C   UNL     1       0.329  10.560  21.911  0.00  0.00    +0.000 A 
ATOM     23  C   UNL     1       0.467  10.674  20.523  0.00  0.00    +0.000 A 
ATOM     24  C   UNL     1       0.981   9.610  19.766  0.00  0.00    +0.000 A 
BRANCH  22  25
ATOM     25  O   UNL     1      -0.047  11.697  22.572  0.00  0.00    +0.000 OA
BRANCH  25  26
ATOM     26  C   UNL     1      -1.261  12.298  22.090  0.00  0.00    +0.000 C 
BRANCH  26  27
ATOM     27  C   UNL     1      -1.992  13.027  23.192  0.00  0.00    +0.000 A 
ATOM     28  C   UNL     1      -3.236  12.571  23.628  0.00  0.00    +0.000 A 
ATOM     29  C   UNL     1      -3.930  13.314  24.579  0.00  0.00    +0.000 A 
ATOM     30  C   UNL     1      -3.369  14.488  25.065  0.00  0.00    +0.000 A 
ATOM     31  C   UNL     1      -2.133  14.875  24.578  0.00  0.00    +0.000 A 
ATOM     32  N   UNL     1      -1.438  14.178  23.653  0.00  0.00    +0.000 NA
ENDBRANCH  26  27
ENDBRANCH  25  26
ENDBRANCH  22  25
ENDBRANCH   2  19
TORSDOF 6
ENDMDL
MODEL 7
REMARK VINA RESULT:      -8.8      1.431      1.596
REMARK  Name = 
REMARK  8 active torsions:
REMARK  status: ('A' for Active; 'I' for Inactive)
REMARK    1  A    between atoms: C_1  and  C_2
REMARK    2  A    between atoms: C_4  and  C_5
REMARK    3  A    between atoms: C_8  and  C_9
REMARK    4  A    between atoms: C_10  and  N_11
REMARK    5  A    between atoms: C_12  and  C_14
REMARK    6  A    between atoms: C_17  and  O_18
REMARK    7  A    between atoms: O_18  and  C_19
REMARK    8  A    between atoms: C_19  and  C_20
REMARK                            x       y       z     vdW  Elec       q    Type
REMARK                         _______ _______ _______ _____ _____    ______ ____
ROOT
ATOM      1  N   UNL     1       2.190   6.253  20.183  0.00  0.00    +0.000 N 
ATOM      2  C   UNL     1       1.935   7.490  19.626  0.00  0.00    +0.000 C 
ATOM      3  O   UNL     1       2.012   7.799  18.442  0.00  0.00    +0.000 OA
ATOM      4  H   UNL     1       1.883   6.113  21.135  0.00  0.00    +0.000 HD
ENDROOT
BRANCH   1  10
ATOM      5  C   UNL     1       4.457   4.240  18.034  0.00  0.00    +0.000 A 
ATOM      6  C   UNL     1       3.951   2.951  18.193  0.00  0.00    +0.000 A 
ATOM      7  C   UNL     1       2.808   2.733  18.955  0.00  0.00    +0.000 A 
ATOM      8  C   UNL     1       2.132   3.794  19.589  0.00  0.00    +0.000 A 
ATOM      9  C   UNL     1       0.813   3.428  20.213  0.00  0.00    +0.000 C 
ATOM     10  C   UNL     1       2.689   5.086  19.536  0.00  0.00    +0.000 A 
ATOM     11  C   UNL     1       3.831   5.291  18.728  0.00  0.00    +0.000 A 
BRANCH   5  15
ATOM     12  C   UNL     1       7.161   4.868  13.923  0.00  0.00    +0.000 C 
ATOM     13  C   UNL     1       6.717   4.753  15.331  0.00  0.00    +0.000 A 
ATOM     14  N   UNL     1       5.490   4.562  15.773  0.00  0.00    +0.000 NA
ATOM     15  C   UNL     1       5.585   4.502  17.147  0.00  0.00    +0.000 A 
ATOM     16  C   UNL     1       6.898   4.667  17.533  0.00  0.00    +0.000 A 
ATOM     17  N   UNL     1       7.604   4.827  16.374  0.00  0.00    +0.000 N 
ATOM     18  H   UNL     1       8.603   4.954  16.294  0.00  0.00    +0.000 HD
ENDBRANCH   5  15
ENDBRANCH   1  10
BRANCH   2  19
ATOM     19  C   UNL     1       1.475   8.568  20.545  0.00  0.00    +0.000 A 
ATOM     20  C   UNL     1       0.892   9.696  19.952  0.00  0.00    +0.000 A 
ATOM     21  C   UNL     1       0.273  10.671  20.734  0.00  0.00    +0.000 A 
ATOM     22  C   UNL     1       0.201  10.511  22.115  0.00  0.00    +0.000 A 
ATOM     23  C   UNL     1       0.853   9.429  22.718  0.00  0.00    +0.000 A 
ATOM     24  C   UNL     1       1.486   8.451  21.938  0.00  0.00    +0.000 A 
BRANCH  22  25
ATOM     25  O   UNL     1      -0.504  11.330  22.954  0.00  0.00    +0.000 OA
BRANCH  25  26
ATOM     26  C   UNL     1      -0.863  12.602  22.389  0.00  0.00    +0.000 C 
BRANCH  26  27
ATOM     27  C   UNL     1      -1.577  13.472  23.395  0.00  0.00    +0.000 A 
ATOM     28  C   UNL     1      -2.937  13.285  23.643  0.00  0.00    +0.000 A 
ATOM     29  C   UNL     1      -3.591  14.160  24.506  0.00  0.00    +0.000 A 
ATOM     30  C   UNL     1      -2.876  15.196  25.093  0.00  0.00    +0.000 A 
ATOM     31  C   UNL     1      -1.531  15.317  24.792  0.00  0.00    +0.000 A 
ATOM     32  N   UNL     1      -0.871  14.487  23.956  0.00  0.00    +0.000 NA
ENDBRANCH  26  27
ENDBRANCH  25  26
ENDBRANCH  22  25
ENDBRANCH   2  19
TORSDOF 6
ENDMDL
MODEL 8
REMARK VINA RESULT:      -8.8      6.553     10.844
REMARK  Name = 
REMARK  8 active torsions:
REMARK  status: ('A' for Active; 'I' for Inactive)
REMARK    1  A    between atoms: C_1  and  C_2
REMARK    2  A    between atoms: C_4  and  C_5
REMARK    3  A    between atoms: C_8  and  C_9
REMARK    4  A    between atoms: C_10  and  N_11
REMARK    5  A    between atoms: C_12  and  C_14
REMARK    6  A    between atoms: C_17  and  O_18
REMARK    7  A    between atoms: O_18  and  C_19
REMARK    8  A    between atoms: C_19  and  C_20
REMARK                            x       y       z     vdW  Elec       q    Type
REMARK                         _______ _______ _______ _____ _____    ______ ____
ROOT
ATOM      1  N   UNL     1       9.155   9.562  19.350  0.00  0.00    +0.000 N 
ATOM      2  C   UNL     1       8.355   9.343  18.247  0.00  0.00    +0.000 C 
ATOM      3  O   UNL     1       7.994  10.171  17.418  0.00  0.00    +0.000 OA
ATOM      4  H   UNL     1       9.525   8.743  19.812  0.00  0.00    +0.000 HD
ENDROOT
BRANCH   1  10
ATOM      5  C   UNL     1       9.391  12.525  21.581  0.00  0.00    +0.000 A 
ATOM      6  C   UNL     1      10.494  13.200  21.063  0.00  0.00    +0.000 A 
ATOM      7  C   UNL     1      11.137  12.727  19.923  0.00  0.00    +0.000 A 
ATOM      8  C   UNL     1      10.702  11.562  19.262  0.00  0.00    +0.000 A 
ATOM      9  C   UNL     1      11.374  11.288  17.945  0.00  0.00    +0.000 C 
ATOM     10  C   UNL     1       9.663  10.802  19.832  0.00  0.00    +0.000 A 
ATOM     11  C   UNL     1       9.002  11.319  20.971  0.00  0.00    +0.000 A 
BRANCH   5  15
ATOM     12  C   UNL     1       5.981  13.037  25.147  0.00  0.00    +0.000 C 
ATOM     13  C   UNL     1       7.126  13.247  24.231  0.00  0.00    +0.000 A 
ATOM     14  N   UNL     1       7.578  12.421  23.309  0.00  0.00    +0.000 NA
ATOM     15  C   UNL     1       8.636  13.067  22.705  0.00  0.00    +0.000 A 
ATOM     16  C   UNL     1       8.822  14.304  23.285  0.00  0.00    +0.000 A 
ATOM     17  N   UNL     1       7.860  14.404  24.250  0.00  0.00    +0.000 N 
ATOM     18  H   UNL     1       7.701  15.197  24.856  0.00  0.00    +0.000 HD
ENDBRANCH   5  15
ENDBRANCH   1  10
BRANCH   2  19
ATOM     19  C   UNL     1       7.907   7.945  17.999  0.00  0.00    +0.000 A 
ATOM     20  C   UNL     1       8.311   6.978  18.930  0.00  0.00    +0.000 A 
ATOM     21  C   UNL     1       7.795   5.682  18.881  0.00  0.00    +0.000 A 
ATOM     22  C   UNL     1       6.843   5.350  17.920  0.00  0.00    +0.000 A 
ATOM     23  C   UNL     1       6.499   6.287  16.939  0.00  0.00    +0.000 A 
ATOM     24  C   UNL     1       7.022   7.588  16.977  0.00  0.00    +0.000 A 
BRANCH  22  25
ATOM     25  O   UNL     1       6.172   4.159  17.875  0.00  0.00    +0.000 OA
BRANCH  25  26
ATOM     26  C   UNL     1       5.176   4.071  16.843  0.00  0.00    +0.000 C 
BRANCH  26  27
ATOM     27  C   UNL     1       3.840   3.640  17.400  0.00  0.00    +0.000 A 
ATOM     28  C   UNL     1       2.801   4.563  17.520  0.00  0.00    +0.000 A 
ATOM     29  C   UNL     1       1.611   4.163  18.121  0.00  0.00    +0.000 A 
ATOM     30  C   UNL     1       1.490   2.860  18.588  0.00  0.00    +0.000 A 
ATOM     31  C   UNL     1       2.568   2.006  18.435  0.00  0.00    +0.000 A 
ATOM     32  N   UNL     1       3.737   2.367  17.860  0.00  0.00    +0.000 NA
ENDBRANCH  26  27
ENDBRANCH  25  26
ENDBRANCH  22  25
ENDBRANCH   2  19
TORSDOF 6
ENDMDL
MODEL 9
REMARK VINA RESULT:      -8.7      2.495      2.991
REMARK  Name = 
REMARK  8 active torsions:
REMARK  status: ('A' for Active; 'I' for Inactive)
REMARK    1  A    between atoms: C_1  and  C_2
REMARK    2  A    between atoms: C_4  and  C_5
REMARK    3  A    between atoms: C_8  and  C_9
REMARK    4  A    between atoms: C_10  and  N_11
REMARK    5  A    between atoms: C_12  and  C_14
REMARK    6  A    between atoms: C_17  and  O_18
REMARK    7  A    between atoms: O_18  and  C_19
REMARK    8  A    between atoms: C_19  and  C_20
REMARK                            x       y       z     vdW  Elec       q    Type
REMARK                         _______ _______ _______ _____ _____    ______ ____
ROOT
ATOM      1  N   UNL     1       2.247   6.586  18.708  0.00  0.00    +0.000 N 
ATOM      2  C   UNL     1       1.980   6.898  20.026  0.00  0.00    +0.000 C 
ATOM      3  O   UNL     1       2.257   6.229  21.016  0.00  0.00    +0.000 OA
ATOM      4  H   UNL     1       2.139   7.332  18.035  0.00  0.00    +0.000 HD
ENDROOT
BRANCH   1  10
ATOM      5  C   UNL     1       4.588   4.491  16.723  0.00  0.00    +0.000 A 
ATOM      6  C   UNL     1       4.193   3.199  17.064  0.00  0.00    +0.000 A 
ATOM      7  C   UNL     1       3.099   2.995  17.899  0.00  0.00    +0.000 A 
ATOM      8  C   UNL     1       2.363   4.074  18.426  0.00  0.00    +0.000 A 
ATOM      9  C   UNL     1       1.102   3.693  19.151  0.00  0.00    +0.000 C 
ATOM     10  C   UNL     1       2.813   5.387  18.188  0.00  0.00    +0.000 A 
ATOM     11  C   UNL     1       3.905   5.572  17.309  0.00  0.00    +0.000 A 
BRANCH   5  15
ATOM     12  C   UNL     1       7.237   4.425  12.529  0.00  0.00    +0.000 C 
ATOM     13  C   UNL     1       6.774   4.654  13.917  0.00  0.00    +0.000 A 
ATOM     14  N   UNL     1       5.609   4.326  14.440  0.00  0.00    +0.000 NA
ATOM     15  C   UNL     1       5.658   4.722  15.760  0.00  0.00    +0.000 A 
ATOM     16  C   UNL     1       6.879   5.304  16.028  0.00  0.00    +0.000 A 
ATOM     17  N   UNL     1       7.574   5.257  14.853  0.00  0.00    +0.000 N 
ATOM     18  H   UNL     1       8.518   5.585  14.702  0.00  0.00    +0.000 HD
ENDBRANCH   5  15
ENDBRANCH   1  10
BRANCH   2  19
ATOM     19  C   UNL     1       1.319   8.204  20.295  0.00  0.00    +0.000 A 
ATOM     20  C   UNL     1       1.384   9.166  19.277  0.00  0.00    +0.000 A 
ATOM     21  C   UNL     1       0.647  10.347  19.365  0.00  0.00    +0.000 A 
ATOM     22  C   UNL     1      -0.190  10.563  20.457  0.00  0.00    +0.000 A 
ATOM     23  C   UNL     1      -0.195   9.645  21.514  0.00  0.00    +0.000 A 
ATOM     24  C   UNL     1       0.553   8.461  21.435  0.00  0.00    +0.000 A 
BRANCH  22  25
ATOM     25  O   UNL     1      -1.059  11.614  20.571  0.00  0.00    +0.000 OA
BRANCH  25  26
ATOM     26  C   UNL     1      -1.289  12.336  19.350  0.00  0.00    +0.000 C 
BRANCH  26  27
ATOM     27  C   UNL     1      -2.547  11.866  18.658  0.00  0.00    +0.000 A 
ATOM     28  C   UNL     1      -2.469  11.235  17.417  0.00  0.00    +0.000 A 
ATOM     29  C   UNL     1      -3.648  10.895  16.760  0.00  0.00    +0.000 A 
ATOM     30  C   UNL     1      -4.868  11.196  17.352  0.00  0.00    +0.000 A 
ATOM     31  C   UNL     1      -4.860  11.828  18.583  0.00  0.00    +0.000 A 
ATOM     32  N   UNL     1      -3.733  12.174  19.243  0.00  0.00    +0.000 NA
ENDBRANCH  26  27
ENDBRANCH  25  26
ENDBRANCH  22  25
ENDBRANCH   2  19
TORSDOF 6
ENDMDL
