MODEL 1
REMARK VINA RESULT:      -8.1      0.000      0.000
REMARK  Name = 
REMARK  6 active torsions:
REMARK  status: ('A' for Active; 'I' for Inactive)
REMARK    1  A    between atoms: N_1  and  C_2
REMARK    2  A    between atoms: C_5  and  S_6
REMARK    3  A    between atoms: S_6  and  N_9
REMARK    4  A    between atoms: N_9  and  C_10
REMARK    5  A    between atoms: C_10  and  C_11
REMARK    6  A    between atoms: N_18  and  C_19
REMARK                            x       y       z     vdW  Elec       q    Type
REMARK                         _______ _______ _______ _____ _____    ______ ____
ROOT
ATOM      1  C   UNL     1       3.060   3.490  18.674  0.00  0.00    +0.000 C 
ATOM      2  N   UNL     1       3.712   3.971  19.868  0.00  0.00    +0.000 N 
ATOM      3  C   UNL     1       2.777   4.728  20.545  0.00  0.00    +0.000 C 
ATOM      4  O   UNL     1       2.600   4.660  21.749  0.00  0.00    +0.000 OA
ATOM      5  N   UNL     1       2.041   5.409  19.616  0.00  0.00    +0.000 N 
ATOM      6  C   UNL     1       2.011   4.624  18.484  0.00  0.00    +0.000 C 
ATOM      7  O   UNL     1       1.349   4.771  17.462  0.00  0.00    +0.000 OA
ATOM      8  H   UNL     1       4.503   4.547  19.604  0.00  0.00    +0.000 HD
ENDROOT
BRANCH   5   9
ATOM      9  C   UNL     1       1.948   6.829  19.663  0.00  0.00    +0.000 A 
ATOM     10  C   UNL     1       2.188   7.576  18.491  0.00  0.00    +0.000 A 
ATOM     11  C   UNL     1       1.780   8.903  18.376  0.00  0.00    +0.000 A 
ATOM     12  C   UNL     1       1.160   9.528  19.449  0.00  0.00    +0.000 A 
ATOM     13  C   UNL     1       1.002   8.835  20.646  0.00  0.00    +0.000 A 
ATOM     14 CL   UNL     1       0.225   9.614  21.969  0.00  0.00    +0.000 Cl
ATOM     15  C   UNL     1       1.403   7.499  20.766  0.00  0.00    +0.000 A 
ENDBRANCH   5   9
BRANCH   1  16
ATOM     16  C   UNL     1       2.312   2.149  18.890  0.00  0.00    +0.000 C 
ATOM     17  F   UNL     1       3.065   1.095  18.503  0.00  0.00    +0.000 F 
ATOM     18  F   UNL     1       2.010   1.954  20.198  0.00  0.00    +0.000 F 
ATOM     19  F   UNL     1       1.149   2.077  18.205  0.00  0.00    +0.000 F 
ENDBRANCH   1  16
BRANCH   1  20
ATOM     20  N   UNL     1       3.924   3.622  17.468  0.00  0.00    +0.000 NA
ATOM     21  H   UNL     1       4.086   2.711  17.025  0.00  0.00    +0.000 HD
BRANCH  20  22
ATOM     22  S   UNL     1       5.304   4.551  17.503  0.00  0.00    +0.000 S 
ATOM     23  O   UNL     1       6.241   3.919  18.400  0.00  0.00    +0.000 OA
ATOM     24  O   UNL     1       4.867   5.917  17.706  0.00  0.00    +0.000 OA
BRANCH  22  28
ATOM     25  C   UNL     1       6.943   4.393  13.241  0.00  0.00    +0.000 A 
ATOM     26  C   UNL     1       5.725   3.785  13.559  0.00  0.00    +0.000 A 
ATOM     27  C   UNL     1       5.230   3.813  14.865  0.00  0.00    +0.000 A 
ATOM     28  C   UNL     1       5.953   4.481  15.856  0.00  0.00    +0.000 A 
ATOM     29  C   UNL     1       7.126   5.163  15.540  0.00  0.00    +0.000 A 
ATOM     30  C   UNL     1       7.606   5.129  14.228  0.00  0.00    +0.000 A 
BRANCH  25  31
ATOM     31  N   UNL     1       7.367   4.468  11.910  0.00  0.00    +0.000 N 
ATOM     32  H   UNL     1       7.558   5.411  11.589  0.00  0.00    +0.000 HD
ATOM     33  H   UNL     1       6.779   3.955  11.260  0.00  0.00    +0.000 HD
ENDBRANCH  25  31
ENDBRANCH  22  28
ENDBRANCH  20  22
ENDBRANCH   1  20
TORSDOF 6
ENDMDL
MODEL 2
REMARK VINA RESULT:      -7.9      0.418      1.226
REMARK  Name = 
REMARK  6 active torsions:
REMARK  status: ('A' for Active; 'I' for Inactive)
REMARK    1  A    between atoms: N_1  and  C_2
REMARK    2  A    between atoms: C_5  and  S_6
REMARK    3  A    between atoms: S_6  and  N_9
REMARK    4  A    between atoms: N_9  and  C_10
REMARK    5  A    between atoms: C_10  and  C_11
REMARK    6  A    between atoms: N_18  and  C_19
REMARK                            x       y       z     vdW  Elec       q    Type
REMARK                         _______ _______ _______ _____ _____    ______ ____
ROOT
ATOM      1  C   UNL     1       2.955   3.607  18.504  0.00  0.00    +0.000 C 
ATOM      2  N   UNL     1       3.653   4.001  19.704  0.00  0.00    +0.000 N 
ATOM      3  C   UNL     1       2.745   4.706  20.469  0.00  0.00    +0.000 C 
ATOM      4  O   UNL     1       2.615   4.551  21.671  0.00  0.00    +0.000 OA
ATOM      5  N   UNL     1       1.974   5.450  19.621  0.00  0.00    +0.000 N 
ATOM      6  C   UNL     1       1.900   4.749  18.437  0.00  0.00    +0.000 C 
ATOM      7  O   UNL     1       1.199   4.969  17.455  0.00  0.00    +0.000 OA
ATOM      8  H   UNL     1       4.433   4.596  19.452  0.00  0.00    +0.000 HD
ENDROOT
BRANCH   5   9
ATOM      9  C   UNL     1       1.884   6.864  19.774  0.00  0.00    +0.000 A 
ATOM     10  C   UNL     1       2.157   7.696  18.669  0.00  0.00    +0.000 A 
ATOM     11  C   UNL     1       1.756   9.030  18.646  0.00  0.00    +0.000 A 
ATOM     12  C   UNL     1       1.111   9.575  19.746  0.00  0.00    +0.000 A 
ATOM     13  C   UNL     1       0.919   8.793  20.883  0.00  0.00    +0.000 A 
ATOM     14 CL   UNL     1       0.110   9.473  22.241  0.00  0.00    +0.000 Cl
ATOM     15  C   UNL     1       1.313   7.450  20.910  0.00  0.00    +0.000 A 
ENDBRANCH   5   9
BRANCH   1  16
ATOM     16  C   UNL     1       2.214   2.252  18.652  0.00  0.00    +0.000 C 
ATOM     17  F   UNL     1       0.916   2.433  18.983  0.00  0.00    +0.000 F 
ATOM     18  F   UNL     1       2.227   1.550  17.492  0.00  0.00    +0.000 F 
ATOM     19  F   UNL     1       2.757   1.455  19.598  0.00  0.00    +0.000 F 
ENDBRANCH   1  16
BRANCH   1  20
ATOM     20  N   UNL     1       3.771   3.827  17.278  0.00  0.00    +0.000 NA
ATOM     21  H   UNL     1       3.861   2.964  16.730  0.00  0.00    +0.000 HD
BRANCH  20  22
ATOM     22  S   UNL     1       5.203   4.671  17.346  0.00  0.00    +0.000 S 
ATOM     23  O   UNL     1       6.099   3.956  18.223  0.00  0.00    +0.000 OA
ATOM     24  O   UNL     1       4.847   6.054  17.595  0.00  0.00    +0.000 OA
BRANCH  22  28
ATOM     25  C   UNL     1       6.914   4.512  13.113  0.00  0.00    +0.000 A 
ATOM     26  C   UNL     1       7.617   5.144  14.142  0.00  0.00    +0.000 A 
ATOM     27  C   UNL     1       7.088   5.214  15.433  0.00  0.00    +0.000 A 
ATOM     28  C   UNL     1       5.853   4.619  15.699  0.00  0.00    +0.000 A 
ATOM     29  C   UNL     1       5.178   3.912  14.706  0.00  0.00    +0.000 A 
ATOM     30  C   UNL     1       5.722   3.848  13.420  0.00  0.00    +0.000 A 
BRANCH  25  31
ATOM     31  N   UNL     1       7.506   4.339  11.857  0.00  0.00    +0.000 N 
ATOM     32  H   UNL     1       8.380   3.821  11.880  0.00  0.00    +0.000 HD
ATOM     33  H   UNL     1       7.584   5.194  11.315  0.00  0.00    +0.000 HD
ENDBRANCH  25  31
ENDBRANCH  22  28
ENDBRANCH  20  22
ENDBRANCH   1  20
TORSDOF 6
ENDMDL
MODEL 3
REMARK VINA RESULT:      -7.7      4.240      7.512
REMARK  Name = 
REMARK  6 active torsions:
REMARK  status: ('A' for Active; 'I' for Inactive)
REMARK    1  A    between atoms: N_1  and  C_2
REMARK    2  A    between atoms: C_5  and  S_6
REMARK    3  A    between atoms: S_6  and  N_9
REMARK    4  A    between atoms: N_9  and  C_10
REMARK    5  A    between atoms: C_10  and  C_11
REMARK    6  A    between atoms: N_18  and  C_19
REMARK                            x       y       z     vdW  Elec       q    Type
REMARK                         _______ _______ _______ _____ _____    ______ ____
ROOT
ATOM      1  C   UNL     1       5.209   5.198  17.513  0.00  0.00    +0.000 C 
ATOM      2  N   UNL     1       6.014   4.015  17.326  0.00  0.00    +0.000 N 
ATOM      3  C   UNL     1       7.044   4.374  16.480  0.00  0.00    +0.000 C 
ATOM      4  O   UNL     1       8.204   4.045  16.656  0.00  0.00    +0.000 OA
ATOM      5  N   UNL     1       6.539   5.243  15.554  0.00  0.00    +0.000 N 
ATOM      6  C   UNL     1       5.515   5.927  16.172  0.00  0.00    +0.000 C 
ATOM      7  O   UNL     1       4.883   6.897  15.768  0.00  0.00    +0.000 OA
ATOM      8  H   UNL     1       5.446   3.293  16.898  0.00  0.00    +0.000 HD
ENDROOT
BRANCH   5   9
ATOM      9  C   UNL     1       6.652   4.965  14.162  0.00  0.00    +0.000 A 
ATOM     10  C   UNL     1       7.676   5.584  13.416  0.00  0.00    +0.000 A 
ATOM     11  C   UNL     1       8.059   5.103  12.165  0.00  0.00    +0.000 A 
ATOM     12  C   UNL     1       7.395   4.017  11.613  0.00  0.00    +0.000 A 
ATOM     13  C   UNL     1       6.318   3.455  12.293  0.00  0.00    +0.000 A 
ATOM     14 CL   UNL     1       5.505   2.103  11.606  0.00  0.00    +0.000 Cl
ATOM     15  C   UNL     1       5.933   3.929  13.553  0.00  0.00    +0.000 A 
ENDBRANCH   5   9
BRANCH   1  16
ATOM     16  C   UNL     1       5.699   6.085  18.686  0.00  0.00    +0.000 C 
ATOM     17  F   UNL     1       4.662   6.583  19.396  0.00  0.00    +0.000 F 
ATOM     18  F   UNL     1       6.465   5.380  19.556  0.00  0.00    +0.000 F 
ATOM     19  F   UNL     1       6.440   7.138  18.278  0.00  0.00    +0.000 F 
ENDBRANCH   1  16
BRANCH   1  20
ATOM     20  N   UNL     1       3.751   4.909  17.417  0.00  0.00    +0.000 NA
ATOM     21  H   UNL     1       3.209   5.516  18.042  0.00  0.00    +0.000 HD
BRANCH  20  22
ATOM     22  S   UNL     1       3.188   3.344  17.429  0.00  0.00    +0.000 S 
ATOM     23  O   UNL     1       4.322   2.463  17.275  0.00  0.00    +0.000 OA
ATOM     24  O   UNL     1       2.072   3.307  16.504  0.00  0.00    +0.000 OA
BRANCH  22  28
ATOM     25  C   UNL     1       1.384   2.706  21.578  0.00  0.00    +0.000 A 
ATOM     26  C   UNL     1       0.568   3.019  20.487  0.00  0.00    +0.000 A 
ATOM     27  C   UNL     1       1.118   3.236  19.221  0.00  0.00    +0.000 A 
ATOM     28  C   UNL     1       2.497   3.110  19.044  0.00  0.00    +0.000 A 
ATOM     29  C   UNL     1       3.315   2.716  20.101  0.00  0.00    +0.000 A 
ATOM     30  C   UNL     1       2.749   2.500  21.360  0.00  0.00    +0.000 A 
BRANCH  25  31
ATOM     31  N   UNL     1       0.813   2.369  22.810  0.00  0.00    +0.000 N 
ATOM     32  H   UNL     1       1.186   2.893  23.595  0.00  0.00    +0.000 HD
ATOM     33  H   UNL     1       0.788   1.371  22.994  0.00  0.00    +0.000 HD
ENDBRANCH  25  31
ENDBRANCH  22  28
ENDBRANCH  20  22
ENDBRANCH   1  20
TORSDOF 6
ENDMDL
MODEL 4
REMARK VINA RESULT:      -7.7      3.199      5.615
REMARK  Name = 
REMARK  6 active torsions:
REMARK  status: ('A' for Active; 'I' for Inactive)
REMARK    1  A    between atoms: N_1  and  C_2
REMARK    2  A    between atoms: C_5  and  S_6
REMARK    3  A    between atoms: S_6  and  N_9
REMARK    4  A    between atoms: N_9  and  C_10
REMARK    5  A    between atoms: C_10  and  C_11
REMARK    6  A    between atoms: N_18  and  C_19
REMARK                            x       y       z     vdW  Elec       q    Type
REMARK                         _______ _______ _______ _____ _____    ______ ____
ROOT
ATOM      1  C   UNL     1       5.809   4.624  17.372  0.00  0.00    +0.000 C 
ATOM      2  N   UNL     1       4.982   5.044  16.267  0.00  0.00    +0.000 N 
ATOM      3  C   UNL     1       4.699   6.380  16.478  0.00  0.00    +0.000 C 
ATOM      4  O   UNL     1       4.742   7.223  15.599  0.00  0.00    +0.000 OA
ATOM      5  N   UNL     1       4.523   6.561  17.821  0.00  0.00    +0.000 N 
ATOM      6  C   UNL     1       5.320   5.632  18.453  0.00  0.00    +0.000 C 
ATOM      7  O   UNL     1       5.586   5.530  19.646  0.00  0.00    +0.000 OA
ATOM      8  H   UNL     1       4.126   4.502  16.269  0.00  0.00    +0.000 HD
ENDROOT
BRANCH   5   9
ATOM      9  C   UNL     1       3.313   7.120  18.324  0.00  0.00    +0.000 A 
ATOM     10  C   UNL     1       2.695   6.529  19.445  0.00  0.00    +0.000 A 
ATOM     11  C   UNL     1       1.733   7.210  20.190  0.00  0.00    +0.000 A 
ATOM     12  C   UNL     1       1.337   8.482  19.803  0.00  0.00    +0.000 A 
ATOM     13  C   UNL     1       1.868   9.042  18.644  0.00  0.00    +0.000 A 
ATOM     14 CL   UNL     1       1.378  10.624  18.176  0.00  0.00    +0.000 Cl
ATOM     15  C   UNL     1       2.839   8.366  17.896  0.00  0.00    +0.000 A 
ENDBRANCH   5   9
BRANCH   1  16
ATOM     16  C   UNL     1       7.321   4.858  17.120  0.00  0.00    +0.000 C 
ATOM     17  F   UNL     1       7.661   4.563  15.845  0.00  0.00    +0.000 F 
ATOM     18  F   UNL     1       7.665   6.153  17.327  0.00  0.00    +0.000 F 
ATOM     19  F   UNL     1       8.112   4.110  17.922  0.00  0.00    +0.000 F 
ENDBRANCH   1  16
BRANCH   1  20
ATOM     20  N   UNL     1       5.388   3.306  17.923  0.00  0.00    +0.000 NA
ATOM     21  H   UNL     1       6.136   2.609  17.835  0.00  0.00    +0.000 HD
BRANCH  20  22
ATOM     22  S   UNL     1       3.896   2.666  17.559  0.00  0.00    +0.000 S 
ATOM     23  O   UNL     1       4.087   1.292  17.161  0.00  0.00    +0.000 OA
ATOM     24  O   UNL     1       3.247   3.623  16.684  0.00  0.00    +0.000 OA
BRANCH  22  28
ATOM     25  C   UNL     1       1.543   2.714  21.475  0.00  0.00    +0.000 A 
ATOM     26  C   UNL     1       0.882   2.789  20.246  0.00  0.00    +0.000 A 
ATOM     27  C   UNL     1       1.599   2.796  19.047  0.00  0.00    +0.000 A 
ATOM     28  C   UNL     1       2.991   2.699  19.082  0.00  0.00    +0.000 A 
ATOM     29  C   UNL     1       3.661   2.539  20.294  0.00  0.00    +0.000 A 
ATOM     30  C   UNL     1       2.929   2.530  21.484  0.00  0.00    +0.000 A 
BRANCH  25  31
ATOM     31  N   UNL     1       0.813   2.581  22.661  0.00  0.00    +0.000 N 
ATOM     32  H   UNL     1      -0.061   3.098  22.668  0.00  0.00    +0.000 HD
ATOM     33  H   UNL     1       1.359   2.743  23.502  0.00  0.00    +0.000 HD
ENDBRANCH  25  31
ENDBRANCH  22  28
ENDBRANCH  20  22
ENDBRANCH   1  20
TORSDOF 6
ENDMDL
MODEL 5
REMARK VINA RESULT:      -7.6      3.030      6.895
REMARK  Name = 
REMARK  6 active torsions:
REMARK  status: ('A' for Active; 'I' for Inactive)
REMARK    1  A    between atoms: N_1  and  C_2
REMARK    2  A    between atoms: C_5  and  S_6
REMARK    3  A    between atoms: S_6  and  N_9
REMARK    4  A    between atoms: N_9  and  C_10
REMARK    5  A    between atoms: C_10  and  C_11
REMARK    6  A    between atoms: N_18  and  C_19
REMARK                            x       y       z     vdW  Elec       q    Type
REMARK                         _______ _______ _______ _____ _____    ______ ____
ROOT
ATOM      1  C   UNL     1       2.834   4.235  19.793  0.00  0.00    +0.000 C 
ATOM      2  N   UNL     1       2.222   3.857  18.542  0.00  0.00    +0.000 N 
ATOM      3  C   UNL     1       3.176   3.145  17.841  0.00  0.00    +0.000 C 
ATOM      4  O   UNL     1       2.938   2.113  17.239  0.00  0.00    +0.000 OA
ATOM      5  N   UNL     1       4.389   3.727  18.082  0.00  0.00    +0.000 N 
ATOM      6  C   UNL     1       4.324   4.267  19.348  0.00  0.00    +0.000 C 
ATOM      7  O   UNL     1       5.224   4.752  20.025  0.00  0.00    +0.000 OA
ATOM      8  H   UNL     1       1.967   4.694  18.032  0.00  0.00    +0.000 HD
ENDROOT
BRANCH   5   9
ATOM      9  C   UNL     1       5.197   4.192  17.004  0.00  0.00    +0.000 A 
ATOM     10  C   UNL     1       6.506   4.643  17.268  0.00  0.00    +0.000 A 
ATOM     11  C   UNL     1       7.451   4.773  16.251  0.00  0.00    +0.000 A 
ATOM     12  C   UNL     1       7.093   4.496  14.940  0.00  0.00    +0.000 A 
ATOM     13  C   UNL     1       5.778   4.143  14.649  0.00  0.00    +0.000 A 
ATOM     14 CL   UNL     1       5.344   3.792  13.021  0.00  0.00    +0.000 Cl
ATOM     15  C   UNL     1       4.826   4.003  15.667  0.00  0.00    +0.000 A 
ENDBRANCH   5   9
BRANCH   1  16
ATOM     16  C   UNL     1       2.666   3.160  20.898  0.00  0.00    +0.000 C 
ATOM     17  F   UNL     1       3.771   2.388  21.007  0.00  0.00    +0.000 F 
ATOM     18  F   UNL     1       2.463   3.725  22.114  0.00  0.00    +0.000 F 
ATOM     19  F   UNL     1       1.624   2.330  20.673  0.00  0.00    +0.000 F 
ENDBRANCH   1  16
BRANCH   1  20
ATOM     20  N   UNL     1       2.555   5.653  20.150  0.00  0.00    +0.000 NA
ATOM     21  H   UNL     1       1.806   5.722  20.848  0.00  0.00    +0.000 HD
BRANCH  20  22
ATOM     22  S   UNL     1       2.416   6.819  18.972  0.00  0.00    +0.000 S 
ATOM     23  O   UNL     1       1.549   6.305  17.939  0.00  0.00    +0.000 OA
ATOM     24  O   UNL     1       3.765   7.259  18.676  0.00  0.00    +0.000 OA
BRANCH  22  28
ATOM     25  C   UNL     1       0.384  10.352  21.038  0.00  0.00    +0.000 A 
ATOM     26  C   UNL     1       0.731   9.207  21.761  0.00  0.00    +0.000 A 
ATOM     27  C   UNL     1       1.334   8.116  21.129  0.00  0.00    +0.000 A 
ATOM     28  C   UNL     1       1.614   8.187  19.763  0.00  0.00    +0.000 A 
ATOM     29  C   UNL     1       1.352   9.352  19.044  0.00  0.00    +0.000 A 
ATOM     30  C   UNL     1       0.753  10.435  19.692  0.00  0.00    +0.000 A 
BRANCH  25  31
ATOM     31  N   UNL     1      -0.102  11.484  21.701  0.00  0.00    +0.000 N 
ATOM     32  H   UNL     1       0.354  11.671  22.588  0.00  0.00    +0.000 HD
ATOM     33  H   UNL     1      -1.114  11.514  21.778  0.00  0.00    +0.000 HD
ENDBRANCH  25  31
ENDBRANCH  22  28
ENDBRANCH  20  22
ENDBRANCH   1  20
TORSDOF 6
ENDMDL
MODEL 6
REMARK VINA RESULT:      -7.6      2.673      6.674
REMARK  Name = 
REMARK  6 active torsions:
REMARK  status: ('A' for Active; 'I' for Inactive)
REMARK    1  A    between atoms: N_1  and  C_2
REMARK    2  A    between atoms: C_5  and  S_6
REMARK    3  A    between atoms: S_6  and  N_9
REMARK    4  A    between atoms: N_9  and  C_10
REMARK    5  A    between atoms: C_10  and  C_11
REMARK    6  A    between atoms: N_18  and  C_19
REMARK                            x       y       z     vdW  Elec       q    Type
REMARK                         _______ _______ _______ _____ _____    ______ ____
ROOT
ATOM      1  C   UNL     1       1.960   4.175  19.263  0.00  0.00    +0.000 C 
ATOM      2  N   UNL     1       1.707   4.283  17.846  0.00  0.00    +0.000 N 
ATOM      3  C   UNL     1       2.649   3.490  17.221  0.00  0.00    +0.000 C 
ATOM      4  O   UNL     1       2.389   2.737  16.299  0.00  0.00    +0.000 OA
ATOM      5  N   UNL     1       3.822   3.613  17.912  0.00  0.00    +0.000 N 
ATOM      6  C   UNL     1       3.482   3.855  19.225  0.00  0.00    +0.000 C 
ATOM      7  O   UNL     1       4.206   3.885  20.215  0.00  0.00    +0.000 OA
ATOM      8  H   UNL     1       1.821   5.250  17.563  0.00  0.00    +0.000 HD
ENDROOT
BRANCH   5   9
ATOM      9  C   UNL     1       5.011   4.039  17.254  0.00  0.00    +0.000 A 
ATOM     10  C   UNL     1       5.313   3.525  15.976  0.00  0.00    +0.000 A 
ATOM     11  C   UNL     1       6.244   4.144  15.143  0.00  0.00    +0.000 A 
ATOM     12  C   UNL     1       6.926   5.267  15.588  0.00  0.00    +0.000 A 
ATOM     13  C   UNL     1       6.709   5.731  16.883  0.00  0.00    +0.000 A 
ATOM     14 CL   UNL     1       7.552   7.130  17.424  0.00  0.00    +0.000 Cl
ATOM     15  C   UNL     1       5.770   5.118  17.722  0.00  0.00    +0.000 A 
ENDBRANCH   5   9
BRANCH   1  16
ATOM     16  C   UNL     1       1.216   2.984  19.921  0.00  0.00    +0.000 C 
ATOM     17  F   UNL     1       1.997   1.882  19.973  0.00  0.00    +0.000 F 
ATOM     18  F   UNL     1       0.855   3.268  21.197  0.00  0.00    +0.000 F 
ATOM     19  F   UNL     1       0.087   2.638  19.263  0.00  0.00    +0.000 F 
ENDBRANCH   1  16
BRANCH   1  20
ATOM     20  N   UNL     1       1.908   5.496  19.947  0.00  0.00    +0.000 NA
ATOM     21  H   UNL     1       1.012   5.631  20.429  0.00  0.00    +0.000 HD
BRANCH  20  22
ATOM     22  S   UNL     1       2.412   6.880  19.173  0.00  0.00    +0.000 S 
ATOM     23  O   UNL     1       1.909   6.840  17.821  0.00  0.00    +0.000 OA
ATOM     24  O   UNL     1       3.829   7.004  19.449  0.00  0.00    +0.000 OA
BRANCH  22  28
ATOM     25  C   UNL     1       0.341  10.304  21.378  0.00  0.00    +0.000 A 
ATOM     26  C   UNL     1       0.556  10.372  19.998  0.00  0.00    +0.000 A 
ATOM     27  C   UNL     1       1.208   9.337  19.324  0.00  0.00    +0.000 A 
ATOM     28  C   UNL     1       1.623   8.210  20.038  0.00  0.00    +0.000 A 
ATOM     29  C   UNL     1       1.342   8.089  21.397  0.00  0.00    +0.000 A 
ATOM     30  C   UNL     1       0.686   9.131  22.056  0.00  0.00    +0.000 A 
BRANCH  25  31
ATOM     31  N   UNL     1      -0.421  11.286  22.021  0.00  0.00    +0.000 N 
ATOM     32  H   UNL     1      -0.860  10.971  22.881  0.00  0.00    +0.000 HD
ATOM     33  H   UNL     1      -1.077  11.765  21.411  0.00  0.00    +0.000 HD
ENDBRANCH  25  31
ENDBRANCH  22  28
ENDBRANCH  20  22
ENDBRANCH   1  20
TORSDOF 6
ENDMDL
MODEL 7
REMARK VINA RESULT:      -7.6      3.163      6.928
REMARK  Name = 
REMARK  6 active torsions:
REMARK  status: ('A' for Active; 'I' for Inactive)
REMARK    1  A    between atoms: N_1  and  C_2
REMARK    2  A    between atoms: C_5  and  S_6
REMARK    3  A    between atoms: S_6  and  N_9
REMARK    4  A    between atoms: N_9  and  C_10
REMARK    5  A    between atoms: C_10  and  C_11
REMARK    6  A    between atoms: N_18  and  C_19
REMARK                            x       y       z     vdW  Elec       q    Type
REMARK                         _______ _______ _______ _____ _____    ______ ____
ROOT
ATOM      1  C   UNL     1       2.418   5.084  19.416  0.00  0.00    +0.000 C 
ATOM      2  N   UNL     1       1.876   4.687  18.139  0.00  0.00    +0.000 N 
ATOM      3  C   UNL     1       2.787   3.809  17.585  0.00  0.00    +0.000 C 
ATOM      4  O   UNL     1       2.470   2.770  17.033  0.00  0.00    +0.000 OA
ATOM      5  N   UNL     1       4.040   4.253  17.904  0.00  0.00    +0.000 N 
ATOM      6  C   UNL     1       3.934   4.895  19.119  0.00  0.00    +0.000 C 
ATOM      7  O   UNL     1       4.826   5.316  19.847  0.00  0.00    +0.000 OA
ATOM      8  H   UNL     1       1.780   5.507  17.551  0.00  0.00    +0.000 HD
ENDROOT
BRANCH   5   9
ATOM      9  C   UNL     1       4.994   4.526  16.883  0.00  0.00    +0.000 A 
ATOM     10  C   UNL     1       6.320   4.843  17.245  0.00  0.00    +0.000 A 
ATOM     11  C   UNL     1       7.363   4.775  16.323  0.00  0.00    +0.000 A 
ATOM     12  C   UNL     1       7.096   4.430  15.006  0.00  0.00    +0.000 A 
ATOM     13  C   UNL     1       5.780   4.208  14.610  0.00  0.00    +0.000 A 
ATOM     14 CL   UNL     1       5.458   3.772  12.977  0.00  0.00    +0.000 Cl
ATOM     15  C   UNL     1       4.728   4.268  15.533  0.00  0.00    +0.000 A 
ENDBRANCH   5   9
BRANCH   1  16
ATOM     16  C   UNL     1       2.013   4.129  20.569  0.00  0.00    +0.000 C 
ATOM     17  F   UNL     1       2.659   2.945  20.479  0.00  0.00    +0.000 F 
ATOM     18  F   UNL     1       2.323   4.653  21.780  0.00  0.00    +0.000 F 
ATOM     19  F   UNL     1       0.689   3.857  20.588  0.00  0.00    +0.000 F 
ENDBRANCH   1  16
BRANCH   1  20
ATOM     20  N   UNL     1       2.298   6.550  19.648  0.00  0.00    +0.000 NA
ATOM     21  H   UNL     1       1.584   6.759  20.355  0.00  0.00    +0.000 HD
BRANCH  20  22
ATOM     22  S   UNL     1       2.238   7.615  18.371  0.00  0.00    +0.000 S 
ATOM     23  O   UNL     1       1.304   7.093  17.402  0.00  0.00    +0.000 OA
ATOM     24  O   UNL     1       3.614   7.901  18.017  0.00  0.00    +0.000 OA
BRANCH  22  28
ATOM     25  C   UNL     1       0.575  11.484  20.145  0.00  0.00    +0.000 A 
ATOM     26  C   UNL     1       0.622  10.313  20.907  0.00  0.00    +0.000 A 
ATOM     27  C   UNL     1       1.110   9.123  20.362  0.00  0.00    +0.000 A 
ATOM     28  C   UNL     1       1.580   9.115  19.047  0.00  0.00    +0.000 A 
ATOM     29  C   UNL     1       1.620  10.292  18.301  0.00  0.00    +0.000 A 
ATOM     30  C   UNL     1       1.131  11.475  18.862  0.00  0.00    +0.000 A 
BRANCH  25  31
ATOM     31  N   UNL     1       0.203  12.695  20.737  0.00  0.00    +0.000 N 
ATOM     32  H   UNL     1      -0.800  12.845  20.777  0.00  0.00    +0.000 HD
ATOM     33  H   UNL     1       0.695  13.504  20.369  0.00  0.00    +0.000 HD
ENDBRANCH  25  31
ENDBRANCH  22  28
ENDBRANCH  20  22
ENDBRANCH   1  20
TORSDOF 6
ENDMDL
MODEL 8
REMARK VINA RESULT:      -7.6      3.166      6.975
REMARK  Name = 
REMARK  6 active torsions:
REMARK  status: ('A' for Active; 'I' for Inactive)
REMARK    1  A    between atoms: N_1  and  C_2
REMARK    2  A    between atoms: C_5  and  S_6
REMARK    3  A    between atoms: S_6  and  N_9
REMARK    4  A    between atoms: N_9  and  C_10
REMARK    5  A    between atoms: C_10  and  C_11
REMARK    6  A    between atoms: N_18  and  C_19
REMARK                            x       y       z     vdW  Elec       q    Type
REMARK                         _______ _______ _______ _____ _____    ______ ____
ROOT
ATOM      1  C   UNL     1       2.404   5.082  19.417  0.00  0.00    +0.000 C 
ATOM      2  N   UNL     1       1.867   4.698  18.134  0.00  0.00    +0.000 N 
ATOM      3  C   UNL     1       2.777   3.822  17.577  0.00  0.00    +0.000 C 
ATOM      4  O   UNL     1       2.459   2.789  17.013  0.00  0.00    +0.000 OA
ATOM      5  N   UNL     1       4.030   4.259  17.906  0.00  0.00    +0.000 N 
ATOM      6  C   UNL     1       3.920   4.890  19.125  0.00  0.00    +0.000 C 
ATOM      7  O   UNL     1       4.810   5.302  19.862  0.00  0.00    +0.000 OA
ATOM      8  H   UNL     1       1.776   5.524  17.553  0.00  0.00    +0.000 HD
ENDROOT
BRANCH   5   9
ATOM      9  C   UNL     1       4.990   4.538  16.891  0.00  0.00    +0.000 A 
ATOM     10  C   UNL     1       6.311   4.864  17.263  0.00  0.00    +0.000 A 
ATOM     11  C   UNL     1       7.361   4.802  16.348  0.00  0.00    +0.000 A 
ATOM     12  C   UNL     1       7.106   4.455  15.030  0.00  0.00    +0.000 A 
ATOM     13  C   UNL     1       5.795   4.224  14.624  0.00  0.00    +0.000 A 
ATOM     14 CL   UNL     1       5.487   3.784  12.989  0.00  0.00    +0.000 Cl
ATOM     15  C   UNL     1       4.736   4.277  15.539  0.00  0.00    +0.000 A 
ENDBRANCH   5   9
BRANCH   1  16
ATOM     16  C   UNL     1       1.990   4.118  20.559  0.00  0.00    +0.000 C 
ATOM     17  F   UNL     1       0.658   3.887  20.552  0.00  0.00    +0.000 F 
ATOM     18  F   UNL     1       2.597   2.912  20.436  0.00  0.00    +0.000 F 
ATOM     19  F   UNL     1       2.302   4.590  21.787  0.00  0.00    +0.000 F 
ENDBRANCH   1  16
BRANCH   1  20
ATOM     20  N   UNL     1       2.288   6.546  19.662  0.00  0.00    +0.000 NA
ATOM     21  H   UNL     1       1.576   6.750  20.372  0.00  0.00    +0.000 HD
BRANCH  20  22
ATOM     22  S   UNL     1       2.228   7.622  18.394  0.00  0.00    +0.000 S 
ATOM     23  O   UNL     1       1.255   7.136  17.445  0.00  0.00    +0.000 OA
ATOM     24  O   UNL     1       3.603   7.869  18.008  0.00  0.00    +0.000 OA
BRANCH  22  28
ATOM     25  C   UNL     1       0.662  11.527  20.176  0.00  0.00    +0.000 A 
ATOM     26  C   UNL     1       1.066  11.465  18.839  0.00  0.00    +0.000 A 
ATOM     27  C   UNL     1       1.566  10.279  18.296  0.00  0.00    +0.000 A 
ATOM     28  C   UNL     1       1.634   9.136  19.096  0.00  0.00    +0.000 A 
ATOM     29  C   UNL     1       1.157   9.157  20.406  0.00  0.00    +0.000 A 
ATOM     30  C   UNL     1       0.657  10.351  20.933  0.00  0.00    +0.000 A 
BRANCH  25  31
ATOM     31  N   UNL     1       0.048  12.681  20.674  0.00  0.00    +0.000 N 
ATOM     32  H   UNL     1      -0.346  12.572  21.603  0.00  0.00    +0.000 HD
ATOM     33  H   UNL     1      -0.607  13.112  20.029  0.00  0.00    +0.000 HD
ENDBRANCH  25  31
ENDBRANCH  22  28
ENDBRANCH  20  22
ENDBRANCH   1  20
TORSDOF 6
ENDMDL
MODEL 9
REMARK VINA RESULT:      -7.6      2.135      2.654
REMARK  Name = 
REMARK  6 active torsions:
REMARK  status: ('A' for Active; 'I' for Inactive)
REMARK    1  A    between atoms: N_1  and  C_2
REMARK    2  A    between atoms: C_5  and  S_6
REMARK    3  A    between atoms: S_6  and  N_9
REMARK    4  A    between atoms: N_9  and  C_10
REMARK    5  A    between atoms: C_10  and  C_11
REMARK    6  A    between atoms: N_18  and  C_19
REMARK                            x       y       z     vdW  Elec       q    Type
REMARK                         _______ _______ _______ _____ _____    ______ ____
ROOT
ATOM      1  C   UNL     1       3.075   4.044  18.453  0.00  0.00    +0.000 C 
ATOM      2  N   UNL     1       3.658   4.314  19.745  0.00  0.00    +0.000 N 
ATOM      3  C   UNL     1       2.660   4.879  20.513  0.00  0.00    +0.000 C 
ATOM      4  O   UNL     1       2.446   4.570  21.672  0.00  0.00    +0.000 OA
ATOM      5  N   UNL     1       1.919   5.691  19.701  0.00  0.00    +0.000 N 
ATOM      6  C   UNL     1       1.971   5.141  18.438  0.00  0.00    +0.000 C 
ATOM      7  O   UNL     1       1.337   5.452  17.436  0.00  0.00    +0.000 OA
ATOM      8  H   UNL     1       4.424   4.967  19.632  0.00  0.00    +0.000 HD
ENDROOT
BRANCH   5   9
ATOM      9  C   UNL     1       1.746   7.069  20.016  0.00  0.00    +0.000 A 
ATOM     10  C   UNL     1       2.019   8.042  19.032  0.00  0.00    +0.000 A 
ATOM     11  C   UNL     1       1.547   9.348  19.148  0.00  0.00    +0.000 A 
ATOM     12  C   UNL     1       0.827   9.722  20.273  0.00  0.00    +0.000 A 
ATOM     13  C   UNL     1       0.631   8.801  21.299  0.00  0.00    +0.000 A 
ATOM     14 CL   UNL     1      -0.270   9.270  22.687  0.00  0.00    +0.000 Cl
ATOM     15  C   UNL     1       1.096   7.485  21.185  0.00  0.00    +0.000 A 
ENDBRANCH   5   9
BRANCH   1  16
ATOM     16  C   UNL     1       2.395   2.652  18.374  0.00  0.00    +0.000 C 
ATOM     17  F   UNL     1       2.550   2.096  17.151  0.00  0.00    +0.000 F 
ATOM     18  F   UNL     1       2.932   1.785  19.268  0.00  0.00    +0.000 F 
ATOM     19  F   UNL     1       1.068   2.698  18.622  0.00  0.00    +0.000 F 
ENDBRANCH   1  16
BRANCH   1  20
ATOM     20  N   UNL     1       3.970   4.448  17.334  0.00  0.00    +0.000 NA
ATOM     21  H   UNL     1       3.534   4.267  16.423  0.00  0.00    +0.000 HD
BRANCH  20  22
ATOM     22  S   UNL     1       5.584   4.042  17.342  0.00  0.00    +0.000 S 
ATOM     23  O   UNL     1       5.910   3.492  16.048  0.00  0.00    +0.000 OA
ATOM     24  O   UNL     1       5.806   3.289  18.561  0.00  0.00    +0.000 OA
BRANCH  22  28
ATOM     25  C   UNL     1       7.777   8.013  17.886  0.00  0.00    +0.000 A 
ATOM     26  C   UNL     1       6.647   7.930  17.067  0.00  0.00    +0.000 A 
ATOM     27  C   UNL     1       5.987   6.713  16.881  0.00  0.00    +0.000 A 
ATOM     28  C   UNL     1       6.449   5.575  17.546  0.00  0.00    +0.000 A 
ATOM     29  C   UNL     1       7.521   5.658  18.432  0.00  0.00    +0.000 A 
ATOM     30  C   UNL     1       8.169   6.883  18.610  0.00  0.00    +0.000 A 
BRANCH  25  31
ATOM     31  N   UNL     1       8.355   9.257  18.164  0.00  0.00    +0.000 N 
ATOM     32  H   UNL     1       8.741   9.333  19.099  0.00  0.00    +0.000 HD
ATOM     33  H   UNL     1       7.764  10.049  17.929  0.00  0.00    +0.000 HD
ENDBRANCH  25  31
ENDBRANCH  22  28
ENDBRANCH  20  22
ENDBRANCH   1  20
TORSDOF 6
ENDMDL
