MODEL 1
REMARK VINA RESULT:      -7.9      0.000      0.000
REMARK  Name = 
REMARK  7 active torsions:
REMARK  status: ('A' for Active; 'I' for Inactive)
REMARK    1  A    between atoms: C_2  and  C_20
REMARK    2  A    between atoms: N_3  and  C_4
REMARK    3  A    between atoms: C_4  and  C_5
REMARK    4  A    between atoms: C_5  and  C_6
REMARK    5  A    between atoms: C_6  and  C_7
REMARK    6  A    between atoms: C_7  and  N_8
REMARK    7  A    between atoms: N_8  and  C_9
REMARK                            x       y       z     vdW  Elec       q    Type
REMARK                         _______ _______ _______ _____ _____    ______ ____
ROOT
ATOM      1  C   UNL     1       1.694   4.138  19.414  0.00  0.00    +0.000 C 
ENDROOT
BRANCH   1   2
ATOM      2  C   UNL     1       2.226   2.783  19.895  0.00  0.00    +0.000 C 
BRANCH   2   3
ATOM      3  C   UNL     1       3.755   2.727  19.906  0.00  0.00    +0.000 C 
BRANCH   3   6
ATOM      4  O   UNL     1       5.342   4.964  19.318  0.00  0.00    +0.000 OA
ATOM      5  C   UNL     1       5.096   4.156  18.430  0.00  0.00    +0.000 C 
ATOM      6  N   UNL     1       4.315   3.032  18.611  0.00  0.00    +0.000 N 
ATOM      7  H   UNL     1       4.283   2.320  17.894  0.00  0.00    +0.000 HD
BRANCH   5   8
ATOM      8  C   UNL     1       5.678   4.337  17.075  0.00  0.00    +0.000 A 
ATOM      9  C   UNL     1       7.004   4.777  16.973  0.00  0.00    +0.000 A 
ATOM     10  C   UNL     1       7.581   4.977  15.718  0.00  0.00    +0.000 A 
ATOM     11  C   UNL     1       6.826   4.747  14.567  0.00  0.00    +0.000 A 
ATOM     12 BR   UNL     1       7.600   5.032  12.867  0.00  0.00    +0.000 Br
ATOM     13  C   UNL     1       5.501   4.321  14.661  0.00  0.00    +0.000 A 
ATOM     14  C   UNL     1       4.924   4.115  15.916  0.00  0.00    +0.000 A 
ENDBRANCH   5   8
ENDBRANCH   3   6
ENDBRANCH   2   3
ENDBRANCH   1   2
BRANCH   1  15
ATOM     15  C   UNL     1       1.652   5.161  20.547  0.00  0.00    +0.000 C 
BRANCH  15  16
ATOM     16  N   UNL     1       2.676   6.188  20.356  0.00  0.00    +0.000 N 
ATOM     17  H   UNL     1       3.506   5.799  19.922  0.00  0.00    +0.000 HD
BRANCH  16  18
ATOM     18  C   UNL     1       2.250   7.368  19.683  0.00  0.00    +0.000 A 
ATOM     19  C   UNL     1       2.486   7.526  18.314  0.00  0.00    +0.000 A 
ATOM     20  C   UNL     1       2.008   8.643  17.666  0.00  0.00    +0.000 A 
ATOM     21  N   UNL     1       1.279   9.598  18.263  0.00  0.00    +0.000 NA
ATOM     22  C   UNL     1       0.997   9.448  19.565  0.00  0.00    +0.000 A 
ATOM     23  C   UNL     1       0.217  10.430  20.152  0.00  0.00    +0.000 A 
ATOM     24  C   UNL     1      -0.127  10.373  21.497  0.00  0.00    +0.000 A 
ATOM     25 CL   UNL     1      -1.107  11.608  22.186  0.00  0.00    +0.000 Cl
ATOM     26  C   UNL     1       0.319   9.323  22.289  0.00  0.00    +0.000 A 
ATOM     27  C   UNL     1       1.104   8.324  21.717  0.00  0.00    +0.000 A 
ATOM     28  C   UNL     1       1.456   8.352  20.341  0.00  0.00    +0.000 A 
ENDBRANCH  16  18
ENDBRANCH  15  16
ENDBRANCH   1  15
TORSDOF 7
ENDMDL
MODEL 2
REMARK VINA RESULT:      -7.4      1.872      2.011
REMARK  Name = 
REMARK  7 active torsions:
REMARK  status: ('A' for Active; 'I' for Inactive)
REMARK    1  A    between atoms: C_2  and  C_20
REMARK    2  A    between atoms: N_3  and  C_4
REMARK    3  A    between atoms: C_4  and  C_5
REMARK    4  A    between atoms: C_5  and  C_6
REMARK    5  A    between atoms: C_6  and  C_7
REMARK    6  A    between atoms: C_7  and  N_8
REMARK    7  A    between atoms: N_8  and  C_9
REMARK                            x       y       z     vdW  Elec       q    Type
REMARK                         _______ _______ _______ _____ _____    ______ ____
ROOT
ATOM      1  C   UNL     1       1.320   4.400  19.037  0.00  0.00    +0.000 C 
ENDROOT
BRANCH   1   2
ATOM      2  C   UNL     1       1.557   2.885  19.035  0.00  0.00    +0.000 C 
BRANCH   2   3
ATOM      3  C   UNL     1       2.906   2.507  18.422  0.00  0.00    +0.000 C 
BRANCH   3   6
ATOM      4  O   UNL     1       5.326   3.039  19.738  0.00  0.00    +0.000 OA
ATOM      5  C   UNL     1       4.922   3.826  18.889  0.00  0.00    +0.000 C 
ATOM      6  N   UNL     1       3.739   3.663  18.195  0.00  0.00    +0.000 N 
ATOM      7  H   UNL     1       3.540   4.249  17.396  0.00  0.00    +0.000 HD
BRANCH   5   8
ATOM      8  C   UNL     1       5.734   5.015  18.528  0.00  0.00    +0.000 A 
ATOM      9  C   UNL     1       6.915   5.257  19.241  0.00  0.00    +0.000 A 
ATOM     10  C   UNL     1       7.696   6.376  18.944  0.00  0.00    +0.000 A 
ATOM     11  C   UNL     1       7.288   7.255  17.942  0.00  0.00    +0.000 A 
ATOM     12 BR   UNL     1       8.335   8.778  17.548  0.00  0.00    +0.000 Br
ATOM     13  C   UNL     1       6.107   7.028  17.235  0.00  0.00    +0.000 A 
ATOM     14  C   UNL     1       5.327   5.907  17.528  0.00  0.00    +0.000 A 
ENDBRANCH   5   8
ENDBRANCH   3   6
ENDBRANCH   2   3
ENDBRANCH   1   2
BRANCH   1  15
ATOM     15  C   UNL     1       1.486   4.994  20.435  0.00  0.00    +0.000 C 
BRANCH  15  16
ATOM     16  N   UNL     1       2.509   6.038  20.436  0.00  0.00    +0.000 N 
ATOM     17  H   UNL     1       3.393   5.683  20.089  0.00  0.00    +0.000 HD
BRANCH  16  18
ATOM     18  C   UNL     1       2.154   7.254  19.785  0.00  0.00    +0.000 A 
ATOM     19  C   UNL     1       2.382   7.416  18.414  0.00  0.00    +0.000 A 
ATOM     20  C   UNL     1       1.970   8.571  17.789  0.00  0.00    +0.000 A 
ATOM     21  N   UNL     1       1.313   9.563  18.409  0.00  0.00    +0.000 NA
ATOM     22  C   UNL     1       1.039   9.413  19.712  0.00  0.00    +0.000 A 
ATOM     23  C   UNL     1       0.333  10.435  20.323  0.00  0.00    +0.000 A 
ATOM     24  C   UNL     1       0.003  10.382  21.672  0.00  0.00    +0.000 A 
ATOM     25 CL   UNL     1      -0.884  11.668  22.391  0.00  0.00    +0.000 Cl
ATOM     26  C   UNL     1       0.389   9.294  22.444  0.00  0.00    +0.000 A 
ATOM     27  C   UNL     1       1.099   8.254  21.847  0.00  0.00    +0.000 A 
ATOM     28  C   UNL     1       1.434   8.278  20.467  0.00  0.00    +0.000 A 
ENDBRANCH  16  18
ENDBRANCH  15  16
ENDBRANCH   1  15
TORSDOF 7
ENDMDL
MODEL 3
REMARK VINA RESULT:      -7.3      1.927      2.198
REMARK  Name = 
REMARK  7 active torsions:
REMARK  status: ('A' for Active; 'I' for Inactive)
REMARK    1  A    between atoms: C_2  and  C_20
REMARK    2  A    between atoms: N_3  and  C_4
REMARK    3  A    between atoms: C_4  and  C_5
REMARK    4  A    between atoms: C_5  and  C_6
REMARK    5  A    between atoms: C_6  and  C_7
REMARK    6  A    between atoms: C_7  and  N_8
REMARK    7  A    between atoms: N_8  and  C_9
REMARK                            x       y       z     vdW  Elec       q    Type
REMARK                         _______ _______ _______ _____ _____    ______ ____
ROOT
ATOM      1  C   UNL     1       1.572   3.763  20.672  0.00  0.00    +0.000 C 
ENDROOT
BRANCH   1   2
ATOM      2  C   UNL     1       0.984   2.822  19.614  0.00  0.00    +0.000 C 
BRANCH   2   3
ATOM      3  C   UNL     1       1.485   3.143  18.205  0.00  0.00    +0.000 C 
BRANCH   3   6
ATOM      4  O   UNL     1       4.159   2.592  17.558  0.00  0.00    +0.000 OA
ATOM      5  C   UNL     1       3.843   3.734  17.872  0.00  0.00    +0.000 C 
ATOM      6  N   UNL     1       2.560   4.106  18.221  0.00  0.00    +0.000 N 
ATOM      7  H   UNL     1       2.326   5.085  18.309  0.00  0.00    +0.000 HD
BRANCH   5   8
ATOM      8  C   UNL     1       4.857   4.819  17.856  0.00  0.00    +0.000 A 
ATOM      9  C   UNL     1       4.766   5.801  16.862  0.00  0.00    +0.000 A 
ATOM     10  C   UNL     1       5.712   6.827  16.802  0.00  0.00    +0.000 A 
ATOM     11  C   UNL     1       6.753   6.860  17.729  0.00  0.00    +0.000 A 
ATOM     12 BR   UNL     1       8.043   8.238  17.640  0.00  0.00    +0.000 Br
ATOM     13  C   UNL     1       6.858   5.879  18.715  0.00  0.00    +0.000 A 
ATOM     14  C   UNL     1       5.909   4.855  18.780  0.00  0.00    +0.000 A 
ENDBRANCH   5   8
ENDBRANCH   3   6
ENDBRANCH   2   3
ENDBRANCH   1   2
BRANCH   1  15
ATOM     15  C   UNL     1       1.010   5.177  20.544  0.00  0.00    +0.000 C 
BRANCH  15  16
ATOM     16  N   UNL     1       2.055   6.173  20.782  0.00  0.00    +0.000 N 
ATOM     17  H   UNL     1       2.976   5.780  20.623  0.00  0.00    +0.000 HD
BRANCH  16  18
ATOM     18  C   UNL     1       1.897   7.410  20.095  0.00  0.00    +0.000 A 
ATOM     19  C   UNL     1       2.265   7.524  18.750  0.00  0.00    +0.000 A 
ATOM     20  C   UNL     1       2.043   8.707  18.083  0.00  0.00    +0.000 A 
ATOM     21  N   UNL     1       1.449   9.777  18.635  0.00  0.00    +0.000 NA
ATOM     22  C   UNL     1       1.043   9.678  19.908  0.00  0.00    +0.000 A 
ATOM     23  C   UNL     1       0.404  10.782  20.446  0.00  0.00    +0.000 A 
ATOM     24  C   UNL     1      -0.050  10.787  21.760  0.00  0.00    +0.000 A 
ATOM     25 CL   UNL     1      -0.849  12.176  22.388  0.00  0.00    +0.000 Cl
ATOM     26  C   UNL     1       0.140   9.675  22.570  0.00  0.00    +0.000 A 
ATOM     27  C   UNL     1       0.780   8.554  22.047  0.00  0.00    +0.000 A 
ATOM     28  C   UNL     1       1.239   8.518  20.702  0.00  0.00    +0.000 A 
ENDBRANCH  16  18
ENDBRANCH  15  16
ENDBRANCH   1  15
TORSDOF 7
ENDMDL
MODEL 4
REMARK VINA RESULT:      -7.2      3.897      7.373
REMARK  Name = 
REMARK  7 active torsions:
REMARK  status: ('A' for Active; 'I' for Inactive)
REMARK    1  A    between atoms: C_2  and  C_20
REMARK    2  A    between atoms: N_3  and  C_4
REMARK    3  A    between atoms: C_4  and  C_5
REMARK    4  A    between atoms: C_5  and  C_6
REMARK    5  A    between atoms: C_6  and  C_7
REMARK    6  A    between atoms: C_7  and  N_8
REMARK    7  A    between atoms: N_8  and  C_9
REMARK                            x       y       z     vdW  Elec       q    Type
REMARK                         _______ _______ _______ _____ _____    ______ ____
ROOT
ATOM      1  C   UNL     1       2.813   1.546  19.099  0.00  0.00    +0.000 C 
ENDROOT
BRANCH   1   2
ATOM      2  C   UNL     1       1.633   2.462  18.757  0.00  0.00    +0.000 C 
BRANCH   2   3
ATOM      3  C   UNL     1       1.075   3.178  19.988  0.00  0.00    +0.000 C 
BRANCH   3   6
ATOM      4  O   UNL     1       3.013   5.052  20.765  0.00  0.00    +0.000 OA
ATOM      5  C   UNL     1       2.000   5.441  20.197  0.00  0.00    +0.000 C 
ATOM      6  N   UNL     1       0.981   4.604  19.787  0.00  0.00    +0.000 N 
ATOM      7  H   UNL     1       0.253   4.957  19.181  0.00  0.00    +0.000 HD
BRANCH   5   8
ATOM      8  C   UNL     1       1.831   6.882  19.878  0.00  0.00    +0.000 A 
ATOM      9  C   UNL     1       1.262   7.717  20.847  0.00  0.00    +0.000 A 
ATOM     10  C   UNL     1       1.069   9.073  20.577  0.00  0.00    +0.000 A 
ATOM     11  C   UNL     1       1.435   9.588  19.334  0.00  0.00    +0.000 A 
ATOM     12 BR   UNL     1       1.160  11.421  18.961  0.00  0.00    +0.000 Br
ATOM     13  C   UNL     1       1.991   8.761  18.359  0.00  0.00    +0.000 A 
ATOM     14  C   UNL     1       2.190   7.404  18.629  0.00  0.00    +0.000 A 
ENDBRANCH   5   8
ENDBRANCH   3   6
ENDBRANCH   2   3
ENDBRANCH   1   2
BRANCH   1  15
ATOM     15  C   UNL     1       4.152   2.212  18.789  0.00  0.00    +0.000 C 
BRANCH  15  16
ATOM     16  N   UNL     1       3.949   3.499  18.126  0.00  0.00    +0.000 N 
ATOM     17  H   UNL     1       3.238   4.046  18.600  0.00  0.00    +0.000 HD
BRANCH  16  18
ATOM     18  C   UNL     1       5.124   4.271  17.900  0.00  0.00    +0.000 A 
ATOM     19  C   UNL     1       5.843   4.797  18.978  0.00  0.00    +0.000 A 
ATOM     20  C   UNL     1       7.013   5.483  18.745  0.00  0.00    +0.000 A 
ATOM     21  N   UNL     1       7.548   5.656  17.526  0.00  0.00    +0.000 NA
ATOM     22  C   UNL     1       6.905   5.120  16.480  0.00  0.00    +0.000 A 
ATOM     23  C   UNL     1       7.492   5.283  15.236  0.00  0.00    +0.000 A 
ATOM     24  C   UNL     1       6.903   4.772  14.085  0.00  0.00    +0.000 A 
ATOM     25 CL   UNL     1       7.670   4.988  12.560  0.00  0.00    +0.000 Cl
ATOM     26  C   UNL     1       5.696   4.090  14.160  0.00  0.00    +0.000 A 
ATOM     27  C   UNL     1       5.089   3.915  15.403  0.00  0.00    +0.000 A 
ATOM     28  C   UNL     1       5.679   4.413  16.595  0.00  0.00    +0.000 A 
ENDBRANCH  16  18
ENDBRANCH  15  16
ENDBRANCH   1  15
TORSDOF 7
ENDMDL
MODEL 5
REMARK VINA RESULT:      -7.2      1.003      1.054
REMARK  Name = 
REMARK  7 active torsions:
REMARK  status: ('A' for Active; 'I' for Inactive)
REMARK    1  A    between atoms: C_2  and  C_20
REMARK    2  A    between atoms: N_3  and  C_4
REMARK    3  A    between atoms: C_4  and  C_5
REMARK    4  A    between atoms: C_5  and  C_6
REMARK    5  A    between atoms: C_6  and  C_7
REMARK    6  A    between atoms: C_7  and  N_8
REMARK    7  A    between atoms: N_8  and  C_9
REMARK                            x       y       z     vdW  Elec       q    Type
REMARK                         _______ _______ _______ _____ _____    ______ ____
ROOT
ATOM      1  C   UNL     1       1.591   3.490  20.190  0.00  0.00    +0.000 C 
ENDROOT
BRANCH   1   2
ATOM      2  C   UNL     1       1.404   3.335  18.676  0.00  0.00    +0.000 C 
BRANCH   2   3
ATOM      3  C   UNL     1       2.338   2.281  18.079  0.00  0.00    +0.000 C 
BRANCH   3   6
ATOM      4  O   UNL     1       4.807   3.485  18.653  0.00  0.00    +0.000 OA
ATOM      5  C   UNL     1       4.436   3.408  17.487  0.00  0.00    +0.000 C 
ATOM      6  N   UNL     1       3.235   2.848  17.100  0.00  0.00    +0.000 N 
ATOM      7  H   UNL     1       3.058   2.663  16.122  0.00  0.00    +0.000 HD
BRANCH   5   8
ATOM      8  C   UNL     1       5.312   3.898  16.393  0.00  0.00    +0.000 A 
ATOM      9  C   UNL     1       6.458   4.629  16.733  0.00  0.00    +0.000 A 
ATOM     10  C   UNL     1       7.296   5.124  15.732  0.00  0.00    +0.000 A 
ATOM     11  C   UNL     1       6.980   4.896  14.393  0.00  0.00    +0.000 A 
ATOM     12 BR   UNL     1       8.105   5.578  13.036  0.00  0.00    +0.000 Br
ATOM     13  C   UNL     1       5.834   4.180  14.045  0.00  0.00    +0.000 A 
ATOM     14  C   UNL     1       4.997   3.679  15.046  0.00  0.00    +0.000 A 
ENDBRANCH   5   8
ENDBRANCH   3   6
ENDBRANCH   2   3
ENDBRANCH   1   2
BRANCH   1  15
ATOM     15  C   UNL     1       1.238   4.900  20.660  0.00  0.00    +0.000 C 
BRANCH  15  16
ATOM     16  N   UNL     1       2.418   5.763  20.639  0.00  0.00    +0.000 N 
ATOM     17  H   UNL     1       3.261   5.225  20.473  0.00  0.00    +0.000 HD
BRANCH  16  18
ATOM     18  C   UNL     1       2.346   6.888  19.769  0.00  0.00    +0.000 A 
ATOM     19  C   UNL     1       2.843   6.805  18.464  0.00  0.00    +0.000 A 
ATOM     20  C   UNL     1       2.704   7.879  17.615  0.00  0.00    +0.000 A 
ATOM     21  N   UNL     1       2.075   9.018  17.945  0.00  0.00    +0.000 NA
ATOM     22  C   UNL     1       1.547   9.106  19.174  0.00  0.00    +0.000 A 
ATOM     23  C   UNL     1       0.875  10.276  19.482  0.00  0.00    +0.000 A 
ATOM     24  C   UNL     1       0.296  10.472  20.731  0.00  0.00    +0.000 A 
ATOM     25 CL   UNL     1      -0.539  11.937  21.070  0.00  0.00    +0.000 Cl
ATOM     26  C   UNL     1       0.391   9.489  21.707  0.00  0.00    +0.000 A 
ATOM     27  C   UNL     1       1.062   8.303  21.416  0.00  0.00    +0.000 A 
ATOM     28  C   UNL     1       1.648   8.073  20.142  0.00  0.00    +0.000 A 
ENDBRANCH  16  18
ENDBRANCH  15  16
ENDBRANCH   1  15
TORSDOF 7
ENDMDL
MODEL 6
REMARK VINA RESULT:      -7.2      3.881      7.257
REMARK  Name = 
REMARK  7 active torsions:
REMARK  status: ('A' for Active; 'I' for Inactive)
REMARK    1  A    between atoms: C_2  and  C_20
REMARK    2  A    between atoms: N_3  and  C_4
REMARK    3  A    between atoms: C_4  and  C_5
REMARK    4  A    between atoms: C_5  and  C_6
REMARK    5  A    between atoms: C_6  and  C_7
REMARK    6  A    between atoms: C_7  and  N_8
REMARK    7  A    between atoms: N_8  and  C_9
REMARK                            x       y       z     vdW  Elec       q    Type
REMARK                         _______ _______ _______ _____ _____    ______ ____
ROOT
ATOM      1  C   UNL     1       1.743   2.751  17.962  0.00  0.00    +0.000 C 
ENDROOT
BRANCH   1   2
ATOM      2  C   UNL     1       2.023   2.155  19.347  0.00  0.00    +0.000 C 
BRANCH   2   3
ATOM      3  C   UNL     1       1.256   2.875  20.458  0.00  0.00    +0.000 C 
BRANCH   3   6
ATOM      4  O   UNL     1       3.205   4.840  20.916  0.00  0.00    +0.000 OA
ATOM      5  C   UNL     1       2.128   5.168  20.432  0.00  0.00    +0.000 C 
ATOM      6  N   UNL     1       1.099   4.282  20.180  0.00  0.00    +0.000 N 
ATOM      7  H   UNL     1       0.303   4.578  19.631  0.00  0.00    +0.000 HD
BRANCH   5   8
ATOM      8  C   UNL     1       1.885   6.581  20.044  0.00  0.00    +0.000 A 
ATOM      9  C   UNL     1       2.330   7.014  18.789  0.00  0.00    +0.000 A 
ATOM     10  C   UNL     1       2.137   8.340  18.396  0.00  0.00    +0.000 A 
ATOM     11  C   UNL     1       1.510   9.232  19.265  0.00  0.00    +0.000 A 
ATOM     12 BR   UNL     1       1.262  11.031  18.742  0.00  0.00    +0.000 Br
ATOM     13  C   UNL     1       1.074   8.812  20.522  0.00  0.00    +0.000 A 
ATOM     14  C   UNL     1       1.262   7.484  20.915  0.00  0.00    +0.000 A 
ENDBRANCH   5   8
ENDBRANCH   3   6
ENDBRANCH   2   3
ENDBRANCH   1   2
BRANCH   1  15
ATOM     15  C   UNL     1       3.018   3.271  17.304  0.00  0.00    +0.000 C 
BRANCH  15  16
ATOM     16  N   UNL     1       4.150   3.185  18.227  0.00  0.00    +0.000 N 
ATOM     17  H   UNL     1       4.517   2.241  18.267  0.00  0.00    +0.000 HD
BRANCH  16  18
ATOM     18  C   UNL     1       5.191   4.133  18.017  0.00  0.00    +0.000 A 
ATOM     19  C   UNL     1       5.775   4.795  19.103  0.00  0.00    +0.000 A 
ATOM     20  C   UNL     1       6.825   5.657  18.888  0.00  0.00    +0.000 A 
ATOM     21  N   UNL     1       7.371   5.886  17.683  0.00  0.00    +0.000 NA
ATOM     22  C   UNL     1       6.863   5.228  16.632  0.00  0.00    +0.000 A 
ATOM     23  C   UNL     1       7.462   5.455  15.405  0.00  0.00    +0.000 A 
ATOM     24  C   UNL     1       7.007   4.829  14.250  0.00  0.00    +0.000 A 
ATOM     25 CL   UNL     1       7.786   5.130  12.746  0.00  0.00    +0.000 Cl
ATOM     26  C   UNL     1       5.925   3.960  14.305  0.00  0.00    +0.000 A 
ATOM     27  C   UNL     1       5.309   3.718  15.531  0.00  0.00    +0.000 A 
ATOM     28  C   UNL     1       5.765   4.333  16.728  0.00  0.00    +0.000 A 
ENDBRANCH  16  18
ENDBRANCH  15  16
ENDBRANCH   1  15
TORSDOF 7
ENDMDL
MODEL 7
REMARK VINA RESULT:      -7.2      4.527      8.578
REMARK  Name = 
REMARK  7 active torsions:
REMARK  status: ('A' for Active; 'I' for Inactive)
REMARK    1  A    between atoms: C_2  and  C_20
REMARK    2  A    between atoms: N_3  and  C_4
REMARK    3  A    between atoms: C_4  and  C_5
REMARK    4  A    between atoms: C_5  and  C_6
REMARK    5  A    between atoms: C_6  and  C_7
REMARK    6  A    between atoms: C_7  and  N_8
REMARK    7  A    between atoms: N_8  and  C_9
REMARK                            x       y       z     vdW  Elec       q    Type
REMARK                         _______ _______ _______ _____ _____    ______ ____
ROOT
ATOM      1  C   UNL     1       3.109   4.503  18.408  0.00  0.00    +0.000 C 
ENDROOT
BRANCH   1   2
ATOM      2  C   UNL     1       1.900   5.006  19.206  0.00  0.00    +0.000 C 
BRANCH   2   3
ATOM      3  C   UNL     1       2.259   5.357  20.650  0.00  0.00    +0.000 C 
BRANCH   3   6
ATOM      4  O   UNL     1       2.351   7.869  19.403  0.00  0.00    +0.000 OA
ATOM      5  C   UNL     1       1.668   7.727  20.411  0.00  0.00    +0.000 C 
ATOM      6  N   UNL     1       1.567   6.538  21.107  0.00  0.00    +0.000 N 
ATOM      7  H   UNL     1       0.865   6.435  21.827  0.00  0.00    +0.000 HD
BRANCH   5   8
ATOM      8  C   UNL     1       0.859   8.859  20.929  0.00  0.00    +0.000 A 
ATOM      9  C   UNL     1       0.524   8.872  22.289  0.00  0.00    +0.000 A 
ATOM     10  C   UNL     1      -0.252   9.910  22.809  0.00  0.00    +0.000 A 
ATOM     11  C   UNL     1      -0.700  10.926  21.965  0.00  0.00    +0.000 A 
ATOM     12 BR   UNL     1      -1.763  12.323  22.664  0.00  0.00    +0.000 Br
ATOM     13  C   UNL     1      -0.381  10.914  20.607  0.00  0.00    +0.000 A 
ATOM     14  C   UNL     1       0.400   9.879  20.086  0.00  0.00    +0.000 A 
ENDBRANCH   5   8
ENDBRANCH   3   6
ENDBRANCH   2   3
ENDBRANCH   1   2
BRANCH   1  15
ATOM     15  C   UNL     1       4.224   4.008  19.327  0.00  0.00    +0.000 C 
BRANCH  15  16
ATOM     16  N   UNL     1       5.378   3.562  18.547  0.00  0.00    +0.000 N 
ATOM     17  H   UNL     1       5.127   2.797  17.930  0.00  0.00    +0.000 HD
BRANCH  16  18
ATOM     18  C   UNL     1       6.080   4.581  17.843  0.00  0.00    +0.000 A 
ATOM     19  C   UNL     1       6.697   5.626  18.540  0.00  0.00    +0.000 A 
ATOM     20  C   UNL     1       7.427   6.565  17.848  0.00  0.00    +0.000 A 
ATOM     21  N   UNL     1       7.628   6.528  16.522  0.00  0.00    +0.000 NA
ATOM     22  C   UNL     1       7.089   5.511  15.836  0.00  0.00    +0.000 A 
ATOM     23  C   UNL     1       7.335   5.476  14.474  0.00  0.00    +0.000 A 
ATOM     24  C   UNL     1       6.816   4.468  13.670  0.00  0.00    +0.000 A 
ATOM     25 CL   UNL     1       7.155   4.455  11.983  0.00  0.00    +0.000 Cl
ATOM     26  C   UNL     1       6.023   3.471  14.223  0.00  0.00    +0.000 A 
ATOM     27  C   UNL     1       5.764   3.488  15.592  0.00  0.00    +0.000 A 
ATOM     28  C   UNL     1       6.296   4.498  16.437  0.00  0.00    +0.000 A 
ENDBRANCH  16  18
ENDBRANCH  15  16
ENDBRANCH   1  15
TORSDOF 7
ENDMDL
MODEL 8
REMARK VINA RESULT:      -7.1      5.040      6.827
REMARK  Name = 
REMARK  7 active torsions:
REMARK  status: ('A' for Active; 'I' for Inactive)
REMARK    1  A    between atoms: C_2  and  C_20
REMARK    2  A    between atoms: N_3  and  C_4
REMARK    3  A    between atoms: C_4  and  C_5
REMARK    4  A    between atoms: C_5  and  C_6
REMARK    5  A    between atoms: C_6  and  C_7
REMARK    6  A    between atoms: C_7  and  N_8
REMARK    7  A    between atoms: N_8  and  C_9
REMARK                            x       y       z     vdW  Elec       q    Type
REMARK                         _______ _______ _______ _____ _____    ______ ____
ROOT
ATOM      1  C   UNL     1       7.245   4.628  17.124  0.00  0.00    +0.000 C 
ENDROOT
BRANCH   1   2
ATOM      2  C   UNL     1       7.671   6.080  17.377  0.00  0.00    +0.000 C 
BRANCH   2   3
ATOM      3  C   UNL     1       7.992   6.346  18.848  0.00  0.00    +0.000 C 
BRANCH   3   6
ATOM      4  O   UNL     1       7.426   8.612  17.294  0.00  0.00    +0.000 OA
ATOM      5  C   UNL     1       8.209   8.710  18.231  0.00  0.00    +0.000 C 
ATOM      6  N   UNL     1       8.565   7.655  19.047  0.00  0.00    +0.000 N 
ATOM      7  H   UNL     1       9.082   7.829  19.899  0.00  0.00    +0.000 HD
BRANCH   5   8
ATOM      8  C   UNL     1       8.806  10.028  18.568  0.00  0.00    +0.000 A 
ATOM      9  C   UNL     1       8.620  11.092  17.676  0.00  0.00    +0.000 A 
ATOM     10  C   UNL     1       9.182  12.340  17.948  0.00  0.00    +0.000 A 
ATOM     11  C   UNL     1       9.939  12.519  19.106  0.00  0.00    +0.000 A 
ATOM     12 BR   UNL     1      10.714  14.204  19.468  0.00  0.00    +0.000 Br
ATOM     13  C   UNL     1      10.140  11.461  19.993  0.00  0.00    +0.000 A 
ATOM     14  C   UNL     1       9.574  10.212  19.725  0.00  0.00    +0.000 A 
ENDBRANCH   5   8
ENDBRANCH   3   6
ENDBRANCH   2   3
ENDBRANCH   1   2
BRANCH   1  15
ATOM     15  C   UNL     1       6.479   4.485  15.811  0.00  0.00    +0.000 C 
BRANCH  15  16
ATOM     16  N   UNL     1       5.081   4.138  16.062  0.00  0.00    +0.000 N 
ATOM     17  H   UNL     1       4.983   3.150  16.270  0.00  0.00    +0.000 HD
BRANCH  16  18
ATOM     18  C   UNL     1       4.410   4.936  17.031  0.00  0.00    +0.000 A 
ATOM     19  C   UNL     1       4.286   6.317  16.848  0.00  0.00    +0.000 A 
ATOM     20  C   UNL     1       3.577   7.063  17.761  0.00  0.00    +0.000 A 
ATOM     21  N   UNL     1       2.945   6.541  18.824  0.00  0.00    +0.000 NA
ATOM     22  C   UNL     1       3.007   5.214  18.997  0.00  0.00    +0.000 A 
ATOM     23  C   UNL     1       2.322   4.693  20.082  0.00  0.00    +0.000 A 
ATOM     24  C   UNL     1       2.327   3.331  20.356  0.00  0.00    +0.000 A 
ATOM     25 CL   UNL     1       1.454   2.723  21.708  0.00  0.00    +0.000 Cl
ATOM     26  C   UNL     1       3.036   2.456  19.543  0.00  0.00    +0.000 A 
ATOM     27  C   UNL     1       3.732   2.960  18.446  0.00  0.00    +0.000 A 
ATOM     28  C   UNL     1       3.728   4.347  18.136  0.00  0.00    +0.000 A 
ENDBRANCH  16  18
ENDBRANCH  15  16
ENDBRANCH   1  15
TORSDOF 7
ENDMDL
MODEL 9
REMARK VINA RESULT:      -7.0      5.075      9.515
REMARK  Name = 
REMARK  7 active torsions:
REMARK  status: ('A' for Active; 'I' for Inactive)
REMARK    1  A    between atoms: C_2  and  C_20
REMARK    2  A    between atoms: N_3  and  C_4
REMARK    3  A    between atoms: C_4  and  C_5
REMARK    4  A    between atoms: C_5  and  C_6
REMARK    5  A    between atoms: C_6  and  C_7
REMARK    6  A    between atoms: C_7  and  N_8
REMARK    7  A    between atoms: N_8  and  C_9
REMARK                            x       y       z     vdW  Elec       q    Type
REMARK                         _______ _______ _______ _____ _____    ______ ____
ROOT
ATOM      1  C   UNL     1       2.033   8.438  18.377  0.00  0.00    +0.000 C 
ENDROOT
BRANCH   1   2
ATOM      2  C   UNL     1       1.071   9.573  18.008  0.00  0.00    +0.000 C 
BRANCH   2   3
ATOM      3  C   UNL     1       1.291  10.824  18.862  0.00  0.00    +0.000 C 
BRANCH   3   6
ATOM      4  O   UNL     1       0.959  10.928  21.645  0.00  0.00    +0.000 OA
ATOM      5  C   UNL     1       0.029  11.261  20.920  0.00  0.00    +0.000 C 
ATOM      6  N   UNL     1       0.086  11.234  19.540  0.00  0.00    +0.000 N 
ATOM      7  H   UNL     1      -0.645  11.674  18.997  0.00  0.00    +0.000 HD
BRANCH   5   8
ATOM      8  C   UNL     1      -1.236  11.765  21.513  0.00  0.00    +0.000 A 
ATOM      9  C   UNL     1      -1.471  11.536  22.874  0.00  0.00    +0.000 A 
ATOM     10  C   UNL     1      -2.657  11.977  23.464  0.00  0.00    +0.000 A 
ATOM     11  C   UNL     1      -3.610  12.636  22.687  0.00  0.00    +0.000 A 
ATOM     12 BR   UNL     1      -5.224  13.220  23.480  0.00  0.00    +0.000 Br
ATOM     13  C   UNL     1      -3.389  12.857  21.328  0.00  0.00    +0.000 A 
ATOM     14  C   UNL     1      -2.200  12.421  20.737  0.00  0.00    +0.000 A 
ENDBRANCH   5   8
ENDBRANCH   3   6
ENDBRANCH   2   3
ENDBRANCH   1   2
BRANCH   1  15
ATOM     15  C   UNL     1       1.804   7.947  19.805  0.00  0.00    +0.000 C 
BRANCH  15  16
ATOM     16  N   UNL     1       2.796   6.935  20.170  0.00  0.00    +0.000 N 
ATOM     17  H   UNL     1       2.861   6.835  21.177  0.00  0.00    +0.000 HD
BRANCH  16  18
ATOM     18  C   UNL     1       2.649   5.669  19.536  0.00  0.00    +0.000 A 
ATOM     19  C   UNL     1       1.571   4.837  19.857  0.00  0.00    +0.000 A 
ATOM     20  C   UNL     1       1.408   3.647  19.187  0.00  0.00    +0.000 A 
ATOM     21  N   UNL     1       2.209   3.233  18.192  0.00  0.00    +0.000 NA
ATOM     22  C   UNL     1       3.221   4.033  17.831  0.00  0.00    +0.000 A 
ATOM     23  C   UNL     1       4.015   3.600  16.782  0.00  0.00    +0.000 A 
ATOM     24  C   UNL     1       5.095   4.351  16.334  0.00  0.00    +0.000 A 
ATOM     25 CL   UNL     1       6.050   3.783  15.021  0.00  0.00    +0.000 Cl
ATOM     26  C   UNL     1       5.408   5.559  16.943  0.00  0.00    +0.000 A 
ATOM     27  C   UNL     1       4.621   6.013  18.000  0.00  0.00    +0.000 A 
ATOM     28  C   UNL     1       3.502   5.271  18.466  0.00  0.00    +0.000 A 
ENDBRANCH  16  18
ENDBRANCH  15  16
ENDBRANCH   1  15
TORSDOF 7
ENDMDL
