MODEL 1
REMARK VINA RESULT:      -7.6      0.000      0.000
REMARK  Name = 
REMARK  7 active torsions:
REMARK  status: ('A' for Active; 'I' for Inactive)
REMARK    1  A    between atoms: C_1  and  C_2
REMARK    2  A    between atoms: C_2  and  O_3
REMARK    3  A    between atoms: O_3  and  C_4
REMARK    4  A    between atoms: C_4  and  C_6
REMARK    5  A    between atoms: N_9  and  C_10
REMARK    6  A    between atoms: C_13  and  C_14
REMARK    7  A    between atoms: C_21  and  C_22
REMARK                            x       y       z     vdW  Elec       q    Type
REMARK                         _______ _______ _______ _____ _____    ______ ____
ROOT
ATOM      1  C   UNL     1       4.150   5.865  18.249  0.00  0.00    +0.000 A 
ATOM      2  S   UNL     1       4.295   7.353  17.393  0.00  0.00    +0.000 S 
ATOM      3  C   UNL     1       2.698   7.790  17.854  0.00  0.00    +0.000 A 
ATOM      4  N   UNL     1       2.154   8.953  17.429  0.00  0.00    +0.000 N 
ATOM      5  N   UNL     1       2.091   6.899  18.600  0.00  0.00    +0.000 NA
ATOM      6  C   UNL     1       2.892   5.789  18.824  0.00  0.00    +0.000 A 
ATOM      7  H   UNL     1       2.658   9.487  16.731  0.00  0.00    +0.000 HD
ENDROOT
BRANCH   4   8
ATOM      8  C   UNL     1       1.225   9.724  18.155  0.00  0.00    +0.000 A 
ATOM      9  C   UNL     1       1.598  10.563  19.214  0.00  0.00    +0.000 A 
ATOM     10  C   UNL     1       0.652  11.329  19.899  0.00  0.00    +0.000 A 
ATOM     11  C   UNL     1      -0.703  11.252  19.560  0.00  0.00    +0.000 A 
ATOM     12  C   UNL     1      -1.092  10.375  18.536  0.00  0.00    +0.000 A 
ATOM     13  C   UNL     1      -0.136   9.627  17.839  0.00  0.00    +0.000 A 
BRANCH  11  14
ATOM     14  C   UNL     1      -1.731  12.099  20.268  0.00  0.00    +0.000 C 
ATOM     15  F   UNL     1      -1.435  13.430  20.272  0.00  0.00    +0.000 F 
ATOM     16  F   UNL     1      -2.965  11.998  19.697  0.00  0.00    +0.000 F 
ATOM     17  F   UNL     1      -1.895  11.748  21.574  0.00  0.00    +0.000 F 
ENDBRANCH  11  14
ENDBRANCH   4   8
BRANCH   6  18
ATOM     18  C   UNL     1       2.353   4.685  19.616  0.00  0.00    +0.000 A 
ATOM     19  C   UNL     1       1.493   3.761  19.000  0.00  0.00    +0.000 A 
ATOM     20  C   UNL     1       0.938   2.703  19.725  0.00  0.00    +0.000 A 
ATOM     21  C   UNL     1       1.237   2.555  21.076  0.00  0.00    +0.000 A 
ATOM     22  C   UNL     1       2.077   3.472  21.705  0.00  0.00    +0.000 A 
ATOM     23  C   UNL     1       2.618   4.539  20.983  0.00  0.00    +0.000 A 
ENDBRANCH   6  18
BRANCH   1  24
ATOM     24  C   UNL     1       5.220   4.900  18.216  0.00  0.00    +0.000 C 
ATOM     25  O   UNL     1       6.003   4.671  19.133  0.00  0.00    +0.000 OA
BRANCH  24  26
ATOM     26  O   UNL     1       5.297   4.307  16.988  0.00  0.00    +0.000 OA
BRANCH  26  28
ATOM     27  C   UNL     1       6.403   4.404  14.829  0.00  0.00    +0.000 C 
ATOM     28  C   UNL     1       6.576   4.389  16.339  0.00  0.00    +0.000 C 
ENDBRANCH  26  28
ENDBRANCH  24  26
ENDBRANCH   1  24
TORSDOF 6
ENDMDL
MODEL 2
REMARK VINA RESULT:      -7.5      0.217      1.501
REMARK  Name = 
REMARK  7 active torsions:
REMARK  status: ('A' for Active; 'I' for Inactive)
REMARK    1  A    between atoms: C_1  and  C_2
REMARK    2  A    between atoms: C_2  and  O_3
REMARK    3  A    between atoms: O_3  and  C_4
REMARK    4  A    between atoms: C_4  and  C_6
REMARK    5  A    between atoms: N_9  and  C_10
REMARK    6  A    between atoms: C_13  and  C_14
REMARK    7  A    between atoms: C_21  and  C_22
REMARK                            x       y       z     vdW  Elec       q    Type
REMARK                         _______ _______ _______ _____ _____    ______ ____
ROOT
ATOM      1  C   UNL     1       4.026   5.875  18.279  0.00  0.00    +0.000 A 
ATOM      2  S   UNL     1       4.182   7.370  17.438  0.00  0.00    +0.000 S 
ATOM      3  C   UNL     1       2.585   7.810  17.897  0.00  0.00    +0.000 A 
ATOM      4  N   UNL     1       2.048   8.980  17.481  0.00  0.00    +0.000 N 
ATOM      5  N   UNL     1       1.970   6.915  18.632  0.00  0.00    +0.000 NA
ATOM      6  C   UNL     1       2.765   5.799  18.848  0.00  0.00    +0.000 A 
ATOM      7  H   UNL     1       2.557   9.518  16.790  0.00  0.00    +0.000 HD
ENDROOT
BRANCH   4   8
ATOM      8  C   UNL     1       1.120   9.749  18.210  0.00  0.00    +0.000 A 
ATOM      9  C   UNL     1      -0.254   9.746  17.929  0.00  0.00    +0.000 A 
ATOM     10  C   UNL     1      -1.149  10.504  18.686  0.00  0.00    +0.000 A 
ATOM     11  C   UNL     1      -0.689  11.314  19.730  0.00  0.00    +0.000 A 
ATOM     12  C   UNL     1       0.691  11.363  19.984  0.00  0.00    +0.000 A 
ATOM     13  C   UNL     1       1.581  10.583  19.236  0.00  0.00    +0.000 A 
BRANCH  11  14
ATOM     14  C   UNL     1      -1.648  12.112  20.578  0.00  0.00    +0.000 C 
ATOM     15  F   UNL     1      -2.912  12.163  20.071  0.00  0.00    +0.000 F 
ATOM     16  F   UNL     1      -1.774  11.600  21.835  0.00  0.00    +0.000 F 
ATOM     17  F   UNL     1      -1.256  13.406  20.739  0.00  0.00    +0.000 F 
ENDBRANCH  11  14
ENDBRANCH   4   8
BRANCH   6  18
ATOM     18  C   UNL     1       2.218   4.691  19.628  0.00  0.00    +0.000 A 
ATOM     19  C   UNL     1       2.600   4.549  20.971  0.00  0.00    +0.000 A 
ATOM     20  C   UNL     1       2.118   3.492  21.748  0.00  0.00    +0.000 A 
ATOM     21  C   UNL     1       1.245   2.563  21.190  0.00  0.00    +0.000 A 
ATOM     22  C   UNL     1       0.867   2.681  19.854  0.00  0.00    +0.000 A 
ATOM     23  C   UNL     1       1.364   3.729  19.074  0.00  0.00    +0.000 A 
ENDBRANCH   6  18
BRANCH   1  24
ATOM     24  C   UNL     1       5.091   4.905  18.241  0.00  0.00    +0.000 C 
ATOM     25  O   UNL     1       5.898   4.696  19.142  0.00  0.00    +0.000 OA
BRANCH  24  26
ATOM     26  O   UNL     1       5.133   4.282  17.026  0.00  0.00    +0.000 OA
BRANCH  26  28
ATOM     27  C   UNL     1       6.193   3.974  14.864  0.00  0.00    +0.000 C 
ATOM     28  C   UNL     1       6.374   4.399  16.311  0.00  0.00    +0.000 C 
ENDBRANCH  26  28
ENDBRANCH  24  26
ENDBRANCH   1  24
TORSDOF 6
ENDMDL
MODEL 3
REMARK VINA RESULT:      -7.5      0.776      1.222
REMARK  Name = 
REMARK  7 active torsions:
REMARK  status: ('A' for Active; 'I' for Inactive)
REMARK    1  A    between atoms: C_1  and  C_2
REMARK    2  A    between atoms: C_2  and  O_3
REMARK    3  A    between atoms: O_3  and  C_4
REMARK    4  A    between atoms: C_4  and  C_6
REMARK    5  A    between atoms: N_9  and  C_10
REMARK    6  A    between atoms: C_13  and  C_14
REMARK    7  A    between atoms: C_21  and  C_22
REMARK                            x       y       z     vdW  Elec       q    Type
REMARK                         _______ _______ _______ _____ _____    ______ ____
ROOT
ATOM      1  C   UNL     1       4.127   5.853  18.342  0.00  0.00    +0.000 A 
ATOM      2  S   UNL     1       4.280   7.340  17.485  0.00  0.00    +0.000 S 
ATOM      3  C   UNL     1       2.674   7.772  17.919  0.00  0.00    +0.000 A 
ATOM      4  N   UNL     1       2.133   8.932  17.483  0.00  0.00    +0.000 N 
ATOM      5  N   UNL     1       2.058   6.880  18.657  0.00  0.00    +0.000 NA
ATOM      6  C   UNL     1       2.859   5.773  18.896  0.00  0.00    +0.000 A 
ATOM      7  H   UNL     1       2.646   9.467  16.792  0.00  0.00    +0.000 HD
ENDROOT
BRANCH   4   8
ATOM      8  C   UNL     1       1.189   9.701  18.191  0.00  0.00    +0.000 A 
ATOM      9  C   UNL     1       1.529  10.483  19.304  0.00  0.00    +0.000 A 
ATOM     10  C   UNL     1       0.570  11.249  19.971  0.00  0.00    +0.000 A 
ATOM     11  C   UNL     1      -0.767  11.230  19.559  0.00  0.00    +0.000 A 
ATOM     12  C   UNL     1      -1.125  10.409  18.478  0.00  0.00    +0.000 A 
ATOM     13  C   UNL     1      -0.155   9.661  17.800  0.00  0.00    +0.000 A 
BRANCH  11  14
ATOM     14  C   UNL     1      -1.806  12.078  20.247  0.00  0.00    +0.000 C 
ATOM     15  F   UNL     1      -1.972  11.776  21.566  0.00  0.00    +0.000 F 
ATOM     16  F   UNL     1      -1.496  13.405  20.209  0.00  0.00    +0.000 F 
ATOM     17  F   UNL     1      -3.039  11.966  19.679  0.00  0.00    +0.000 F 
ENDBRANCH  11  14
ENDBRANCH   4   8
BRANCH   6  18
ATOM     18  C   UNL     1       2.311   4.669  19.681  0.00  0.00    +0.000 A 
ATOM     19  C   UNL     1       1.449   3.752  19.059  0.00  0.00    +0.000 A 
ATOM     20  C   UNL     1       0.886   2.694  19.777  0.00  0.00    +0.000 A 
ATOM     21  C   UNL     1       1.179   2.539  21.128  0.00  0.00    +0.000 A 
ATOM     22  C   UNL     1       2.020   3.449  21.764  0.00  0.00    +0.000 A 
ATOM     23  C   UNL     1       2.570   4.516  21.049  0.00  0.00    +0.000 A 
ENDBRANCH   6  18
BRANCH   1  24
ATOM     24  C   UNL     1       5.200   4.892  18.329  0.00  0.00    +0.000 C 
ATOM     25  O   UNL     1       5.334   3.961  19.118  0.00  0.00    +0.000 OA
BRANCH  24  26
ATOM     26  O   UNL     1       6.105   5.192  17.351  0.00  0.00    +0.000 OA
BRANCH  26  28
ATOM     27  C   UNL     1       7.827   6.314  18.643  0.00  0.00    +0.000 C 
ATOM     28  C   UNL     1       7.485   5.137  17.745  0.00  0.00    +0.000 C 
ENDBRANCH  26  28
ENDBRANCH  24  26
ENDBRANCH   1  24
TORSDOF 6
ENDMDL
MODEL 4
REMARK VINA RESULT:      -7.5      1.015      1.932
REMARK  Name = 
REMARK  7 active torsions:
REMARK  status: ('A' for Active; 'I' for Inactive)
REMARK    1  A    between atoms: C_1  and  C_2
REMARK    2  A    between atoms: C_2  and  O_3
REMARK    3  A    between atoms: O_3  and  C_4
REMARK    4  A    between atoms: C_4  and  C_6
REMARK    5  A    between atoms: N_9  and  C_10
REMARK    6  A    between atoms: C_13  and  C_14
REMARK    7  A    between atoms: C_21  and  C_22
REMARK                            x       y       z     vdW  Elec       q    Type
REMARK                         _______ _______ _______ _____ _____    ______ ____
ROOT
ATOM      1  C   UNL     1       3.837   6.154  18.122  0.00  0.00    +0.000 A 
ATOM      2  S   UNL     1       3.922   7.702  17.372  0.00  0.00    +0.000 S 
ATOM      3  C   UNL     1       2.354   8.088  17.960  0.00  0.00    +0.000 A 
ATOM      4  N   UNL     1       1.779   9.274  17.657  0.00  0.00    +0.000 N 
ATOM      5  N   UNL     1       1.797   7.138  18.673  0.00  0.00    +0.000 NA
ATOM      6  C   UNL     1       2.616   6.022  18.764  0.00  0.00    +0.000 A 
ATOM      7  H   UNL     1       2.236   9.863  16.971  0.00  0.00    +0.000 HD
ENDROOT
BRANCH   4   8
ATOM      8  C   UNL     1       0.891   9.980  18.492  0.00  0.00    +0.000 A 
ATOM      9  C   UNL     1      -0.451  10.203  18.155  0.00  0.00    +0.000 A 
ATOM     10  C   UNL     1      -1.310  10.889  19.016  0.00  0.00    +0.000 A 
ATOM     11  C   UNL     1      -0.838  11.400  20.231  0.00  0.00    +0.000 A 
ATOM     12  C   UNL     1       0.518  11.227  20.551  0.00  0.00    +0.000 A 
ATOM     13  C   UNL     1       1.367  10.518  19.693  0.00  0.00    +0.000 A 
BRANCH  11  14
ATOM     14  C   UNL     1      -1.761  12.114  21.187  0.00  0.00    +0.000 C 
ATOM     15  F   UNL     1      -3.037  12.240  20.723  0.00  0.00    +0.000 F 
ATOM     16  F   UNL     1      -1.864  11.467  22.382  0.00  0.00    +0.000 F 
ATOM     17  F   UNL     1      -1.343  13.376  21.479  0.00  0.00    +0.000 F 
ENDBRANCH  11  14
ENDBRANCH   4   8
BRANCH   6  18
ATOM     18  C   UNL     1       2.132   4.858  19.502  0.00  0.00    +0.000 A 
ATOM     19  C   UNL     1       2.486   4.712  20.853  0.00  0.00    +0.000 A 
ATOM     20  C   UNL     1       2.063   3.604  21.591  0.00  0.00    +0.000 A 
ATOM     21  C   UNL     1       1.278   2.626  20.988  0.00  0.00    +0.000 A 
ATOM     22  C   UNL     1       0.930   2.748  19.644  0.00  0.00    +0.000 A 
ATOM     23  C   UNL     1       1.368   3.848  18.902  0.00  0.00    +0.000 A 
ENDBRANCH   6  18
BRANCH   1  24
ATOM     24  C   UNL     1       4.908   5.204  17.953  0.00  0.00    +0.000 C 
ATOM     25  O   UNL     1       4.967   4.343  17.080  0.00  0.00    +0.000 OA
BRANCH  24  26
ATOM     26  O   UNL     1       5.835   5.340  18.947  0.00  0.00    +0.000 OA
BRANCH  26  28
ATOM     27  C   UNL     1       7.620   6.742  18.086  0.00  0.00    +0.000 C 
ATOM     28  C   UNL     1       7.206   5.345  18.520  0.00  0.00    +0.000 C 
ENDBRANCH  26  28
ENDBRANCH  24  26
ENDBRANCH   1  24
TORSDOF 6
ENDMDL
MODEL 5
REMARK VINA RESULT:      -7.4      1.352      1.873
REMARK  Name = 
REMARK  7 active torsions:
REMARK  status: ('A' for Active; 'I' for Inactive)
REMARK    1  A    between atoms: C_1  and  C_2
REMARK    2  A    between atoms: C_2  and  O_3
REMARK    3  A    between atoms: O_3  and  C_4
REMARK    4  A    between atoms: C_4  and  C_6
REMARK    5  A    between atoms: N_9  and  C_10
REMARK    6  A    between atoms: C_13  and  C_14
REMARK    7  A    between atoms: C_21  and  C_22
REMARK                            x       y       z     vdW  Elec       q    Type
REMARK                         _______ _______ _______ _____ _____    ______ ____
ROOT
ATOM      1  C   UNL     1       3.652   6.324  18.124  0.00  0.00    +0.000 A 
ATOM      2  S   UNL     1       3.597   7.939  17.526  0.00  0.00    +0.000 S 
ATOM      3  C   UNL     1       2.137   8.222  18.387  0.00  0.00    +0.000 A 
ATOM      4  N   UNL     1       1.506   9.415  18.295  0.00  0.00    +0.000 N 
ATOM      5  N   UNL     1       1.712   7.194  19.081  0.00  0.00    +0.000 NA
ATOM      6  C   UNL     1       2.549   6.098  18.933  0.00  0.00    +0.000 A 
ATOM      7  H   UNL     1       1.841  10.080  17.608  0.00  0.00    +0.000 HD
ENDROOT
BRANCH   4   8
ATOM      8  C   UNL     1       0.752  10.013  19.324  0.00  0.00    +0.000 A 
ATOM      9  C   UNL     1      -0.250  10.962  19.077  0.00  0.00    +0.000 A 
ATOM     10  C   UNL     1      -0.992  11.520  20.120  0.00  0.00    +0.000 A 
ATOM     11  C   UNL     1      -0.730  11.164  21.448  0.00  0.00    +0.000 A 
ATOM     12  C   UNL     1       0.307  10.254  21.707  0.00  0.00    +0.000 A 
ATOM     13  C   UNL     1       1.032   9.682  20.655  0.00  0.00    +0.000 A 
BRANCH  11  14
ATOM     14  C   UNL     1      -1.546  11.732  22.582  0.00  0.00    +0.000 C 
ATOM     15  F   UNL     1      -0.949  12.782  23.213  0.00  0.00    +0.000 F 
ATOM     16  F   UNL     1      -2.759  12.193  22.163  0.00  0.00    +0.000 F 
ATOM     17  F   UNL     1      -1.810  10.813  23.552  0.00  0.00    +0.000 F 
ENDBRANCH  11  14
ENDBRANCH   4   8
BRANCH   6  18
ATOM     18  C   UNL     1       2.203   4.855  19.620  0.00  0.00    +0.000 A 
ATOM     19  C   UNL     1       1.588   3.824  18.893  0.00  0.00    +0.000 A 
ATOM     20  C   UNL     1       1.221   2.627  19.514  0.00  0.00    +0.000 A 
ATOM     21  C   UNL     1       1.466   2.446  20.872  0.00  0.00    +0.000 A 
ATOM     22  C   UNL     1       2.062   3.466  21.611  0.00  0.00    +0.000 A 
ATOM     23  C   UNL     1       2.414   4.669  20.992  0.00  0.00    +0.000 A 
ENDBRANCH   6  18
BRANCH   1  24
ATOM     24  C   UNL     1       4.694   5.425  17.698  0.00  0.00    +0.000 C 
ATOM     25  O   UNL     1       4.613   4.628  16.769  0.00  0.00    +0.000 OA
BRANCH  24  26
ATOM     26  O   UNL     1       5.783   5.526  18.517  0.00  0.00    +0.000 OA
BRANCH  26  28
ATOM     27  C   UNL     1       7.383   7.038  17.494  0.00  0.00    +0.000 C 
ATOM     28  C   UNL     1       7.055   5.598  17.852  0.00  0.00    +0.000 C 
ENDBRANCH  26  28
ENDBRANCH  24  26
ENDBRANCH   1  24
TORSDOF 6
ENDMDL
MODEL 6
REMARK VINA RESULT:      -7.4      0.879      1.599
REMARK  Name = 
REMARK  7 active torsions:
REMARK  status: ('A' for Active; 'I' for Inactive)
REMARK    1  A    between atoms: C_1  and  C_2
REMARK    2  A    between atoms: C_2  and  O_3
REMARK    3  A    between atoms: O_3  and  C_4
REMARK    4  A    between atoms: C_4  and  C_6
REMARK    5  A    between atoms: N_9  and  C_10
REMARK    6  A    between atoms: C_13  and  C_14
REMARK    7  A    between atoms: C_21  and  C_22
REMARK                            x       y       z     vdW  Elec       q    Type
REMARK                         _______ _______ _______ _____ _____    ______ ____
ROOT
ATOM      1  C   UNL     1       3.931   5.989  18.139  0.00  0.00    +0.000 A 
ATOM      2  S   UNL     1       4.056   7.517  17.354  0.00  0.00    +0.000 S 
ATOM      3  C   UNL     1       2.484   7.943  17.905  0.00  0.00    +0.000 A 
ATOM      4  N   UNL     1       1.936   9.132  17.564  0.00  0.00    +0.000 N 
ATOM      5  N   UNL     1       1.899   7.021  18.631  0.00  0.00    +0.000 NA
ATOM      6  C   UNL     1       2.697   5.894  18.763  0.00  0.00    +0.000 A 
ATOM      7  H   UNL     1       2.415   9.696  16.872  0.00  0.00    +0.000 HD
ENDROOT
BRANCH   4   8
ATOM      8  C   UNL     1       1.047   9.873  18.366  0.00  0.00    +0.000 A 
ATOM      9  C   UNL     1       1.447  10.518  19.544  0.00  0.00    +0.000 A 
ATOM     10  C   UNL     1       0.543  11.262  20.306  0.00  0.00    +0.000 A 
ATOM     11  C   UNL     1      -0.800  11.354  19.924  0.00  0.00    +0.000 A 
ATOM     12  C   UNL     1      -1.220  10.667  18.774  0.00  0.00    +0.000 A 
ATOM     13  C   UNL     1      -0.304   9.942  18.003  0.00  0.00    +0.000 A 
BRANCH  11  14
ATOM     14  C   UNL     1      -1.781  12.181  20.717  0.00  0.00    +0.000 C 
ATOM     15  F   UNL     1      -3.037  12.198  20.188  0.00  0.00    +0.000 F 
ATOM     16  F   UNL     1      -1.924  11.726  21.994  0.00  0.00    +0.000 F 
ATOM     17  F   UNL     1      -1.403  13.485  20.826  0.00  0.00    +0.000 F 
ENDBRANCH  11  14
ENDBRANCH   4   8
BRANCH   6  18
ATOM     18  C   UNL     1       2.180   4.756  19.521  0.00  0.00    +0.000 A 
ATOM     19  C   UNL     1       2.518   4.632  20.878  0.00  0.00    +0.000 A 
ATOM     20  C   UNL     1       2.063   3.549  21.635  0.00  0.00    +0.000 A 
ATOM     21  C   UNL     1       1.262   2.576  21.044  0.00  0.00    +0.000 A 
ATOM     22  C   UNL     1       0.931   2.677  19.695  0.00  0.00    +0.000 A 
ATOM     23  C   UNL     1       1.400   3.751  18.934  0.00  0.00    +0.000 A 
ENDBRANCH   6  18
BRANCH   1  24
ATOM     24  C   UNL     1       4.987   5.017  18.011  0.00  0.00    +0.000 C 
ATOM     25  O   UNL     1       4.960   3.871  18.451  0.00  0.00    +0.000 OA
BRANCH  24  26
ATOM     26  O   UNL     1       6.072   5.562  17.386  0.00  0.00    +0.000 OA
BRANCH  26  28
ATOM     27  C   UNL     1       7.835   5.935  19.013  0.00  0.00    +0.000 C 
ATOM     28  C   UNL     1       7.351   5.094  17.843  0.00  0.00    +0.000 C 
ENDBRANCH  26  28
ENDBRANCH  24  26
ENDBRANCH   1  24
TORSDOF 6
ENDMDL
MODEL 7
REMARK VINA RESULT:      -7.4      1.990      4.072
REMARK  Name = 
REMARK  7 active torsions:
REMARK  status: ('A' for Active; 'I' for Inactive)
REMARK    1  A    between atoms: C_1  and  C_2
REMARK    2  A    between atoms: C_2  and  O_3
REMARK    3  A    between atoms: O_3  and  C_4
REMARK    4  A    between atoms: C_4  and  C_6
REMARK    5  A    between atoms: N_9  and  C_10
REMARK    6  A    between atoms: C_13  and  C_14
REMARK    7  A    between atoms: C_21  and  C_22
REMARK                            x       y       z     vdW  Elec       q    Type
REMARK                         _______ _______ _______ _____ _____    ______ ____
ROOT
ATOM      1  C   UNL     1       3.343   4.372  19.514  0.00  0.00    +0.000 A 
ATOM      2  S   UNL     1       2.439   4.950  20.862  0.00  0.00    +0.000 S 
ATOM      3  C   UNL     1       2.386   6.522  20.169  0.00  0.00    +0.000 A 
ATOM      4  N   UNL     1       1.783   7.541  20.824  0.00  0.00    +0.000 N 
ATOM      5  N   UNL     1       2.991   6.621  19.010  0.00  0.00    +0.000 NA
ATOM      6  C   UNL     1       3.557   5.414  18.626  0.00  0.00    +0.000 A 
ATOM      7  H   UNL     1       1.487   7.384  21.779  0.00  0.00    +0.000 HD
ENDROOT
BRANCH   4   8
ATOM      8  C   UNL     1       1.117   8.617  20.206  0.00  0.00    +0.000 A 
ATOM      9  C   UNL     1       1.435   9.066  18.916  0.00  0.00    +0.000 A 
ATOM     10  C   UNL     1       0.740  10.124  18.326  0.00  0.00    +0.000 A 
ATOM     11  C   UNL     1      -0.276  10.785  19.025  0.00  0.00    +0.000 A 
ATOM     12  C   UNL     1      -0.565  10.375  20.336  0.00  0.00    +0.000 A 
ATOM     13  C   UNL     1       0.120   9.300  20.914  0.00  0.00    +0.000 A 
BRANCH  11  14
ATOM     14  C   UNL     1      -1.058  11.906  18.387  0.00  0.00    +0.000 C 
ATOM     15  F   UNL     1      -1.720  11.536  17.255  0.00  0.00    +0.000 F 
ATOM     16  F   UNL     1      -2.009  12.412  19.223  0.00  0.00    +0.000 F 
ATOM     17  F   UNL     1      -0.272  12.961  18.034  0.00  0.00    +0.000 F 
ENDBRANCH  11  14
ENDBRANCH   4   8
BRANCH   6  18
ATOM     18  C   UNL     1       4.297   5.358  17.367  0.00  0.00    +0.000 A 
ATOM     19  C   UNL     1       4.620   6.558  16.713  0.00  0.00    +0.000 A 
ATOM     20  C   UNL     1       5.308   6.550  15.496  0.00  0.00    +0.000 A 
ATOM     21  C   UNL     1       5.683   5.341  14.918  0.00  0.00    +0.000 A 
ATOM     22  C   UNL     1       5.356   4.141  15.547  0.00  0.00    +0.000 A 
ATOM     23  C   UNL     1       4.654   4.149  16.755  0.00  0.00    +0.000 A 
ENDBRANCH   6  18
BRANCH   1  24
ATOM     24  C   UNL     1       3.815   3.011  19.485  0.00  0.00    +0.000 C 
ATOM     25  O   UNL     1       4.859   2.607  19.989  0.00  0.00    +0.000 OA
BRANCH  24  26
ATOM     26  O   UNL     1       2.973   2.223  18.752  0.00  0.00    +0.000 OA
BRANCH  26  28
ATOM     27  C   UNL     1       0.556   2.454  18.730  0.00  0.00    +0.000 C 
ATOM     28  C   UNL     1       1.760   1.830  19.415  0.00  0.00    +0.000 C 
ENDBRANCH  26  28
ENDBRANCH  24  26
ENDBRANCH   1  24
TORSDOF 6
ENDMDL
MODEL 8
REMARK VINA RESULT:      -7.4      1.444      1.888
REMARK  Name = 
REMARK  7 active torsions:
REMARK  status: ('A' for Active; 'I' for Inactive)
REMARK    1  A    between atoms: C_1  and  C_2
REMARK    2  A    between atoms: C_2  and  O_3
REMARK    3  A    between atoms: O_3  and  C_4
REMARK    4  A    between atoms: C_4  and  C_6
REMARK    5  A    between atoms: N_9  and  C_10
REMARK    6  A    between atoms: C_13  and  C_14
REMARK    7  A    between atoms: C_21  and  C_22
REMARK                            x       y       z     vdW  Elec       q    Type
REMARK                         _______ _______ _______ _____ _____    ______ ____
ROOT
ATOM      1  C   UNL     1       3.607   6.416  18.006  0.00  0.00    +0.000 A 
ATOM      2  S   UNL     1       3.536   8.054  17.479  0.00  0.00    +0.000 S 
ATOM      3  C   UNL     1       2.086   8.293  18.371  0.00  0.00    +0.000 A 
ATOM      4  N   UNL     1       1.448   9.486  18.339  0.00  0.00    +0.000 N 
ATOM      5  N   UNL     1       1.676   7.234  19.026  0.00  0.00    +0.000 NA
ATOM      6  C   UNL     1       2.517   6.149  18.819  0.00  0.00    +0.000 A 
ATOM      7  H   UNL     1       1.771  10.180  17.677  0.00  0.00    +0.000 HD
ENDROOT
BRANCH   4   8
ATOM      8  C   UNL     1       0.706  10.035  19.403  0.00  0.00    +0.000 A 
ATOM      9  C   UNL     1       0.953   9.713  20.745  0.00  0.00    +0.000 A 
ATOM     10  C   UNL     1       0.210  10.292  21.776  0.00  0.00    +0.000 A 
ATOM     11  C   UNL     1      -0.824  11.189  21.490  0.00  0.00    +0.000 A 
ATOM     12  C   UNL     1      -1.112  11.476  20.146  0.00  0.00    +0.000 A 
ATOM     13  C   UNL     1      -0.349  10.910  19.118  0.00  0.00    +0.000 A 
BRANCH  11  14
ATOM     14  C   UNL     1      -1.612  11.848  22.594  0.00  0.00    +0.000 C 
ATOM     15  F   UNL     1      -2.769  12.429  22.170  0.00  0.00    +0.000 F 
ATOM     16  F   UNL     1      -1.977  10.963  23.565  0.00  0.00    +0.000 F 
ATOM     17  F   UNL     1      -0.911  12.829  23.228  0.00  0.00    +0.000 F 
ENDBRANCH  11  14
ENDBRANCH   4   8
BRANCH   6  18
ATOM     18  C   UNL     1       2.186   4.877  19.457  0.00  0.00    +0.000 A 
ATOM     19  C   UNL     1       1.512   3.896  18.711  0.00  0.00    +0.000 A 
ATOM     20  C   UNL     1       1.158   2.673  19.287  0.00  0.00    +0.000 A 
ATOM     21  C   UNL     1       1.475   2.414  20.617  0.00  0.00    +0.000 A 
ATOM     22  C   UNL     1       2.129   3.383  21.375  0.00  0.00    +0.000 A 
ATOM     23  C   UNL     1       2.468   4.612  20.803  0.00  0.00    +0.000 A 
ENDBRANCH   6  18
BRANCH   1  24
ATOM     24  C   UNL     1       4.648   5.542  17.527  0.00  0.00    +0.000 C 
ATOM     25  O   UNL     1       4.486   4.586  16.775  0.00  0.00    +0.000 OA
BRANCH  24  26
ATOM     26  O   UNL     1       5.851   5.876  18.081  0.00  0.00    +0.000 OA
BRANCH  26  28
ATOM     27  C   UNL     1       7.576   7.502  17.554  0.00  0.00    +0.000 C 
ATOM     28  C   UNL     1       6.892   6.207  17.147  0.00  0.00    +0.000 C 
ENDBRANCH  26  28
ENDBRANCH  24  26
ENDBRANCH   1  24
TORSDOF 6
ENDMDL
MODEL 9
REMARK VINA RESULT:      -7.4      2.075      4.032
REMARK  Name = 
REMARK  7 active torsions:
REMARK  status: ('A' for Active; 'I' for Inactive)
REMARK    1  A    between atoms: C_1  and  C_2
REMARK    2  A    between atoms: C_2  and  O_3
REMARK    3  A    between atoms: O_3  and  C_4
REMARK    4  A    between atoms: C_4  and  C_6
REMARK    5  A    between atoms: N_9  and  C_10
REMARK    6  A    between atoms: C_13  and  C_14
REMARK    7  A    between atoms: C_21  and  C_22
REMARK                            x       y       z     vdW  Elec       q    Type
REMARK                         _______ _______ _______ _____ _____    ______ ____
ROOT
ATOM      1  C   UNL     1       3.399   4.379  19.818  0.00  0.00    +0.000 A 
ATOM      2  S   UNL     1       2.187   4.822  20.958  0.00  0.00    +0.000 S 
ATOM      3  C   UNL     1       2.290   6.461  20.451  0.00  0.00    +0.000 A 
ATOM      4  N   UNL     1       1.535   7.413  21.046  0.00  0.00    +0.000 N 
ATOM      5  N   UNL     1       3.160   6.675  19.494  0.00  0.00    +0.000 NA
ATOM      6  C   UNL     1       3.815   5.508  19.129  0.00  0.00    +0.000 A 
ATOM      7  H   UNL     1       1.015   7.158  21.877  0.00  0.00    +0.000 HD
ENDROOT
BRANCH   4   8
ATOM      8  C   UNL     1       1.030   8.562  20.406  0.00  0.00    +0.000 A 
ATOM      9  C   UNL     1       1.414   8.939  19.111  0.00  0.00    +0.000 A 
ATOM     10  C   UNL     1       0.879  10.074  18.499  0.00  0.00    +0.000 A 
ATOM     11  C   UNL     1      -0.037  10.884  19.181  0.00  0.00    +0.000 A 
ATOM     12  C   UNL     1      -0.386  10.542  20.496  0.00  0.00    +0.000 A 
ATOM     13  C   UNL     1       0.137   9.391  21.096  0.00  0.00    +0.000 A 
BRANCH  11  14
ATOM     14  C   UNL     1      -0.649  12.093  18.520  0.00  0.00    +0.000 C 
ATOM     15  F   UNL     1      -1.463  12.813  19.343  0.00  0.00    +0.000 F 
ATOM     16  F   UNL     1       0.294  12.970  18.074  0.00  0.00    +0.000 F 
ATOM     17  F   UNL     1      -1.405  11.773  17.433  0.00  0.00    +0.000 F 
ENDBRANCH  11  14
ENDBRANCH   4   8
BRANCH   6  18
ATOM     18  C   UNL     1       4.841   5.576  18.091  0.00  0.00    +0.000 A 
ATOM     19  C   UNL     1       4.475   5.346  16.755  0.00  0.00    +0.000 A 
ATOM     20  C   UNL     1       5.428   5.381  15.734  0.00  0.00    +0.000 A 
ATOM     21  C   UNL     1       6.760   5.648  16.035  0.00  0.00    +0.000 A 
ATOM     22  C   UNL     1       7.142   5.864  17.357  0.00  0.00    +0.000 A 
ATOM     23  C   UNL     1       6.191   5.812  18.381  0.00  0.00    +0.000 A 
ENDBRANCH   6  18
BRANCH   1  24
ATOM     24  C   UNL     1       3.878   3.021  19.756  0.00  0.00    +0.000 C 
ATOM     25  O   UNL     1       5.056   2.678  19.778  0.00  0.00    +0.000 OA
BRANCH  24  26
ATOM     26  O   UNL     1       2.838   2.150  19.597  0.00  0.00    +0.000 OA
BRANCH  26  28
ATOM     27  C   UNL     1       0.621   2.316  18.621  0.00  0.00    +0.000 C 
ATOM     28  C   UNL     1       2.117   2.263  18.359  0.00  0.00    +0.000 C 
ENDBRANCH  26  28
ENDBRANCH  24  26
ENDBRANCH   1  24
TORSDOF 6
ENDMDL
