MODEL 1
REMARK VINA RESULT:      -7.6      0.000      0.000
REMARK  Name = 
REMARK  10 active torsions:
REMARK  status: ('A' for Active; 'I' for Inactive)
REMARK    1  A    between atoms: C_2  and  C_3
REMARK    2  A    between atoms: C_2  and  O_23
REMARK    3  A    between atoms: C_3  and  C_4
REMARK    4  A    between atoms: C_4  and  N_5
REMARK    5  A    between atoms: C_7  and  C_8
REMARK    6  A    between atoms: C_8  and  O_10
REMARK    7  A    between atoms: O_10  and  C_11
REMARK    8  A    between atoms: C_11  and  C_12
REMARK    9  A    between atoms: C_13  and  C_14
REMARK   10  A    between atoms: O_23  and  C_24
REMARK                            x       y       z     vdW  Elec       q    Type
REMARK                         _______ _______ _______ _____ _____    ______ ____
ROOT
ATOM      1  N   UNL     1       4.748   5.144  17.128  0.00  0.00    +0.000 N 
ATOM      2  C   UNL     1       3.566   4.439  17.308  0.00  0.00    +0.000 C 
ATOM      3  C   UNL     1       2.846   4.613  18.428  0.00  0.00    +0.000 C 
ATOM      4  C   UNL     1       3.279   5.624  19.445  0.00  0.00    +0.000 C 
ATOM      5  N   UNL     1       4.718   5.787  19.370  0.00  0.00    +0.000 N 
ATOM      6  C   UNL     1       5.379   5.809  18.173  0.00  0.00    +0.000 C 
ATOM      7  O   UNL     1       6.451   6.397  18.079  0.00  0.00    +0.000 OA
ATOM      8  H   UNL     1       5.162   6.361  20.073  0.00  0.00    +0.000 HD
ENDROOT
BRANCH   4   9
ATOM      9  C   UNL     1       2.582   6.975  19.268  0.00  0.00    +0.000 A 
ATOM     10  C   UNL     1       1.909   7.574  20.343  0.00  0.00    +0.000 A 
ATOM     11  C   UNL     1       1.246   8.794  20.177  0.00  0.00    +0.000 A 
ATOM     12  C   UNL     1       1.249   9.436  18.940  0.00  0.00    +0.000 A 
ATOM     13  C   UNL     1       1.922   8.867  17.867  0.00  0.00    +0.000 A 
ATOM     14  C   UNL     1       2.583   7.651  18.032  0.00  0.00    +0.000 A 
ENDBRANCH   4   9
BRANCH   3  15
ATOM     15  C   UNL     1       1.541   3.936  18.546  0.00  0.00    +0.000 C 
ATOM     16  O   UNL     1       0.939   3.445  17.603  0.00  0.00    +0.000 OA
BRANCH  15  17
ATOM     17  O   UNL     1       1.085   4.019  19.821  0.00  0.00    +0.000 OA
BRANCH  17  18
ATOM     18  C   UNL     1       1.088   2.788  20.559  0.00  0.00    +0.000 C 
ATOM     19  C   UNL     1       2.191   2.863  21.599  0.00  0.00    +0.000 C 
ENDBRANCH  17  18
ENDBRANCH  15  17
ENDBRANCH   3  15
BRANCH   1  20
ATOM     20  C   UNL     1       5.264   5.336  15.772  0.00  0.00    +0.000 C 
BRANCH  20  21
ATOM     21  C   UNL     1       5.815   4.061  15.132  0.00  0.00    +0.000 C 
BRANCH  21  23
ATOM     22  C   UNL     1       6.468   3.726  12.745  0.00  0.00    +0.000 C 
ATOM     23  C   UNL     1       6.646   4.368  13.906  0.00  0.00    +0.000 C 
BRANCH  23  24
ATOM     24  O   UNL     1       7.688   5.278  13.997  0.00  0.00    +0.000 OA
ATOM     25  C   UNL     1       8.277   5.660  12.758  0.00  0.00    +0.000 C 
ENDBRANCH  23  24
ENDBRANCH  21  23
ENDBRANCH  20  21
ENDBRANCH   1  20
TORSDOF 8
ENDMDL
MODEL 2
REMARK VINA RESULT:      -7.6      1.633      2.252
REMARK  Name = 
REMARK  10 active torsions:
REMARK  status: ('A' for Active; 'I' for Inactive)
REMARK    1  A    between atoms: C_2  and  C_3
REMARK    2  A    between atoms: C_2  and  O_23
REMARK    3  A    between atoms: C_3  and  C_4
REMARK    4  A    between atoms: C_4  and  N_5
REMARK    5  A    between atoms: C_7  and  C_8
REMARK    6  A    between atoms: C_8  and  O_10
REMARK    7  A    between atoms: O_10  and  C_11
REMARK    8  A    between atoms: C_11  and  C_12
REMARK    9  A    between atoms: C_13  and  C_14
REMARK   10  A    between atoms: O_23  and  C_24
REMARK                            x       y       z     vdW  Elec       q    Type
REMARK                         _______ _______ _______ _____ _____    ______ ____
ROOT
ATOM      1  N   UNL     1       6.117   4.130  16.705  0.00  0.00    +0.000 N 
ATOM      2  C   UNL     1       5.004   3.318  16.873  0.00  0.00    +0.000 C 
ATOM      3  C   UNL     1       4.266   3.416  17.990  0.00  0.00    +0.000 C 
ATOM      4  C   UNL     1       4.600   4.453  19.019  0.00  0.00    +0.000 C 
ATOM      5  N   UNL     1       6.018   4.747  18.952  0.00  0.00    +0.000 N 
ATOM      6  C   UNL     1       6.680   4.841  17.759  0.00  0.00    +0.000 C 
ATOM      7  O   UNL     1       7.695   5.525  17.676  0.00  0.00    +0.000 OA
ATOM      8  H   UNL     1       6.404   5.353  19.663  0.00  0.00    +0.000 HD
ENDROOT
BRANCH   4   9
ATOM      9  C   UNL     1       3.783   5.736  18.850  0.00  0.00    +0.000 A 
ATOM     10  C   UNL     1       3.996   6.574  17.745  0.00  0.00    +0.000 A 
ATOM     11  C   UNL     1       3.273   7.762  17.603  0.00  0.00    +0.000 A 
ATOM     12  C   UNL     1       2.324   8.129  18.556  0.00  0.00    +0.000 A 
ATOM     13  C   UNL     1       2.087   7.306  19.649  0.00  0.00    +0.000 A 
ATOM     14  C   UNL     1       2.808   6.122  19.791  0.00  0.00    +0.000 A 
ENDBRANCH   4   9
BRANCH   3  15
ATOM     15  C   UNL     1       3.028   2.621  18.095  0.00  0.00    +0.000 C 
ATOM     16  O   UNL     1       2.225   2.483  17.184  0.00  0.00    +0.000 OA
BRANCH  15  17
ATOM     17  O   UNL     1       2.879   2.151  19.359  0.00  0.00    +0.000 OA
BRANCH  17  18
ATOM     18  C   UNL     1       1.593   2.373  19.954  0.00  0.00    +0.000 C 
ATOM     19  C   UNL     1       1.806   2.852  21.378  0.00  0.00    +0.000 C 
ENDBRANCH  17  18
ENDBRANCH  15  17
ENDBRANCH   3  15
BRANCH   1  20
ATOM     20  C   UNL     1       6.620   4.381  15.353  0.00  0.00    +0.000 C 
BRANCH  20  21
ATOM     21  C   UNL     1       5.541   4.328  14.271  0.00  0.00    +0.000 C 
BRANCH  21  23
ATOM     22  C   UNL     1       7.129   4.292  12.344  0.00  0.00    +0.000 C 
ATOM     23  C   UNL     1       6.078   3.757  12.978  0.00  0.00    +0.000 C 
BRANCH  23  24
ATOM     24  O   UNL     1       5.418   2.700  12.371  0.00  0.00    +0.000 OA
ATOM     25  C   UNL     1       4.444   3.064  11.398  0.00  0.00    +0.000 C 
ENDBRANCH  23  24
ENDBRANCH  21  23
ENDBRANCH  20  21
ENDBRANCH   1  20
TORSDOF 8
ENDMDL
MODEL 3
REMARK VINA RESULT:      -7.5      2.483      6.463
REMARK  Name = 
REMARK  10 active torsions:
REMARK  status: ('A' for Active; 'I' for Inactive)
REMARK    1  A    between atoms: C_2  and  C_3
REMARK    2  A    between atoms: C_2  and  O_23
REMARK    3  A    between atoms: C_3  and  C_4
REMARK    4  A    between atoms: C_4  and  N_5
REMARK    5  A    between atoms: C_7  and  C_8
REMARK    6  A    between atoms: C_8  and  O_10
REMARK    7  A    between atoms: O_10  and  C_11
REMARK    8  A    between atoms: C_11  and  C_12
REMARK    9  A    between atoms: C_13  and  C_14
REMARK   10  A    between atoms: O_23  and  C_24
REMARK                            x       y       z     vdW  Elec       q    Type
REMARK                         _______ _______ _______ _____ _____    ______ ____
ROOT
ATOM      1  N   UNL     1       4.239   4.023  17.822  0.00  0.00    +0.000 N 
ATOM      2  C   UNL     1       4.943   3.881  16.634  0.00  0.00    +0.000 C 
ATOM      3  C   UNL     1       5.358   4.970  15.967  0.00  0.00    +0.000 C 
ATOM      4  C   UNL     1       5.129   6.333  16.544  0.00  0.00    +0.000 C 
ATOM      5  N   UNL     1       3.953   6.298  17.392  0.00  0.00    +0.000 N 
ATOM      6  C   UNL     1       3.689   5.238  18.215  0.00  0.00    +0.000 C 
ATOM      7  O   UNL     1       3.012   5.403  19.224  0.00  0.00    +0.000 OA
ATOM      8  H   UNL     1       3.618   7.175  17.763  0.00  0.00    +0.000 HD
ENDROOT
BRANCH   4   9
ATOM      9  C   UNL     1       6.336   6.850  17.332  0.00  0.00    +0.000 A 
ATOM     10  C   UNL     1       6.823   8.148  17.115  0.00  0.00    +0.000 A 
ATOM     11  C   UNL     1       7.942   8.613  17.811  0.00  0.00    +0.000 A 
ATOM     12  C   UNL     1       8.589   7.795  18.737  0.00  0.00    +0.000 A 
ATOM     13  C   UNL     1       8.113   6.512  18.976  0.00  0.00    +0.000 A 
ATOM     14  C   UNL     1       6.997   6.048  18.283  0.00  0.00    +0.000 A 
ENDBRANCH   4   9
BRANCH   3  15
ATOM     15  C   UNL     1       6.197   4.790  14.767  0.00  0.00    +0.000 C 
ATOM     16  O   UNL     1       7.342   5.205  14.665  0.00  0.00    +0.000 OA
BRANCH  15  17
ATOM     17  O   UNL     1       5.484   4.183  13.785  0.00  0.00    +0.000 OA
BRANCH  17  18
ATOM     18  C   UNL     1       6.261   3.570  12.746  0.00  0.00    +0.000 C 
ATOM     19  C   UNL     1       5.308   2.892  11.779  0.00  0.00    +0.000 C 
ENDBRANCH  17  18
ENDBRANCH  15  17
ENDBRANCH   3  15
BRANCH   1  20
ATOM     20  C   UNL     1       4.212   2.910  18.773  0.00  0.00    +0.000 C 
BRANCH  20  21
ATOM     21  C   UNL     1       3.127   1.873  18.482  0.00  0.00    +0.000 C 
BRANCH  21  23
ATOM     22  C   UNL     1       0.739   2.559  18.727  0.00  0.00    +0.000 C 
ATOM     23  C   UNL     1       1.876   2.134  19.291  0.00  0.00    +0.000 C 
BRANCH  23  24
ATOM     24  O   UNL     1       1.919   2.018  20.671  0.00  0.00    +0.000 OA
ATOM     25  C   UNL     1       1.326   3.091  21.395  0.00  0.00    +0.000 C 
ENDBRANCH  23  24
ENDBRANCH  21  23
ENDBRANCH  20  21
ENDBRANCH   1  20
TORSDOF 8
ENDMDL
MODEL 4
REMARK VINA RESULT:      -7.5      1.350      1.687
REMARK  Name = 
REMARK  10 active torsions:
REMARK  status: ('A' for Active; 'I' for Inactive)
REMARK    1  A    between atoms: C_2  and  C_3
REMARK    2  A    between atoms: C_2  and  O_23
REMARK    3  A    between atoms: C_3  and  C_4
REMARK    4  A    between atoms: C_4  and  N_5
REMARK    5  A    between atoms: C_7  and  C_8
REMARK    6  A    between atoms: C_8  and  O_10
REMARK    7  A    between atoms: O_10  and  C_11
REMARK    8  A    between atoms: C_11  and  C_12
REMARK    9  A    between atoms: C_13  and  C_14
REMARK   10  A    between atoms: O_23  and  C_24
REMARK                            x       y       z     vdW  Elec       q    Type
REMARK                         _______ _______ _______ _____ _____    ______ ____
ROOT
ATOM      1  N   UNL     1       5.442   4.808  16.340  0.00  0.00    +0.000 N 
ATOM      2  C   UNL     1       4.399   3.944  16.643  0.00  0.00    +0.000 C 
ATOM      3  C   UNL     1       3.851   3.957  17.868  0.00  0.00    +0.000 C 
ATOM      4  C   UNL     1       4.314   4.957  18.883  0.00  0.00    +0.000 C 
ATOM      5  N   UNL     1       5.692   5.314  18.604  0.00  0.00    +0.000 N 
ATOM      6  C   UNL     1       6.145   5.491  17.326  0.00  0.00    +0.000 C 
ATOM      7  O   UNL     1       7.109   6.221  17.116  0.00  0.00    +0.000 OA
ATOM      8  H   UNL     1       6.168   5.901  19.273  0.00  0.00    +0.000 HD
ENDROOT
BRANCH   4   9
ATOM      9  C   UNL     1       3.438   6.212  18.917  0.00  0.00    +0.000 A 
ATOM     10  C   UNL     1       2.620   6.478  20.025  0.00  0.00    +0.000 A 
ATOM     11  C   UNL     1       1.796   7.607  20.047  0.00  0.00    +0.000 A 
ATOM     12  C   UNL     1       1.780   8.490  18.969  0.00  0.00    +0.000 A 
ATOM     13  C   UNL     1       2.594   8.253  17.869  0.00  0.00    +0.000 A 
ATOM     14  C   UNL     1       3.415   7.127  17.846  0.00  0.00    +0.000 A 
ENDBRANCH   4   9
BRANCH   3  15
ATOM     15  C   UNL     1       2.674   3.107  18.130  0.00  0.00    +0.000 C 
ATOM     16  O   UNL     1       1.753   2.954  17.342  0.00  0.00    +0.000 OA
BRANCH  15  17
ATOM     17  O   UNL     1       2.732   2.603  19.388  0.00  0.00    +0.000 OA
BRANCH  17  18
ATOM     18  C   UNL     1       1.511   2.676  20.139  0.00  0.00    +0.000 C 
ATOM     19  C   UNL     1       1.855   3.074  21.563  0.00  0.00    +0.000 C 
ENDBRANCH  17  18
ENDBRANCH  15  17
ENDBRANCH   3  15
BRANCH   1  20
ATOM     20  C   UNL     1       5.707   5.144  14.941  0.00  0.00    +0.000 C 
BRANCH  20  21
ATOM     21  C   UNL     1       6.688   4.194  14.251  0.00  0.00    +0.000 C 
BRANCH  21  23
ATOM     22  C   UNL     1       6.947   3.394  11.900  0.00  0.00    +0.000 C 
ATOM     23  C   UNL     1       6.146   3.699  12.929  0.00  0.00    +0.000 C 
BRANCH  23  24
ATOM     24  O   UNL     1       4.776   3.638  12.731  0.00  0.00    +0.000 OA
ATOM     25  C   UNL     1       4.362   3.203  11.440  0.00  0.00    +0.000 C 
ENDBRANCH  23  24
ENDBRANCH  21  23
ENDBRANCH  20  21
ENDBRANCH   1  20
TORSDOF 8
ENDMDL
MODEL 5
REMARK VINA RESULT:      -7.5      3.205      5.597
REMARK  Name = 
REMARK  10 active torsions:
REMARK  status: ('A' for Active; 'I' for Inactive)
REMARK    1  A    between atoms: C_2  and  C_3
REMARK    2  A    between atoms: C_2  and  O_23
REMARK    3  A    between atoms: C_3  and  C_4
REMARK    4  A    between atoms: C_4  and  N_5
REMARK    5  A    between atoms: C_7  and  C_8
REMARK    6  A    between atoms: C_8  and  O_10
REMARK    7  A    between atoms: O_10  and  C_11
REMARK    8  A    between atoms: C_11  and  C_12
REMARK    9  A    between atoms: C_13  and  C_14
REMARK   10  A    between atoms: O_23  and  C_24
REMARK                            x       y       z     vdW  Elec       q    Type
REMARK                         _______ _______ _______ _____ _____    ______ ____
ROOT
ATOM      1  N   UNL     1       7.708   6.446  18.279  0.00  0.00    +0.000 N 
ATOM      2  C   UNL     1       7.144   6.442  17.012  0.00  0.00    +0.000 C 
ATOM      3  C   UNL     1       6.163   5.573  16.718  0.00  0.00    +0.000 C 
ATOM      4  C   UNL     1       5.627   4.664  17.781  0.00  0.00    +0.000 C 
ATOM      5  N   UNL     1       6.666   4.416  18.762  0.00  0.00    +0.000 N 
ATOM      6  C   UNL     1       7.512   5.405  19.180  0.00  0.00    +0.000 C 
ATOM      7  O   UNL     1       8.034   5.334  20.288  0.00  0.00    +0.000 OA
ATOM      8  H   UNL     1       6.477   3.732  19.481  0.00  0.00    +0.000 HD
ENDROOT
BRANCH   4   9
ATOM      9  C   UNL     1       4.376   5.225  18.463  0.00  0.00    +0.000 A 
ATOM     10  C   UNL     1       3.823   4.578  19.577  0.00  0.00    +0.000 A 
ATOM     11  C   UNL     1       2.664   5.070  20.184  0.00  0.00    +0.000 A 
ATOM     12  C   UNL     1       2.043   6.218  19.692  0.00  0.00    +0.000 A 
ATOM     13  C   UNL     1       2.584   6.882  18.599  0.00  0.00    +0.000 A 
ATOM     14  C   UNL     1       3.739   6.391  17.993  0.00  0.00    +0.000 A 
ENDBRANCH   4   9
BRANCH   3  15
ATOM     15  C   UNL     1       5.506   5.663  15.400  0.00  0.00    +0.000 C 
ATOM     16  O   UNL     1       5.120   6.708  14.899  0.00  0.00    +0.000 OA
BRANCH  15  17
ATOM     17  O   UNL     1       5.323   4.421  14.884  0.00  0.00    +0.000 OA
BRANCH  17  18
ATOM     18  C   UNL     1       6.394   3.928  14.067  0.00  0.00    +0.000 C 
ATOM     19  C   UNL     1       5.817   3.529  12.721  0.00  0.00    +0.000 C 
ENDBRANCH  17  18
ENDBRANCH  15  17
ENDBRANCH   3  15
BRANCH   1  20
ATOM     20  C   UNL     1       8.394   7.650  18.751  0.00  0.00    +0.000 C 
BRANCH  20  21
ATOM     21  C   UNL     1       8.186   8.873  17.856  0.00  0.00    +0.000 C 
BRANCH  21  23
ATOM     22  C   UNL     1       8.673  11.322  17.887  0.00  0.00    +0.000 C 
ATOM     23  C   UNL     1       8.724  10.131  18.499  0.00  0.00    +0.000 C 
BRANCH  23  24
ATOM     24  O   UNL     1       9.372  10.051  19.721  0.00  0.00    +0.000 OA
ATOM     25  C   UNL     1      10.238  11.139  20.028  0.00  0.00    +0.000 C 
ENDBRANCH  23  24
ENDBRANCH  21  23
ENDBRANCH  20  21
ENDBRANCH   1  20
TORSDOF 8
ENDMDL
MODEL 6
REMARK VINA RESULT:      -7.4      1.795      2.574
REMARK  Name = 
REMARK  10 active torsions:
REMARK  status: ('A' for Active; 'I' for Inactive)
REMARK    1  A    between atoms: C_2  and  C_3
REMARK    2  A    between atoms: C_2  and  O_23
REMARK    3  A    between atoms: C_3  and  C_4
REMARK    4  A    between atoms: C_4  and  N_5
REMARK    5  A    between atoms: C_7  and  C_8
REMARK    6  A    between atoms: C_8  and  O_10
REMARK    7  A    between atoms: O_10  and  C_11
REMARK    8  A    between atoms: C_11  and  C_12
REMARK    9  A    between atoms: C_13  and  C_14
REMARK   10  A    between atoms: O_23  and  C_24
REMARK                            x       y       z     vdW  Elec       q    Type
REMARK                         _______ _______ _______ _____ _____    ______ ____
ROOT
ATOM      1  N   UNL     1       5.562   4.419  15.781  0.00  0.00    +0.000 N 
ATOM      2  C   UNL     1       4.752   3.485  16.413  0.00  0.00    +0.000 C 
ATOM      3  C   UNL     1       4.490   3.605  17.724  0.00  0.00    +0.000 C 
ATOM      4  C   UNL     1       5.008   4.786  18.486  0.00  0.00    +0.000 C 
ATOM      5  N   UNL     1       6.222   5.264  17.853  0.00  0.00    +0.000 N 
ATOM      6  C   UNL     1       6.353   5.314  16.493  0.00  0.00    +0.000 C 
ATOM      7  O   UNL     1       7.127   6.118  15.983  0.00  0.00    +0.000 OA
ATOM      8  H   UNL     1       6.739   5.992  18.323  0.00  0.00    +0.000 HD
ENDROOT
BRANCH   4   9
ATOM      9  C   UNL     1       3.982   5.917  18.589  0.00  0.00    +0.000 A 
ATOM     10  C   UNL     1       3.888   6.886  17.579  0.00  0.00    +0.000 A 
ATOM     11  C   UNL     1       2.974   7.938  17.685  0.00  0.00    +0.000 A 
ATOM     12  C   UNL     1       2.135   8.036  18.795  0.00  0.00    +0.000 A 
ATOM     13  C   UNL     1       2.202   7.078  19.798  0.00  0.00    +0.000 A 
ATOM     14  C   UNL     1       3.114   6.030  19.694  0.00  0.00    +0.000 A 
ENDBRANCH   4   9
BRANCH   3  15
ATOM     15  C   UNL     1       3.540   2.663  18.347  0.00  0.00    +0.000 C 
ATOM     16  O   UNL     1       3.871   1.740  19.076  0.00  0.00    +0.000 OA
BRANCH  15  17
ATOM     17  O   UNL     1       2.278   2.923  17.922  0.00  0.00    +0.000 OA
BRANCH  17  18
ATOM     18  C   UNL     1       1.231   2.298  18.678  0.00  0.00    +0.000 C 
ATOM     19  C   UNL     1       0.844   3.229  19.812  0.00  0.00    +0.000 C 
ENDBRANCH  17  18
ENDBRANCH  15  17
ENDBRANCH   3  15
BRANCH   1  20
ATOM     20  C   UNL     1       5.462   4.584  14.330  0.00  0.00    +0.000 C 
BRANCH  20  21
ATOM     21  C   UNL     1       6.570   3.878  13.548  0.00  0.00    +0.000 C 
BRANCH  21  23
ATOM     22  C   UNL     1       4.757   3.354  11.912  0.00  0.00    +0.000 C 
ATOM     23  C   UNL     1       6.042   3.253  12.276  0.00  0.00    +0.000 C 
BRANCH  23  24
ATOM     24  O   UNL     1       6.883   2.473  11.498  0.00  0.00    +0.000 OA
ATOM     25  C   UNL     1       6.363   1.203  11.118  0.00  0.00    +0.000 C 
ENDBRANCH  23  24
ENDBRANCH  21  23
ENDBRANCH  20  21
ENDBRANCH   1  20
TORSDOF 8
ENDMDL
MODEL 7
REMARK VINA RESULT:      -7.4      3.096      5.644
REMARK  Name = 
REMARK  10 active torsions:
REMARK  status: ('A' for Active; 'I' for Inactive)
REMARK    1  A    between atoms: C_2  and  C_3
REMARK    2  A    between atoms: C_2  and  O_23
REMARK    3  A    between atoms: C_3  and  C_4
REMARK    4  A    between atoms: C_4  and  N_5
REMARK    5  A    between atoms: C_7  and  C_8
REMARK    6  A    between atoms: C_8  and  O_10
REMARK    7  A    between atoms: O_10  and  C_11
REMARK    8  A    between atoms: C_11  and  C_12
REMARK    9  A    between atoms: C_13  and  C_14
REMARK   10  A    between atoms: O_23  and  C_24
REMARK                            x       y       z     vdW  Elec       q    Type
REMARK                         _______ _______ _______ _____ _____    ______ ____
ROOT
ATOM      1  N   UNL     1       7.659   6.278  18.101  0.00  0.00    +0.000 N 
ATOM      2  C   UNL     1       7.283   6.154  16.771  0.00  0.00    +0.000 C 
ATOM      3  C   UNL     1       6.341   5.264  16.421  0.00  0.00    +0.000 C 
ATOM      4  C   UNL     1       5.643   4.461  17.476  0.00  0.00    +0.000 C 
ATOM      5  N   UNL     1       6.525   4.305  18.616  0.00  0.00    +0.000 N 
ATOM      6  C   UNL     1       7.318   5.328  19.057  0.00  0.00    +0.000 C 
ATOM      7  O   UNL     1       7.673   5.362  20.231  0.00  0.00    +0.000 OA
ATOM      8  H   UNL     1       6.224   3.694  19.361  0.00  0.00    +0.000 HD
ENDROOT
BRANCH   4   9
ATOM      9  C   UNL     1       4.316   5.087  17.913  0.00  0.00    +0.000 A 
ATOM     10  C   UNL     1       3.304   4.292  18.469  0.00  0.00    +0.000 A 
ATOM     11  C   UNL     1       2.080   4.855  18.842  0.00  0.00    +0.000 A 
ATOM     12  C   UNL     1       1.850   6.220  18.671  0.00  0.00    +0.000 A 
ATOM     13  C   UNL     1       2.845   7.027  18.136  0.00  0.00    +0.000 A 
ATOM     14  C   UNL     1       4.065   6.466  17.764  0.00  0.00    +0.000 A 
ENDBRANCH   4   9
BRANCH   3  15
ATOM     15  C   UNL     1       5.882   5.229  15.019  0.00  0.00    +0.000 C 
ATOM     16  O   UNL     1       5.365   6.175  14.446  0.00  0.00    +0.000 OA
BRANCH  15  17
ATOM     17  O   UNL     1       6.042   3.982  14.507  0.00  0.00    +0.000 OA
BRANCH  17  18
ATOM     18  C   UNL     1       6.571   3.926  13.174  0.00  0.00    +0.000 C 
ATOM     19  C   UNL     1       5.531   3.279  12.279  0.00  0.00    +0.000 C 
ENDBRANCH  17  18
ENDBRANCH  15  17
ENDBRANCH   3  15
BRANCH   1  20
ATOM     20  C   UNL     1       8.288   7.521  18.552  0.00  0.00    +0.000 C 
BRANCH  20  21
ATOM     21  C   UNL     1       7.881   8.751  17.741  0.00  0.00    +0.000 C 
BRANCH  21  23
ATOM     22  C   UNL     1       9.300  10.012  19.363  0.00  0.00    +0.000 C 
ATOM     23  C   UNL     1       8.574  10.000  18.238  0.00  0.00    +0.000 C 
BRANCH  23  24
ATOM     24  O   UNL     1       8.388  11.198  17.566  0.00  0.00    +0.000 OA
ATOM     25  C   UNL     1       8.995  12.338  18.167  0.00  0.00    +0.000 C 
ENDBRANCH  23  24
ENDBRANCH  21  23
ENDBRANCH  20  21
ENDBRANCH   1  20
TORSDOF 8
ENDMDL
MODEL 8
REMARK VINA RESULT:      -7.4      2.538      6.501
REMARK  Name = 
REMARK  10 active torsions:
REMARK  status: ('A' for Active; 'I' for Inactive)
REMARK    1  A    between atoms: C_2  and  C_3
REMARK    2  A    between atoms: C_2  and  O_23
REMARK    3  A    between atoms: C_3  and  C_4
REMARK    4  A    between atoms: C_4  and  N_5
REMARK    5  A    between atoms: C_7  and  C_8
REMARK    6  A    between atoms: C_8  and  O_10
REMARK    7  A    between atoms: O_10  and  C_11
REMARK    8  A    between atoms: C_11  and  C_12
REMARK    9  A    between atoms: C_13  and  C_14
REMARK   10  A    between atoms: O_23  and  C_24
REMARK                            x       y       z     vdW  Elec       q    Type
REMARK                         _______ _______ _______ _____ _____    ______ ____
ROOT
ATOM      1  N   UNL     1       4.290   4.016  17.460  0.00  0.00    +0.000 N 
ATOM      2  C   UNL     1       5.136   3.807  16.381  0.00  0.00    +0.000 C 
ATOM      3  C   UNL     1       5.681   4.856  15.744  0.00  0.00    +0.000 C 
ATOM      4  C   UNL     1       5.436   6.246  16.247  0.00  0.00    +0.000 C 
ATOM      5  N   UNL     1       4.158   6.284  16.932  0.00  0.00    +0.000 N 
ATOM      6  C   UNL     1       3.745   5.263  17.743  0.00  0.00    +0.000 C 
ATOM      7  O   UNL     1       2.948   5.488  18.649  0.00  0.00    +0.000 OA
ATOM      8  H   UNL     1       3.815   7.185  17.231  0.00  0.00    +0.000 HD
ENDROOT
BRANCH   4   9
ATOM      9  C   UNL     1       6.550   6.743  17.173  0.00  0.00    +0.000 A 
ATOM     10  C   UNL     1       7.112   5.888  18.131  0.00  0.00    +0.000 A 
ATOM     11  C   UNL     1       8.107   6.347  18.998  0.00  0.00    +0.000 A 
ATOM     12  C   UNL     1       8.562   7.663  18.918  0.00  0.00    +0.000 A 
ATOM     13  C   UNL     1       8.028   8.521  17.965  0.00  0.00    +0.000 A 
ATOM     14  C   UNL     1       7.035   8.064  17.101  0.00  0.00    +0.000 A 
ENDBRANCH   4   9
BRANCH   3  15
ATOM     15  C   UNL     1       6.661   4.604  14.671  0.00  0.00    +0.000 C 
ATOM     16  O   UNL     1       7.580   5.361  14.394  0.00  0.00    +0.000 OA
BRANCH  15  17
ATOM     17  O   UNL     1       6.338   3.471  13.998  0.00  0.00    +0.000 OA
BRANCH  17  18
ATOM     18  C   UNL     1       5.823   3.665  12.673  0.00  0.00    +0.000 C 
ATOM     19  C   UNL     1       6.457   2.629  11.763  0.00  0.00    +0.000 C 
ENDBRANCH  17  18
ENDBRANCH  15  17
ENDBRANCH   3  15
BRANCH   1  20
ATOM     20  C   UNL     1       4.091   2.937  18.430  0.00  0.00    +0.000 C 
BRANCH  20  21
ATOM     21  C   UNL     1       2.873   2.060  18.141  0.00  0.00    +0.000 C 
BRANCH  21  23
ATOM     22  C   UNL     1       0.526   2.570  18.824  0.00  0.00    +0.000 C 
ATOM     23  C   UNL     1       1.783   2.263  19.169  0.00  0.00    +0.000 C 
BRANCH  23  24
ATOM     24  O   UNL     1       2.099   2.221  20.518  0.00  0.00    +0.000 OA
ATOM     25  C   UNL     1       1.722   3.369  21.272  0.00  0.00    +0.000 C 
ENDBRANCH  23  24
ENDBRANCH  21  23
ENDBRANCH  20  21
ENDBRANCH   1  20
TORSDOF 8
ENDMDL
MODEL 9
REMARK VINA RESULT:      -7.4      1.829      2.587
REMARK  Name = 
REMARK  10 active torsions:
REMARK  status: ('A' for Active; 'I' for Inactive)
REMARK    1  A    between atoms: C_2  and  C_3
REMARK    2  A    between atoms: C_2  and  O_23
REMARK    3  A    between atoms: C_3  and  C_4
REMARK    4  A    between atoms: C_4  and  N_5
REMARK    5  A    between atoms: C_7  and  C_8
REMARK    6  A    between atoms: C_8  and  O_10
REMARK    7  A    between atoms: O_10  and  C_11
REMARK    8  A    between atoms: C_11  and  C_12
REMARK    9  A    between atoms: C_13  and  C_14
REMARK   10  A    between atoms: O_23  and  C_24
REMARK                            x       y       z     vdW  Elec       q    Type
REMARK                         _______ _______ _______ _____ _____    ______ ____
ROOT
ATOM      1  N   UNL     1       5.716   4.435  15.719  0.00  0.00    +0.000 N 
ATOM      2  C   UNL     1       4.920   3.483  16.340  0.00  0.00    +0.000 C 
ATOM      3  C   UNL     1       4.666   3.577  17.656  0.00  0.00    +0.000 C 
ATOM      4  C   UNL     1       5.179   4.749  18.435  0.00  0.00    +0.000 C 
ATOM      5  N   UNL     1       6.383   5.250  17.801  0.00  0.00    +0.000 N 
ATOM      6  C   UNL     1       6.503   5.325  16.441  0.00  0.00    +0.000 C 
ATOM      7  O   UNL     1       7.266   6.146  15.940  0.00  0.00    +0.000 OA
ATOM      8  H   UNL     1       6.897   5.975  18.280  0.00  0.00    +0.000 HD
ENDROOT
BRANCH   4   9
ATOM      9  C   UNL     1       4.143   5.869  18.565  0.00  0.00    +0.000 A 
ATOM     10  C   UNL     1       3.278   5.912  19.669  0.00  0.00    +0.000 A 
ATOM     11  C   UNL     1       2.311   6.915  19.776  0.00  0.00    +0.000 A 
ATOM     12  C   UNL     1       2.196   7.894  18.790  0.00  0.00    +0.000 A 
ATOM     13  C   UNL     1       3.053   7.878  17.697  0.00  0.00    +0.000 A 
ATOM     14  C   UNL     1       4.017   6.877  17.589  0.00  0.00    +0.000 A 
ENDBRANCH   4   9
BRANCH   3  15
ATOM     15  C   UNL     1       3.730   2.615  18.268  0.00  0.00    +0.000 C 
ATOM     16  O   UNL     1       3.985   1.952  19.263  0.00  0.00    +0.000 OA
BRANCH  15  17
ATOM     17  O   UNL     1       2.602   2.520  17.521  0.00  0.00    +0.000 OA
BRANCH  17  18
ATOM     18  C   UNL     1       1.529   3.390  17.908  0.00  0.00    +0.000 C 
ATOM     19  C   UNL     1       0.700   2.679  18.962  0.00  0.00    +0.000 C 
ENDBRANCH  17  18
ENDBRANCH  15  17
ENDBRANCH   3  15
BRANCH   1  20
ATOM     20  C   UNL     1       5.603   4.626  14.272  0.00  0.00    +0.000 C 
BRANCH  20  21
ATOM     21  C   UNL     1       6.663   3.877  13.464  0.00  0.00    +0.000 C 
BRANCH  21  23
ATOM     22  C   UNL     1       4.790   3.398  11.884  0.00  0.00    +0.000 C 
ATOM     23  C   UNL     1       6.069   3.218  12.240  0.00  0.00    +0.000 C 
BRANCH  23  24
ATOM     24  O   UNL     1       6.834   2.328  11.503  0.00  0.00    +0.000 OA
ATOM     25  C   UNL     1       6.184   1.112  11.146  0.00  0.00    +0.000 C 
ENDBRANCH  23  24
ENDBRANCH  21  23
ENDBRANCH  20  21
ENDBRANCH   1  20
TORSDOF 8
ENDMDL
