MODEL 1
REMARK VINA RESULT:      -7.3      0.000      0.000
REMARK  Name = 
REMARK  6 active torsions:
REMARK  status: ('A' for Active; 'I' for Inactive)
REMARK    1  A    between atoms: C_1  and  C_2
REMARK    2  A    between atoms: C_5  and  C_6
REMARK    3  A    between atoms: C_7  and  C_8
REMARK    4  A    between atoms: C_10  and  N_11
REMARK    5  A    between atoms: N_11  and  C_12
REMARK    6  A    between atoms: C_12  and  C_13
REMARK                            x       y       z     vdW  Elec       q    Type
REMARK                         _______ _______ _______ _____ _____    ______ ____
ROOT
ATOM      1  C   UNL     1       4.571   6.559  17.839  0.00  0.00    +0.000 A 
ATOM      2  C   UNL     1       4.258   5.933  19.023  0.00  0.00    +0.000 A 
ATOM      3  C   UNL     1       3.060   6.262  19.624  0.00  0.00    +0.000 A 
ATOM      4  N   UNL     1       2.256   7.204  19.116  0.00  0.00    +0.000 NA
ATOM      5  C   UNL     1       2.683   7.811  17.994  0.00  0.00    +0.000 A 
ATOM      6  N   UNL     1       3.803   7.531  17.316  0.00  0.00    +0.000 NA
ENDROOT
BRANCH   1  13
ATOM      7  C   UNL     1       5.003   3.963  15.787  0.00  0.00    +0.000 C 
ATOM      8  C   UNL     1       5.943   5.034  16.198  0.00  0.00    +0.000 A 
ATOM      9  N   UNL     1       7.186   5.039  15.698  0.00  0.00    +0.000 NA
ATOM     10  O   UNL     1       7.794   6.166  16.211  0.00  0.00    +0.000 OA
ATOM     11  C   UNL     1       6.926   6.831  17.018  0.00  0.00    +0.000 A 
ATOM     12  C   UNL     1       7.440   8.066  17.642  0.00  0.00    +0.000 C 
ATOM     13  C   UNL     1       5.731   6.145  17.069  0.00  0.00    +0.000 A 
ENDBRANCH   1  13
BRANCH   3  14
ATOM     14  N   UNL     1       2.681   5.491  20.723  0.00  0.00    +0.000 N 
ATOM     15  H   UNL     1       2.524   6.055  21.553  0.00  0.00    +0.000 HD
BRANCH  14  16
ATOM     16  C   UNL     1       1.665   4.473  20.530  0.00  0.00    +0.000 C 
BRANCH  16  17
ATOM     17  C   UNL     1       2.159   3.414  19.579  0.00  0.00    +0.000 A 
ATOM     18  C   UNL     1       1.687   3.131  18.310  0.00  0.00    +0.000 A 
ATOM     19  C   UNL     1       2.423   2.092  17.676  0.00  0.00    +0.000 A 
ATOM     20  C   UNL     1       3.436   1.617  18.476  0.00  0.00    +0.000 A 
ATOM     21  S   UNL     1       3.501   2.430  19.981  0.00  0.00    +0.000 S 
ENDBRANCH  16  17
ENDBRANCH  14  16
ENDBRANCH   3  14
TORSDOF 4
ENDMDL
MODEL 2
REMARK VINA RESULT:      -7.2      1.045      1.067
REMARK  Name = 
REMARK  6 active torsions:
REMARK  status: ('A' for Active; 'I' for Inactive)
REMARK    1  A    between atoms: C_1  and  C_2
REMARK    2  A    between atoms: C_5  and  C_6
REMARK    3  A    between atoms: C_7  and  C_8
REMARK    4  A    between atoms: C_10  and  N_11
REMARK    5  A    between atoms: N_11  and  C_12
REMARK    6  A    between atoms: C_12  and  C_13
REMARK                            x       y       z     vdW  Elec       q    Type
REMARK                         _______ _______ _______ _____ _____    ______ ____
ROOT
ATOM      1  C   UNL     1       4.934   5.996  17.991  0.00  0.00    +0.000 A 
ATOM      2  C   UNL     1       4.354   5.604  19.175  0.00  0.00    +0.000 A 
ATOM      3  C   UNL     1       3.160   6.196  19.532  0.00  0.00    +0.000 A 
ATOM      4  N   UNL     1       2.610   7.165  18.792  0.00  0.00    +0.000 NA
ATOM      5  C   UNL     1       3.287   7.531  17.688  0.00  0.00    +0.000 A 
ATOM      6  N   UNL     1       4.425   6.989  17.239  0.00  0.00    +0.000 NA
ENDROOT
BRANCH   1  13
ATOM      7  C   UNL     1       5.395   4.369  15.115  0.00  0.00    +0.000 C 
ATOM      8  C   UNL     1       6.317   4.591  16.256  0.00  0.00    +0.000 A 
ATOM      9  N   UNL     1       7.561   4.100  16.195  0.00  0.00    +0.000 NA
ATOM     10  O   UNL     1       8.185   4.507  17.356  0.00  0.00    +0.000 OA
ATOM     11  C   UNL     1       7.320   5.233  18.113  0.00  0.00    +0.000 A 
ATOM     12  C   UNL     1       7.851   5.741  19.393  0.00  0.00    +0.000 C 
ATOM     13  C   UNL     1       6.100   5.304  17.474  0.00  0.00    +0.000 A 
ENDBRANCH   1  13
BRANCH   3  14
ATOM     14  N   UNL     1       2.504   5.659  20.640  0.00  0.00    +0.000 N 
ATOM     15  H   UNL     1       2.235   6.371  21.310  0.00  0.00    +0.000 HD
BRANCH  14  16
ATOM     16  C   UNL     1       1.461   4.676  20.410  0.00  0.00    +0.000 C 
BRANCH  16  17
ATOM     17  C   UNL     1       1.970   3.570  19.523  0.00  0.00    +0.000 A 
ATOM     18  C   UNL     1       1.667   3.347  18.192  0.00  0.00    +0.000 A 
ATOM     19  C   UNL     1       2.368   2.232  17.654  0.00  0.00    +0.000 A 
ATOM     20  C   UNL     1       3.187   1.641  18.587  0.00  0.00    +0.000 A 
ATOM     21  S   UNL     1       3.116   2.436  20.101  0.00  0.00    +0.000 S 
ENDBRANCH  16  17
ENDBRANCH  14  16
ENDBRANCH   3  14
TORSDOF 4
ENDMDL
MODEL 3
REMARK VINA RESULT:      -7.1      1.145      1.909
REMARK  Name = 
REMARK  6 active torsions:
REMARK  status: ('A' for Active; 'I' for Inactive)
REMARK    1  A    between atoms: C_1  and  C_2
REMARK    2  A    between atoms: C_5  and  C_6
REMARK    3  A    between atoms: C_7  and  C_8
REMARK    4  A    between atoms: C_10  and  N_11
REMARK    5  A    between atoms: N_11  and  C_12
REMARK    6  A    between atoms: C_12  and  C_13
REMARK                            x       y       z     vdW  Elec       q    Type
REMARK                         _______ _______ _______ _____ _____    ______ ____
ROOT
ATOM      1  C   UNL     1       4.951   6.012  18.035  0.00  0.00    +0.000 A 
ATOM      2  C   UNL     1       4.342   5.635  19.210  0.00  0.00    +0.000 A 
ATOM      3  C   UNL     1       3.128   6.214  19.518  0.00  0.00    +0.000 A 
ATOM      4  N   UNL     1       2.585   7.159  18.742  0.00  0.00    +0.000 NA
ATOM      5  C   UNL     1       3.290   7.513  17.651  0.00  0.00    +0.000 A 
ATOM      6  N   UNL     1       4.450   6.981  17.248  0.00  0.00    +0.000 NA
ENDROOT
BRANCH   1  13
ATOM      7  C   UNL     1       7.929   5.607  19.483  0.00  0.00    +0.000 C 
ATOM      8  C   UNL     1       7.430   5.154  18.161  0.00  0.00    +0.000 A 
ATOM      9  N   UNL     1       8.242   4.450  17.363  0.00  0.00    +0.000 NA
ATOM     10  O   UNL     1       7.492   4.129  16.251  0.00  0.00    +0.000 OA
ATOM     11  C   UNL     1       6.240   4.642  16.376  0.00  0.00    +0.000 A 
ATOM     12  C   UNL     1       5.317   4.377  15.255  0.00  0.00    +0.000 C 
ATOM     13  C   UNL     1       6.143   5.329  17.568  0.00  0.00    +0.000 A 
ENDBRANCH   1  13
BRANCH   3  14
ATOM     14  N   UNL     1       2.448   5.689  20.617  0.00  0.00    +0.000 N 
ATOM     15  H   UNL     1       2.162   6.409  21.272  0.00  0.00    +0.000 HD
BRANCH  14  16
ATOM     16  C   UNL     1       1.412   4.701  20.375  0.00  0.00    +0.000 C 
BRANCH  16  17
ATOM     17  C   UNL     1       1.943   3.588  19.509  0.00  0.00    +0.000 A 
ATOM     18  C   UNL     1       1.664   3.350  18.175  0.00  0.00    +0.000 A 
ATOM     19  C   UNL     1       2.380   2.234  17.661  0.00  0.00    +0.000 A 
ATOM     20  C   UNL     1       3.185   1.656  18.614  0.00  0.00    +0.000 A 
ATOM     21  S   UNL     1       3.084   2.467  20.118  0.00  0.00    +0.000 S 
ENDBRANCH  16  17
ENDBRANCH  14  16
ENDBRANCH   3  14
TORSDOF 4
ENDMDL
MODEL 4
REMARK VINA RESULT:      -7.0      0.456      1.820
REMARK  Name = 
REMARK  6 active torsions:
REMARK  status: ('A' for Active; 'I' for Inactive)
REMARK    1  A    between atoms: C_1  and  C_2
REMARK    2  A    between atoms: C_5  and  C_6
REMARK    3  A    between atoms: C_7  and  C_8
REMARK    4  A    between atoms: C_10  and  N_11
REMARK    5  A    between atoms: N_11  and  C_12
REMARK    6  A    between atoms: C_12  and  C_13
REMARK                            x       y       z     vdW  Elec       q    Type
REMARK                         _______ _______ _______ _____ _____    ______ ____
ROOT
ATOM      1  C   UNL     1       4.485   6.649  17.898  0.00  0.00    +0.000 A 
ATOM      2  C   UNL     1       4.192   5.996  19.073  0.00  0.00    +0.000 A 
ATOM      3  C   UNL     1       2.975   6.262  19.668  0.00  0.00    +0.000 A 
ATOM      4  N   UNL     1       2.132   7.169  19.163  0.00  0.00    +0.000 NA
ATOM      5  C   UNL     1       2.538   7.809  18.050  0.00  0.00    +0.000 A 
ATOM      6  N   UNL     1       3.675   7.590  17.380  0.00  0.00    +0.000 NA
ENDROOT
BRANCH   1  13
ATOM      7  C   UNL     1       7.456   8.152  17.688  0.00  0.00    +0.000 C 
ATOM      8  C   UNL     1       6.943   6.932  17.017  0.00  0.00    +0.000 A 
ATOM      9  N   UNL     1       7.746   6.258  16.185  0.00  0.00    +0.000 NA
ATOM     10  O   UNL     1       7.022   5.161  15.767  0.00  0.00    +0.000 OA
ATOM     11  C   UNL     1       5.789   5.179  16.339  0.00  0.00    +0.000 A 
ATOM     12  C   UNL     1       4.896   4.059  15.985  0.00  0.00    +0.000 C 
ATOM     13  C   UNL     1       5.669   6.299  17.134  0.00  0.00    +0.000 A 
ENDBRANCH   1  13
BRANCH   3  14
ATOM     14  N   UNL     1       2.625   5.462  20.755  0.00  0.00    +0.000 N 
ATOM     15  H   UNL     1       2.476   6.004  21.600  0.00  0.00    +0.000 HD
BRANCH  14  16
ATOM     16  C   UNL     1       1.618   4.436  20.557  0.00  0.00    +0.000 C 
BRANCH  16  17
ATOM     17  C   UNL     1       2.125   3.382  19.607  0.00  0.00    +0.000 A 
ATOM     18  C   UNL     1       1.630   3.065  18.354  0.00  0.00    +0.000 A 
ATOM     19  C   UNL     1       2.386   2.044  17.714  0.00  0.00    +0.000 A 
ATOM     20  C   UNL     1       3.436   1.617  18.492  0.00  0.00    +0.000 A 
ATOM     21  S   UNL     1       3.512   2.451  19.984  0.00  0.00    +0.000 S 
ENDBRANCH  16  17
ENDBRANCH  14  16
ENDBRANCH   3  14
TORSDOF 4
ENDMDL
MODEL 5
REMARK VINA RESULT:      -6.8      2.743      4.290
REMARK  Name = 
REMARK  6 active torsions:
REMARK  status: ('A' for Active; 'I' for Inactive)
REMARK    1  A    between atoms: C_1  and  C_2
REMARK    2  A    between atoms: C_5  and  C_6
REMARK    3  A    between atoms: C_7  and  C_8
REMARK    4  A    between atoms: C_10  and  N_11
REMARK    5  A    between atoms: N_11  and  C_12
REMARK    6  A    between atoms: C_12  and  C_13
REMARK                            x       y       z     vdW  Elec       q    Type
REMARK                         _______ _______ _______ _____ _____    ______ ____
ROOT
ATOM      1  C   UNL     1       4.734   4.561  16.939  0.00  0.00    +0.000 A 
ATOM      2  C   UNL     1       3.849   5.480  17.454  0.00  0.00    +0.000 A 
ATOM      3  C   UNL     1       2.888   5.021  18.332  0.00  0.00    +0.000 A 
ATOM      4  N   UNL     1       2.770   3.722  18.626  0.00  0.00    +0.000 NA
ATOM      5  C   UNL     1       3.636   2.891  18.016  0.00  0.00    +0.000 A 
ATOM      6  N   UNL     1       4.626   3.244  17.188  0.00  0.00    +0.000 NA
ENDROOT
BRANCH   1  13
ATOM      7  C   UNL     1       5.508   3.949  13.751  0.00  0.00    +0.000 C 
ATOM      8  C   UNL     1       6.227   4.735  14.785  0.00  0.00    +0.000 A 
ATOM      9  N   UNL     1       7.377   5.340  14.461  0.00  0.00    +0.000 NA
ATOM     10  O   UNL     1       7.772   6.026  15.591  0.00  0.00    +0.000 OA
ATOM     11  C   UNL     1       6.870   5.830  16.588  0.00  0.00    +0.000 A 
ATOM     12  C   UNL     1       7.161   6.508  17.866  0.00  0.00    +0.000 C 
ATOM     13  C   UNL     1       5.868   4.994  16.142  0.00  0.00    +0.000 A 
ENDBRANCH   1  13
BRANCH   3  14
ATOM     14  N   UNL     1       2.119   5.991  18.976  0.00  0.00    +0.000 N 
ATOM     15  H   UNL     1       1.896   5.732  19.932  0.00  0.00    +0.000 HD
BRANCH  14  16
ATOM     16  C   UNL     1       2.515   7.380  18.845  0.00  0.00    +0.000 C 
BRANCH  16  17
ATOM     17  C   UNL     1       1.646   8.257  19.709  0.00  0.00    +0.000 A 
ATOM     18  C   UNL     1       1.292   8.055  21.031  0.00  0.00    +0.000 A 
ATOM     19  C   UNL     1       0.493   9.112  21.547  0.00  0.00    +0.000 A 
ATOM     20  C   UNL     1       0.266  10.091  20.608  0.00  0.00    +0.000 A 
ATOM     21  S   UNL     1       1.022   9.736  19.114  0.00  0.00    +0.000 S 
ENDBRANCH  16  17
ENDBRANCH  14  16
ENDBRANCH   3  14
TORSDOF 4
ENDMDL
MODEL 6
REMARK VINA RESULT:      -6.8      1.600      2.047
REMARK  Name = 
REMARK  6 active torsions:
REMARK  status: ('A' for Active; 'I' for Inactive)
REMARK    1  A    between atoms: C_1  and  C_2
REMARK    2  A    between atoms: C_5  and  C_6
REMARK    3  A    between atoms: C_7  and  C_8
REMARK    4  A    between atoms: C_10  and  N_11
REMARK    5  A    between atoms: N_11  and  C_12
REMARK    6  A    between atoms: C_12  and  C_13
REMARK                            x       y       z     vdW  Elec       q    Type
REMARK                         _______ _______ _______ _____ _____    ______ ____
ROOT
ATOM      1  C   UNL     1       4.705   5.842  17.331  0.00  0.00    +0.000 A 
ATOM      2  C   UNL     1       3.624   5.016  17.534  0.00  0.00    +0.000 A 
ATOM      3  C   UNL     1       2.403   5.608  17.785  0.00  0.00    +0.000 A 
ATOM      4  N   UNL     1       2.277   6.935  17.894  0.00  0.00    +0.000 NA
ATOM      5  C   UNL     1       3.404   7.656  17.751  0.00  0.00    +0.000 A 
ATOM      6  N   UNL     1       4.621   7.178  17.464  0.00  0.00    +0.000 NA
ENDROOT
BRANCH   1  13
ATOM      7  C   UNL     1       5.658   4.603  14.383  0.00  0.00    +0.000 C 
ATOM      8  C   UNL     1       6.407   4.751  15.655  0.00  0.00    +0.000 A 
ATOM      9  N   UNL     1       7.686   4.357  15.708  0.00  0.00    +0.000 NA
ATOM     10  O   UNL     1       8.123   4.666  16.979  0.00  0.00    +0.000 OA
ATOM     11  C   UNL     1       7.113   5.236  17.688  0.00  0.00    +0.000 A 
ATOM     12  C   UNL     1       7.435   5.624  19.075  0.00  0.00    +0.000 C 
ATOM     13  C   UNL     1       5.981   5.298  16.903  0.00  0.00    +0.000 A 
ENDBRANCH   1  13
BRANCH   3  14
ATOM     14  N   UNL     1       1.294   4.762  17.811  0.00  0.00    +0.000 N 
ATOM     15  H   UNL     1       0.646   4.953  17.053  0.00  0.00    +0.000 HD
BRANCH  14  16
ATOM     16  C   UNL     1       1.517   3.343  18.019  0.00  0.00    +0.000 C 
BRANCH  16  17
ATOM     17  C   UNL     1       1.785   3.064  19.476  0.00  0.00    +0.000 A 
ATOM     18  C   UNL     1       0.891   3.137  20.529  0.00  0.00    +0.000 A 
ATOM     19  C   UNL     1       1.478   2.759  21.768  0.00  0.00    +0.000 A 
ATOM     20  C   UNL     1       2.799   2.405  21.623  0.00  0.00    +0.000 A 
ATOM     21  S   UNL     1       3.322   2.520  19.998  0.00  0.00    +0.000 S 
ENDBRANCH  16  17
ENDBRANCH  14  16
ENDBRANCH   3  14
TORSDOF 4
ENDMDL
MODEL 7
REMARK VINA RESULT:      -6.7      2.386      4.400
REMARK  Name = 
REMARK  6 active torsions:
REMARK  status: ('A' for Active; 'I' for Inactive)
REMARK    1  A    between atoms: C_1  and  C_2
REMARK    2  A    between atoms: C_5  and  C_6
REMARK    3  A    between atoms: C_7  and  C_8
REMARK    4  A    between atoms: C_10  and  N_11
REMARK    5  A    between atoms: N_11  and  C_12
REMARK    6  A    between atoms: C_12  and  C_13
REMARK                            x       y       z     vdW  Elec       q    Type
REMARK                         _______ _______ _______ _____ _____    ______ ____
ROOT
ATOM      1  C   UNL     1       4.666   4.386  17.006  0.00  0.00    +0.000 A 
ATOM      2  C   UNL     1       3.731   5.207  17.591  0.00  0.00    +0.000 A 
ATOM      3  C   UNL     1       2.746   4.615  18.355  0.00  0.00    +0.000 A 
ATOM      4  N   UNL     1       2.656   3.285  18.474  0.00  0.00    +0.000 NA
ATOM      5  C   UNL     1       3.574   2.563  17.806  0.00  0.00    +0.000 A 
ATOM      6  N   UNL     1       4.588   3.045  17.079  0.00  0.00    +0.000 NA
ENDROOT
BRANCH   1  13
ATOM      7  C   UNL     1       7.181   6.244  18.171  0.00  0.00    +0.000 C 
ATOM      8  C   UNL     1       6.899   5.754  16.799  0.00  0.00    +0.000 A 
ATOM      9  N   UNL     1       7.752   6.052  15.812  0.00  0.00    +0.000 NA
ATOM     10  O   UNL     1       7.262   5.423  14.687  0.00  0.00    +0.000 OA
ATOM     11  C   UNL     1       6.118   4.756  14.994  0.00  0.00    +0.000 A 
ATOM     12  C   UNL     1       5.475   4.028  13.882  0.00  0.00    +0.000 C 
ATOM     13  C   UNL     1       5.820   4.947  16.327  0.00  0.00    +0.000 A 
ENDBRANCH   1  13
BRANCH   3  14
ATOM     14  N   UNL     1       1.919   5.473  19.081  0.00  0.00    +0.000 N 
ATOM     15  H   UNL     1       1.225   4.970  19.624  0.00  0.00    +0.000 HD
BRANCH  14  16
ATOM     16  C   UNL     1       2.536   6.560  19.818  0.00  0.00    +0.000 C 
BRANCH  16  17
ATOM     17  C   UNL     1       1.987   7.884  19.355  0.00  0.00    +0.000 A 
ATOM     18  C   UNL     1       2.057   8.431  18.085  0.00  0.00    +0.000 A 
ATOM     19  C   UNL     1       1.388   9.682  17.995  0.00  0.00    +0.000 A 
ATOM     20  C   UNL     1       0.823  10.051  19.193  0.00  0.00    +0.000 A 
ATOM     21  S   UNL     1       1.093   8.886  20.417  0.00  0.00    +0.000 S 
ENDBRANCH  16  17
ENDBRANCH  14  16
ENDBRANCH   3  14
TORSDOF 4
ENDMDL
MODEL 8
REMARK VINA RESULT:      -6.7      2.961      4.544
REMARK  Name = 
REMARK  6 active torsions:
REMARK  status: ('A' for Active; 'I' for Inactive)
REMARK    1  A    between atoms: C_1  and  C_2
REMARK    2  A    between atoms: C_5  and  C_6
REMARK    3  A    between atoms: C_7  and  C_8
REMARK    4  A    between atoms: C_10  and  N_11
REMARK    5  A    between atoms: N_11  and  C_12
REMARK    6  A    between atoms: C_12  and  C_13
REMARK                            x       y       z     vdW  Elec       q    Type
REMARK                         _______ _______ _______ _____ _____    ______ ____
ROOT
ATOM      1  C   UNL     1       4.791   4.412  18.785  0.00  0.00    +0.000 A 
ATOM      2  C   UNL     1       3.864   5.381  19.093  0.00  0.00    +0.000 A 
ATOM      3  C   UNL     1       2.924   5.085  20.058  0.00  0.00    +0.000 A 
ATOM      4  N   UNL     1       2.865   3.878  20.633  0.00  0.00    +0.000 NA
ATOM      5  C   UNL     1       3.769   2.973  20.214  0.00  0.00    +0.000 A 
ATOM      6  N   UNL     1       4.742   3.179  19.320  0.00  0.00    +0.000 NA
ENDROOT
BRANCH   1  13
ATOM      7  C   UNL     1       5.073   4.126  15.473  0.00  0.00    +0.000 C 
ATOM      8  C   UNL     1       6.053   4.582  16.488  0.00  0.00    +0.000 A 
ATOM      9  N   UNL     1       7.271   4.972  16.090  0.00  0.00    +0.000 NA
ATOM     10  O   UNL     1       7.926   5.386  17.232  0.00  0.00    +0.000 OA
ATOM     11  C   UNL     1       7.111   5.240  18.309  0.00  0.00    +0.000 A 
ATOM     12  C   UNL     1       7.678   5.646  19.609  0.00  0.00    +0.000 C 
ATOM     13  C   UNL     1       5.905   4.708  17.902  0.00  0.00    +0.000 A 
ENDBRANCH   1  13
BRANCH   3  14
ATOM     14  N   UNL     1       2.110   6.137  20.480  0.00  0.00    +0.000 N 
ATOM     15  H   UNL     1       2.119   6.250  21.489  0.00  0.00    +0.000 HD
BRANCH  14  16
ATOM     16  C   UNL     1       2.197   7.399  19.769  0.00  0.00    +0.000 C 
BRANCH  16  17
ATOM     17  C   UNL     1       1.379   8.452  20.471  0.00  0.00    +0.000 A 
ATOM     18  C   UNL     1       1.145   8.574  21.829  0.00  0.00    +0.000 A 
ATOM     19  C   UNL     1       0.363   9.720  22.144  0.00  0.00    +0.000 A 
ATOM     20  C   UNL     1       0.029  10.439  21.021  0.00  0.00    +0.000 A 
ATOM     21  S   UNL     1       0.664   9.738  19.595  0.00  0.00    +0.000 S 
ENDBRANCH  16  17
ENDBRANCH  14  16
ENDBRANCH   3  14
TORSDOF 4
ENDMDL
MODEL 9
REMARK VINA RESULT:      -6.7      1.012      2.062
REMARK  Name = 
REMARK  6 active torsions:
REMARK  status: ('A' for Active; 'I' for Inactive)
REMARK    1  A    between atoms: C_1  and  C_2
REMARK    2  A    between atoms: C_5  and  C_6
REMARK    3  A    between atoms: C_7  and  C_8
REMARK    4  A    between atoms: C_10  and  N_11
REMARK    5  A    between atoms: N_11  and  C_12
REMARK    6  A    between atoms: C_12  and  C_13
REMARK                            x       y       z     vdW  Elec       q    Type
REMARK                         _______ _______ _______ _____ _____    ______ ____
ROOT
ATOM      1  C   UNL     1       4.382   6.400  18.039  0.00  0.00    +0.000 A 
ATOM      2  C   UNL     1       3.820   5.981  19.222  0.00  0.00    +0.000 A 
ATOM      3  C   UNL     1       2.666   6.611  19.641  0.00  0.00    +0.000 A 
ATOM      4  N   UNL     1       2.142   7.639  18.963  0.00  0.00    +0.000 NA
ATOM      5  C   UNL     1       2.804   8.023  17.856  0.00  0.00    +0.000 A 
ATOM      6  N   UNL     1       3.901   7.449  17.348  0.00  0.00    +0.000 NA
ENDROOT
BRANCH   1  13
ATOM      7  C   UNL     1       7.647   7.088  18.028  0.00  0.00    +0.000 C 
ATOM      8  C   UNL     1       6.898   5.958  17.425  0.00  0.00    +0.000 A 
ATOM      9  N   UNL     1       7.570   5.009  16.762  0.00  0.00    +0.000 NA
ATOM     10  O   UNL     1       6.627   4.081  16.373  0.00  0.00    +0.000 OA
ATOM     11  C   UNL     1       5.395   4.472  16.794  0.00  0.00    +0.000 A 
ATOM     12  C   UNL     1       4.278   3.571  16.450  0.00  0.00    +0.000 C 
ATOM     13  C   UNL     1       5.498   5.678  17.455  0.00  0.00    +0.000 A 
ENDBRANCH   1  13
BRANCH   3  14
ATOM     14  N   UNL     1       2.017   6.055  20.744  0.00  0.00    +0.000 N 
ATOM     15  H   UNL     1       1.007   6.117  20.668  0.00  0.00    +0.000 HD
BRANCH  14  16
ATOM     16  C   UNL     1       2.470   4.764  21.228  0.00  0.00    +0.000 C 
BRANCH  16  17
ATOM     17  C   UNL     1       2.033   3.670  20.289  0.00  0.00    +0.000 A 
ATOM     18  C   UNL     1       0.799   3.522  19.681  0.00  0.00    +0.000 A 
ATOM     19  C   UNL     1       0.752   2.394  18.815  0.00  0.00    +0.000 A 
ATOM     20  C   UNL     1       1.950   1.719  18.785  0.00  0.00    +0.000 A 
ATOM     21  S   UNL     1       3.126   2.451  19.789  0.00  0.00    +0.000 S 
ENDBRANCH  16  17
ENDBRANCH  14  16
ENDBRANCH   3  14
TORSDOF 4
ENDMDL
