MODEL 1
REMARK VINA RESULT:      -6.8      0.000      0.000
REMARK  Name = 
REMARK  10 active torsions:
REMARK  status: ('A' for Active; 'I' for Inactive)
REMARK    1  A    between atoms: C_1  and  C_2
REMARK    2  A    between atoms: C_2  and  O_3
REMARK    3  A    between atoms: O_3  and  C_4
REMARK    4  A    between atoms: C_7  and  C_8
REMARK    5  A    between atoms: C_8  and  O_9
REMARK    6  A    between atoms: N_14  and  C_15
REMARK    7  A    between atoms: C_15  and  C_16
REMARK    8  A    between atoms: C_15  and  C_17
REMARK    9  A    between atoms: C_20  and  O_21
REMARK   10  A    between atoms: O_21  and  C_22
REMARK                            x       y       z     vdW  Elec       q    Type
REMARK                         _______ _______ _______ _____ _____    ______ ____
ROOT
ATOM      1  C   UNL     1       5.543   4.560  17.691  0.00  0.00    +0.000 C 
ATOM      2  C   UNL     1       4.343   4.389  18.277  0.00  0.00    +0.000 C 
ATOM      3  C   UNL     1       3.691   5.363  19.172  0.00  0.00    +0.000 C 
ATOM      4  O   UNL     1       3.738   6.573  19.102  0.00  0.00    +0.000 OA
ATOM      5  C   UNL     1       2.983   4.575  20.239  0.00  0.00    +0.000 C 
ATOM      6  N   UNL     1       2.756   3.315  19.534  0.00  0.00    +0.000 N 
ATOM      7  C   UNL     1       3.581   3.124  18.410  0.00  0.00    +0.000 C 
ATOM      8  O   UNL     1       3.614   2.140  17.689  0.00  0.00    +0.000 OA
ENDROOT
BRANCH   1  12
ATOM      9  C   UNL     1       8.121   7.973  18.301  0.00  0.00    +0.000 A 
ATOM     10  C   UNL     1       8.254   6.818  19.067  0.00  0.00    +0.000 A 
ATOM     11  C   UNL     1       7.399   5.726  18.863  0.00  0.00    +0.000 A 
ATOM     12  C   UNL     1       6.391   5.764  17.880  0.00  0.00    +0.000 A 
ATOM     13  C   UNL     1       6.273   6.920  17.091  0.00  0.00    +0.000 A 
ATOM     14  C   UNL     1       7.125   8.016  17.322  0.00  0.00    +0.000 A 
BRANCH  13  15
ATOM     15  O   UNL     1       5.310   6.906  16.113  0.00  0.00    +0.000 OA
ATOM     16  C   UNL     1       5.573   6.076  14.985  0.00  0.00    +0.000 C 
ENDBRANCH  13  15
BRANCH   9  17
ATOM     17  O   UNL     1       9.007   8.986  18.577  0.00  0.00    +0.000 OA
BRANCH  17  19
ATOM     18  C   UNL     1       9.876  11.191  18.077  0.00  0.00    +0.000 C 
ATOM     19  C   UNL     1       8.656  10.291  18.100  0.00  0.00    +0.000 C 
ENDBRANCH  17  19
ENDBRANCH   9  17
ENDBRANCH   1  12
BRANCH   6  20
ATOM     20  C   UNL     1       1.739   2.355  19.986  0.00  0.00    +0.000 C 
ATOM     21  C   UNL     1       1.315   2.614  21.432  0.00  0.00    +0.000 C 
ATOM     22  C   UNL     1       0.516   2.374  19.063  0.00  0.00    +0.000 C 
ENDBRANCH   6  20
BRANCH   1  23
ATOM     23  O   UNL     1       6.161   3.527  17.017  0.00  0.00    +0.000 OA
ATOM     24  H   UNL     1       6.886   3.912  16.490  0.00  0.00    +0.000 HD
ENDBRANCH   1  23
TORSDOF 6
ENDMDL
MODEL 2
REMARK VINA RESULT:      -6.8      0.940      1.967
REMARK  Name = 
REMARK  10 active torsions:
REMARK  status: ('A' for Active; 'I' for Inactive)
REMARK    1  A    between atoms: C_1  and  C_2
REMARK    2  A    between atoms: C_2  and  O_3
REMARK    3  A    between atoms: O_3  and  C_4
REMARK    4  A    between atoms: C_7  and  C_8
REMARK    5  A    between atoms: C_8  and  O_9
REMARK    6  A    between atoms: N_14  and  C_15
REMARK    7  A    between atoms: C_15  and  C_16
REMARK    8  A    between atoms: C_15  and  C_17
REMARK    9  A    between atoms: C_20  and  O_21
REMARK   10  A    between atoms: O_21  and  C_22
REMARK                            x       y       z     vdW  Elec       q    Type
REMARK                         _______ _______ _______ _____ _____    ______ ____
ROOT
ATOM      1  C   UNL     1       5.656   4.685  17.500  0.00  0.00    +0.000 C 
ATOM      2  C   UNL     1       4.463   4.491  18.091  0.00  0.00    +0.000 C 
ATOM      3  C   UNL     1       3.775   5.468  18.955  0.00  0.00    +0.000 C 
ATOM      4  O   UNL     1       3.781   6.677  18.847  0.00  0.00    +0.000 OA
ATOM      5  C   UNL     1       3.094   4.689  20.046  0.00  0.00    +0.000 C 
ATOM      6  N   UNL     1       2.913   3.401  19.381  0.00  0.00    +0.000 N 
ATOM      7  C   UNL     1       3.745   3.204  18.263  0.00  0.00    +0.000 C 
ATOM      8  O   UNL     1       3.814   2.200  17.572  0.00  0.00    +0.000 OA
ENDROOT
BRANCH   1  12
ATOM      9  C   UNL     1       7.879   8.369  17.895  0.00  0.00    +0.000 A 
ATOM     10  C   UNL     1       6.792   8.267  17.030  0.00  0.00    +0.000 A 
ATOM     11  C   UNL     1       6.091   7.059  16.906  0.00  0.00    +0.000 A 
ATOM     12  C   UNL     1       6.462   5.924  17.652  0.00  0.00    +0.000 A 
ATOM     13  C   UNL     1       7.543   6.033  18.542  0.00  0.00    +0.000 A 
ATOM     14  C   UNL     1       8.249   7.246  18.640  0.00  0.00    +0.000 A 
BRANCH  13  15
ATOM     15  O   UNL     1       7.848   4.921  19.286  0.00  0.00    +0.000 OA
ATOM     16  C   UNL     1       8.442   5.160  20.559  0.00  0.00    +0.000 C 
ENDBRANCH  13  15
BRANCH   9  17
ATOM     17  O   UNL     1       8.497   9.595  17.945  0.00  0.00    +0.000 OA
BRANCH  17  19
ATOM     18  C   UNL     1      10.095  11.089  18.986  0.00  0.00    +0.000 C 
ATOM     19  C   UNL     1       9.115   9.949  19.189  0.00  0.00    +0.000 C 
ENDBRANCH  17  19
ENDBRANCH   9  17
ENDBRANCH   1  12
BRANCH   6  20
ATOM     20  C   UNL     1       1.930   2.420  19.862  0.00  0.00    +0.000 C 
ATOM     21  C   UNL     1       1.538   2.676  21.318  0.00  0.00    +0.000 C 
ATOM     22  C   UNL     1       0.683   2.409  18.971  0.00  0.00    +0.000 C 
ENDBRANCH   6  20
BRANCH   1  23
ATOM     23  O   UNL     1       6.311   3.654  16.858  0.00  0.00    +0.000 OA
ATOM     24  H   UNL     1       6.563   2.999  17.536  0.00  0.00    +0.000 HD
ENDBRANCH   1  23
TORSDOF 6
ENDMDL
MODEL 3
REMARK VINA RESULT:      -6.5      3.777      6.022
REMARK  Name = 
REMARK  10 active torsions:
REMARK  status: ('A' for Active; 'I' for Inactive)
REMARK    1  A    between atoms: C_1  and  C_2
REMARK    2  A    between atoms: C_2  and  O_3
REMARK    3  A    between atoms: O_3  and  C_4
REMARK    4  A    between atoms: C_7  and  C_8
REMARK    5  A    between atoms: C_8  and  O_9
REMARK    6  A    between atoms: N_14  and  C_15
REMARK    7  A    between atoms: C_15  and  C_16
REMARK    8  A    between atoms: C_15  and  C_17
REMARK    9  A    between atoms: C_20  and  O_21
REMARK   10  A    between atoms: O_21  and  C_22
REMARK                            x       y       z     vdW  Elec       q    Type
REMARK                         _______ _______ _______ _____ _____    ______ ____
ROOT
ATOM      1  C   UNL     1       2.491   6.560  19.687  0.00  0.00    +0.000 C 
ATOM      2  C   UNL     1       1.901   7.737  19.406  0.00  0.00    +0.000 C 
ATOM      3  C   UNL     1       2.090   8.504  18.160  0.00  0.00    +0.000 C 
ATOM      4  O   UNL     1       2.259   8.062  17.043  0.00  0.00    +0.000 OA
ATOM      5  C   UNL     1       2.087   9.960  18.536  0.00  0.00    +0.000 C 
ATOM      6  N   UNL     1       1.294   9.918  19.763  0.00  0.00    +0.000 N 
ATOM      7  C   UNL     1       1.210   8.644  20.354  0.00  0.00    +0.000 C 
ATOM      8  O   UNL     1       0.648   8.361  21.400  0.00  0.00    +0.000 OA
ENDROOT
BRANCH   1  12
ATOM      9  C   UNL     1       5.359   4.583  17.131  0.00  0.00    +0.000 A 
ATOM     10  C   UNL     1       5.755   5.543  18.059  0.00  0.00    +0.000 A 
ATOM     11  C   UNL     1       4.808   6.183  18.870  0.00  0.00    +0.000 A 
ATOM     12  C   UNL     1       3.438   5.871  18.773  0.00  0.00    +0.000 A 
ATOM     13  C   UNL     1       3.041   4.886  17.854  0.00  0.00    +0.000 A 
ATOM     14  C   UNL     1       4.001   4.267  17.032  0.00  0.00    +0.000 A 
BRANCH  13  15
ATOM     15  O   UNL     1       1.705   4.575  17.818  0.00  0.00    +0.000 OA
ATOM     16  C   UNL     1       1.339   3.310  18.364  0.00  0.00    +0.000 C 
ENDBRANCH  13  15
BRANCH   9  17
ATOM     17  O   UNL     1       6.363   4.013  16.385  0.00  0.00    +0.000 OA
BRANCH  17  19
ATOM     18  C   UNL     1       6.222   4.034  13.967  0.00  0.00    +0.000 C 
ATOM     19  C   UNL     1       6.763   4.722  15.205  0.00  0.00    +0.000 C 
ENDBRANCH  17  19
ENDBRANCH   9  17
ENDBRANCH   1  12
BRANCH   6  20
ATOM     20  C   UNL     1       0.648  11.123  20.301  0.00  0.00    +0.000 C 
ATOM     21  C   UNL     1       1.404  12.395  19.912  0.00  0.00    +0.000 C 
ATOM     22  C   UNL     1      -0.812  11.214  19.845  0.00  0.00    +0.000 C 
ENDBRANCH   6  20
BRANCH   1  23
ATOM     23  O   UNL     1       2.403   6.000  20.945  0.00  0.00    +0.000 OA
ATOM     24  H   UNL     1       2.232   5.047  20.831  0.00  0.00    +0.000 HD
ENDBRANCH   1  23
TORSDOF 6
ENDMDL
MODEL 4
REMARK VINA RESULT:      -6.4      2.618      5.098
REMARK  Name = 
REMARK  10 active torsions:
REMARK  status: ('A' for Active; 'I' for Inactive)
REMARK    1  A    between atoms: C_1  and  C_2
REMARK    2  A    between atoms: C_2  and  O_3
REMARK    3  A    between atoms: O_3  and  C_4
REMARK    4  A    between atoms: C_7  and  C_8
REMARK    5  A    between atoms: C_8  and  O_9
REMARK    6  A    between atoms: N_14  and  C_15
REMARK    7  A    between atoms: C_15  and  C_16
REMARK    8  A    between atoms: C_15  and  C_17
REMARK    9  A    between atoms: C_20  and  O_21
REMARK   10  A    between atoms: O_21  and  C_22
REMARK                            x       y       z     vdW  Elec       q    Type
REMARK                         _______ _______ _______ _____ _____    ______ ____
ROOT
ATOM      1  C   UNL     1       4.757   5.577  17.016  0.00  0.00    +0.000 C 
ATOM      2  C   UNL     1       4.145   4.799  17.928  0.00  0.00    +0.000 C 
ATOM      3  C   UNL     1       4.041   3.329  17.856  0.00  0.00    +0.000 C 
ATOM      4  O   UNL     1       4.863   2.555  17.412  0.00  0.00    +0.000 OA
ATOM      5  C   UNL     1       2.687   2.957  18.394  0.00  0.00    +0.000 C 
ATOM      6  N   UNL     1       2.427   4.096  19.272  0.00  0.00    +0.000 N 
ATOM      7  C   UNL     1       3.210   5.231  18.995  0.00  0.00    +0.000 C 
ATOM      8  O   UNL     1       3.147   6.315  19.554  0.00  0.00    +0.000 OA
ENDROOT
BRANCH   1  12
ATOM      9  C   UNL     1       6.521   4.092  13.363  0.00  0.00    +0.000 A 
ATOM     10  C   UNL     1       5.140   4.126  13.539  0.00  0.00    +0.000 A 
ATOM     11  C   UNL     1       4.587   4.599  14.737  0.00  0.00    +0.000 A 
ATOM     12  C   UNL     1       5.407   5.055  15.787  0.00  0.00    +0.000 A 
ATOM     13  C   UNL     1       6.800   5.043  15.600  0.00  0.00    +0.000 A 
ATOM     14  C   UNL     1       7.341   4.546  14.400  0.00  0.00    +0.000 A 
BRANCH  13  15
ATOM     15  O   UNL     1       7.566   5.537  16.626  0.00  0.00    +0.000 OA
ATOM     16  C   UNL     1       7.805   4.649  17.715  0.00  0.00    +0.000 C 
ENDBRANCH  13  15
BRANCH   9  17
ATOM     17  O   UNL     1       6.964   3.612  12.153  0.00  0.00    +0.000 OA
BRANCH  17  19
ATOM     18  C   UNL     1       7.004   1.439  11.084  0.00  0.00    +0.000 C 
ATOM     19  C   UNL     1       6.151   2.612  11.527  0.00  0.00    +0.000 C 
ENDBRANCH  17  19
ENDBRANCH   9  17
ENDBRANCH   1  12
BRANCH   6  20
ATOM     20  C   UNL     1       1.427   4.024  20.347  0.00  0.00    +0.000 C 
ATOM     21  C   UNL     1       0.263   3.104  19.980  0.00  0.00    +0.000 C 
ATOM     22  C   UNL     1       2.068   3.568  21.663  0.00  0.00    +0.000 C 
ENDBRANCH   6  20
BRANCH   1  23
ATOM     23  O   UNL     1       4.651   6.952  17.065  0.00  0.00    +0.000 OA
ATOM     24  H   UNL     1       3.895   7.169  17.643  0.00  0.00    +0.000 HD
ENDBRANCH   1  23
TORSDOF 6
ENDMDL
MODEL 5
REMARK VINA RESULT:      -6.3      3.023      4.762
REMARK  Name = 
REMARK  10 active torsions:
REMARK  status: ('A' for Active; 'I' for Inactive)
REMARK    1  A    between atoms: C_1  and  C_2
REMARK    2  A    between atoms: C_2  and  O_3
REMARK    3  A    between atoms: O_3  and  C_4
REMARK    4  A    between atoms: C_7  and  C_8
REMARK    5  A    between atoms: C_8  and  O_9
REMARK    6  A    between atoms: N_14  and  C_15
REMARK    7  A    between atoms: C_15  and  C_16
REMARK    8  A    between atoms: C_15  and  C_17
REMARK    9  A    between atoms: C_20  and  O_21
REMARK   10  A    between atoms: O_21  and  C_22
REMARK                            x       y       z     vdW  Elec       q    Type
REMARK                         _______ _______ _______ _____ _____    ______ ____
ROOT
ATOM      1  C   UNL     1       3.652   4.973  18.958  0.00  0.00    +0.000 C 
ATOM      2  C   UNL     1       2.798   6.004  19.096  0.00  0.00    +0.000 C 
ATOM      3  C   UNL     1       2.807   7.228  18.272  0.00  0.00    +0.000 C 
ATOM      4  O   UNL     1       3.085   7.319  17.095  0.00  0.00    +0.000 OA
ATOM      5  C   UNL     1       2.451   8.372  19.180  0.00  0.00    +0.000 C 
ATOM      6  N   UNL     1       1.682   7.670  20.205  0.00  0.00    +0.000 N 
ATOM      7  C   UNL     1       1.903   6.281  20.245  0.00  0.00    +0.000 C 
ATOM      8  O   UNL     1       1.417   5.487  21.036  0.00  0.00    +0.000 OA
ENDROOT
BRANCH   1  12
ATOM      9  C   UNL     1       6.726   4.881  15.924  0.00  0.00    +0.000 A 
ATOM     10  C   UNL     1       5.398   4.588  15.620  0.00  0.00    +0.000 A 
ATOM     11  C   UNL     1       4.418   4.610  16.622  0.00  0.00    +0.000 A 
ATOM     12  C   UNL     1       4.745   4.932  17.952  0.00  0.00    +0.000 A 
ATOM     13  C   UNL     1       6.079   5.252  18.254  0.00  0.00    +0.000 A 
ATOM     14  C   UNL     1       7.056   5.205  17.242  0.00  0.00    +0.000 A 
BRANCH  13  15
ATOM     15  O   UNL     1       6.353   5.605  19.551  0.00  0.00    +0.000 OA
ATOM     16  C   UNL     1       7.730   5.622  19.920  0.00  0.00    +0.000 C 
ENDBRANCH  13  15
BRANCH   9  17
ATOM     17  O   UNL     1       7.610   4.833  14.872  0.00  0.00    +0.000 OA
BRANCH  17  19
ATOM     18  C   UNL     1       7.852   5.362  12.521  0.00  0.00    +0.000 C 
ATOM     19  C   UNL     1       7.046   4.623  13.572  0.00  0.00    +0.000 C 
ENDBRANCH  17  19
ENDBRANCH   9  17
ENDBRANCH   1  12
BRANCH   6  20
ATOM     20  C   UNL     1       0.761   8.386  21.099  0.00  0.00    +0.000 C 
ATOM     21  C   UNL     1       1.495   9.029  22.275  0.00  0.00    +0.000 C 
ATOM     22  C   UNL     1      -0.038   9.445  20.330  0.00  0.00    +0.000 C 
ENDBRANCH   6  20
BRANCH   1  23
ATOM     23  O   UNL     1       3.692   3.951  19.885  0.00  0.00    +0.000 OA
ATOM     24  H   UNL     1       4.273   3.253  19.528  0.00  0.00    +0.000 HD
ENDBRANCH   1  23
TORSDOF 6
ENDMDL
MODEL 6
REMARK VINA RESULT:      -6.3      3.141      4.945
REMARK  Name = 
REMARK  10 active torsions:
REMARK  status: ('A' for Active; 'I' for Inactive)
REMARK    1  A    between atoms: C_1  and  C_2
REMARK    2  A    between atoms: C_2  and  O_3
REMARK    3  A    between atoms: O_3  and  C_4
REMARK    4  A    between atoms: C_7  and  C_8
REMARK    5  A    between atoms: C_8  and  O_9
REMARK    6  A    between atoms: N_14  and  C_15
REMARK    7  A    between atoms: C_15  and  C_16
REMARK    8  A    between atoms: C_15  and  C_17
REMARK    9  A    between atoms: C_20  and  O_21
REMARK   10  A    between atoms: O_21  and  C_22
REMARK                            x       y       z     vdW  Elec       q    Type
REMARK                         _______ _______ _______ _____ _____    ______ ____
ROOT
ATOM      1  C   UNL     1       3.461   5.708  18.969  0.00  0.00    +0.000 C 
ATOM      2  C   UNL     1       2.573   6.716  19.043  0.00  0.00    +0.000 C 
ATOM      3  C   UNL     1       2.467   7.825  18.077  0.00  0.00    +0.000 C 
ATOM      4  O   UNL     1       2.656   7.778  16.879  0.00  0.00    +0.000 OA
ATOM      5  C   UNL     1       2.125   9.061  18.861  0.00  0.00    +0.000 C 
ATOM      6  N   UNL     1       1.464   8.467  20.021  0.00  0.00    +0.000 N 
ATOM      7  C   UNL     1       1.750   7.103  20.215  0.00  0.00    +0.000 C 
ATOM      8  O   UNL     1       1.359   6.398  21.132  0.00  0.00    +0.000 OA
ENDROOT
BRANCH   1  12
ATOM      9  C   UNL     1       6.526   5.402  15.939  0.00  0.00    +0.000 A 
ATOM     10  C   UNL     1       6.597   6.360  16.948  0.00  0.00    +0.000 A 
ATOM     11  C   UNL     1       5.585   6.452  17.914  0.00  0.00    +0.000 A 
ATOM     12  C   UNL     1       4.480   5.580  17.895  0.00  0.00    +0.000 A 
ATOM     13  C   UNL     1       4.421   4.598  16.892  0.00  0.00    +0.000 A 
ATOM     14  C   UNL     1       5.433   4.532  15.917  0.00  0.00    +0.000 A 
BRANCH  13  15
ATOM     15  O   UNL     1       3.353   3.737  16.931  0.00  0.00    +0.000 OA
ATOM     16  C   UNL     1       3.591   2.468  17.534  0.00  0.00    +0.000 C 
ENDBRANCH  13  15
BRANCH   9  17
ATOM     17  O   UNL     1       7.567   5.393  15.042  0.00  0.00    +0.000 OA
BRANCH  17  19
ATOM     18  C   UNL     1       8.076   5.529  12.677  0.00  0.00    +0.000 C 
ATOM     19  C   UNL     1       7.303   4.804  13.762  0.00  0.00    +0.000 C 
ENDBRANCH  17  19
ENDBRANCH   9  17
ENDBRANCH   1  12
BRANCH   6  20
ATOM     20  C   UNL     1       0.577   9.256  20.888  0.00  0.00    +0.000 C 
ATOM     21  C   UNL     1       1.172   9.453  22.282  0.00  0.00    +0.000 C 
ATOM     22  C   UNL     1       0.254  10.613  20.252  0.00  0.00    +0.000 C 
ENDBRANCH   6  20
BRANCH   1  23
ATOM     23  O   UNL     1       3.614   4.813  20.008  0.00  0.00    +0.000 OA
ATOM     24  H   UNL     1       3.525   3.915  19.639  0.00  0.00    +0.000 HD
ENDBRANCH   1  23
TORSDOF 6
ENDMDL
MODEL 7
REMARK VINA RESULT:      -6.2      2.172      4.613
REMARK  Name = 
REMARK  10 active torsions:
REMARK  status: ('A' for Active; 'I' for Inactive)
REMARK    1  A    between atoms: C_1  and  C_2
REMARK    2  A    between atoms: C_2  and  O_3
REMARK    3  A    between atoms: O_3  and  C_4
REMARK    4  A    between atoms: C_7  and  C_8
REMARK    5  A    between atoms: C_8  and  O_9
REMARK    6  A    between atoms: N_14  and  C_15
REMARK    7  A    between atoms: C_15  and  C_16
REMARK    8  A    between atoms: C_15  and  C_17
REMARK    9  A    between atoms: C_20  and  O_21
REMARK   10  A    between atoms: O_21  and  C_22
REMARK                            x       y       z     vdW  Elec       q    Type
REMARK                         _______ _______ _______ _____ _____    ______ ____
ROOT
ATOM      1  C   UNL     1       4.464   6.004  17.386  0.00  0.00    +0.000 C 
ATOM      2  C   UNL     1       4.156   5.228  18.442  0.00  0.00    +0.000 C 
ATOM      3  C   UNL     1       4.644   3.852  18.653  0.00  0.00    +0.000 C 
ATOM      4  O   UNL     1       5.729   3.402  18.349  0.00  0.00    +0.000 OA
ATOM      5  C   UNL     1       3.518   3.078  19.280  0.00  0.00    +0.000 C 
ATOM      6  N   UNL     1       2.779   4.159  19.929  0.00  0.00    +0.000 N 
ATOM      7  C   UNL     1       3.067   5.440  19.424  0.00  0.00    +0.000 C 
ATOM      8  O   UNL     1       2.549   6.492  19.768  0.00  0.00    +0.000 OA
ENDROOT
BRANCH   1  12
ATOM      9  C   UNL     1       6.880   4.708  14.047  0.00  0.00    +0.000 A 
ATOM     10  C   UNL     1       5.576   4.249  14.220  0.00  0.00    +0.000 A 
ATOM     11  C   UNL     1       4.812   4.671  15.317  0.00  0.00    +0.000 A 
ATOM     12  C   UNL     1       5.338   5.569  16.266  0.00  0.00    +0.000 A 
ATOM     13  C   UNL     1       6.644   6.050  16.079  0.00  0.00    +0.000 A 
ATOM     14  C   UNL     1       7.405   5.601  14.984  0.00  0.00    +0.000 A 
BRANCH  13  15
ATOM     15  O   UNL     1       7.107   6.958  16.998  0.00  0.00    +0.000 OA
ATOM     16  C   UNL     1       7.721   6.415  18.163  0.00  0.00    +0.000 C 
ENDBRANCH  13  15
BRANCH   9  17
ATOM     17  O   UNL     1       7.544   4.236  12.940  0.00  0.00    +0.000 OA
BRANCH  17  19
ATOM     18  C   UNL     1       7.280   2.368  11.419  0.00  0.00    +0.000 C 
ATOM     19  C   UNL     1       6.731   3.703  11.886  0.00  0.00    +0.000 C 
ENDBRANCH  17  19
ENDBRANCH   9  17
ENDBRANCH   1  12
BRANCH   6  20
ATOM     20  C   UNL     1       1.829   3.893  21.018  0.00  0.00    +0.000 C 
ATOM     21  C   UNL     1       0.446   3.515  20.485  0.00  0.00    +0.000 C 
ATOM     22  C   UNL     1       2.355   2.797  21.952  0.00  0.00    +0.000 C 
ENDBRANCH   6  20
BRANCH   1  23
ATOM     23  O   UNL     1       3.822   7.207  17.173  0.00  0.00    +0.000 OA
ATOM     24  H   UNL     1       3.891   7.727  17.996  0.00  0.00    +0.000 HD
ENDBRANCH   1  23
TORSDOF 6
ENDMDL
MODEL 8
REMARK VINA RESULT:      -6.2      4.279      6.354
REMARK  Name = 
REMARK  10 active torsions:
REMARK  status: ('A' for Active; 'I' for Inactive)
REMARK    1  A    between atoms: C_1  and  C_2
REMARK    2  A    between atoms: C_2  and  O_3
REMARK    3  A    between atoms: O_3  and  C_4
REMARK    4  A    between atoms: C_7  and  C_8
REMARK    5  A    between atoms: C_8  and  O_9
REMARK    6  A    between atoms: N_14  and  C_15
REMARK    7  A    between atoms: C_15  and  C_16
REMARK    8  A    between atoms: C_15  and  C_17
REMARK    9  A    between atoms: C_20  and  O_21
REMARK   10  A    between atoms: O_21  and  C_22
REMARK                            x       y       z     vdW  Elec       q    Type
REMARK                         _______ _______ _______ _____ _____    ______ ____
ROOT
ATOM      1  C   UNL     1       2.083   7.199  19.741  0.00  0.00    +0.000 C 
ATOM      2  C   UNL     1       1.465   8.385  19.591  0.00  0.00    +0.000 C 
ATOM      3  C   UNL     1       1.503   9.213  18.371  0.00  0.00    +0.000 C 
ATOM      4  O   UNL     1       1.533   8.826  17.221  0.00  0.00    +0.000 OA
ATOM      5  C   UNL     1       1.548  10.648  18.814  0.00  0.00    +0.000 C 
ATOM      6  N   UNL     1       0.911  10.544  20.125  0.00  0.00    +0.000 N 
ATOM      7  C   UNL     1       0.897   9.242  20.660  0.00  0.00    +0.000 C 
ATOM      8  O   UNL     1       0.466   8.907  21.752  0.00  0.00    +0.000 OA
ENDROOT
BRANCH   1  12
ATOM      9  C   UNL     1       4.605   5.432  16.710  0.00  0.00    +0.000 A 
ATOM     10  C   UNL     1       4.812   6.736  17.156  0.00  0.00    +0.000 A 
ATOM     11  C   UNL     1       3.974   7.296  18.130  0.00  0.00    +0.000 A 
ATOM     12  C   UNL     1       2.911   6.559  18.686  0.00  0.00    +0.000 A 
ATOM     13  C   UNL     1       2.718   5.236  18.254  0.00  0.00    +0.000 A 
ATOM     14  C   UNL     1       3.554   4.695  17.260  0.00  0.00    +0.000 A 
BRANCH  13  15
ATOM     15  O   UNL     1       1.701   4.532  18.850  0.00  0.00    +0.000 OA
ATOM     16  C   UNL     1       1.980   3.171  19.165  0.00  0.00    +0.000 C 
ENDBRANCH  13  15
BRANCH   9  17
ATOM     17  O   UNL     1       5.481   4.976  15.754  0.00  0.00    +0.000 OA
BRANCH  17  19
ATOM     18  C   UNL     1       7.393   4.519  17.169  0.00  0.00    +0.000 C 
ATOM     19  C   UNL     1       6.867   5.273  15.963  0.00  0.00    +0.000 C 
ENDBRANCH  17  19
ENDBRANCH   9  17
ENDBRANCH   1  12
BRANCH   6  20
ATOM     20  C   UNL     1       0.337  11.719  20.796  0.00  0.00    +0.000 C 
ATOM     21  C   UNL     1       1.125  12.992  20.484  0.00  0.00    +0.000 C 
ATOM     22  C   UNL     1      -1.137  11.902  20.419  0.00  0.00    +0.000 C 
ENDBRANCH   6  20
BRANCH   1  23
ATOM     23  O   UNL     1       2.149   6.578  20.972  0.00  0.00    +0.000 OA
ATOM     24  H   UNL     1       3.088   6.538  21.231  0.00  0.00    +0.000 HD
ENDBRANCH   1  23
TORSDOF 6
ENDMDL
MODEL 9
REMARK VINA RESULT:      -6.1      3.215      6.221
REMARK  Name = 
REMARK  10 active torsions:
REMARK  status: ('A' for Active; 'I' for Inactive)
REMARK    1  A    between atoms: C_1  and  C_2
REMARK    2  A    between atoms: C_2  and  O_3
REMARK    3  A    between atoms: O_3  and  C_4
REMARK    4  A    between atoms: C_7  and  C_8
REMARK    5  A    between atoms: C_8  and  O_9
REMARK    6  A    between atoms: N_14  and  C_15
REMARK    7  A    between atoms: C_15  and  C_16
REMARK    8  A    between atoms: C_15  and  C_17
REMARK    9  A    between atoms: C_20  and  O_21
REMARK   10  A    between atoms: O_21  and  C_22
REMARK                            x       y       z     vdW  Elec       q    Type
REMARK                         _______ _______ _______ _____ _____    ______ ____
ROOT
ATOM      1  C   UNL     1       3.387   5.115  17.782  0.00  0.00    +0.000 C 
ATOM      2  C   UNL     1       4.495   5.151  17.018  0.00  0.00    +0.000 C 
ATOM      3  C   UNL     1       5.271   6.366  16.708  0.00  0.00    +0.000 C 
ATOM      4  O   UNL     1       5.465   7.320  17.432  0.00  0.00    +0.000 OA
ATOM      5  C   UNL     1       5.749   6.232  15.289  0.00  0.00    +0.000 C 
ATOM      6  N   UNL     1       5.766   4.778  15.149  0.00  0.00    +0.000 N 
ATOM      7  C   UNL     1       4.986   4.096  16.100  0.00  0.00    +0.000 C 
ATOM      8  O   UNL     1       4.804   2.890  16.165  0.00  0.00    +0.000 OA
ENDROOT
BRANCH   1  12
ATOM      9  C   UNL     1       1.556   8.637  19.488  0.00  0.00    +0.000 A 
ATOM     10  C   UNL     1       1.819   8.545  18.123  0.00  0.00    +0.000 A 
ATOM     11  C   UNL     1       2.426   7.399  17.591  0.00  0.00    +0.000 A 
ATOM     12  C   UNL     1       2.780   6.314  18.415  0.00  0.00    +0.000 A 
ATOM     13  C   UNL     1       2.493   6.397  19.788  0.00  0.00    +0.000 A 
ATOM     14  C   UNL     1       1.903   7.563  20.311  0.00  0.00    +0.000 A 
BRANCH  13  15
ATOM     15  O   UNL     1       2.811   5.304  20.554  0.00  0.00    +0.000 OA
ATOM     16  C   UNL     1       1.713   4.529  21.029  0.00  0.00    +0.000 C 
ENDBRANCH  13  15
BRANCH   9  17
ATOM     17  O   UNL     1       0.959   9.801  19.911  0.00  0.00    +0.000 OA
BRANCH  17  19
ATOM     18  C   UNL     1      -1.186  10.413  18.966  0.00  0.00    +0.000 C 
ATOM     19  C   UNL     1       0.318  10.593  18.903  0.00  0.00    +0.000 C 
ENDBRANCH  17  19
ENDBRANCH   9  17
ENDBRANCH   1  12
BRANCH   6  20
ATOM     20  C   UNL     1       6.548   4.117  14.094  0.00  0.00    +0.000 C 
ATOM     21  C   UNL     1       5.659   3.617  12.956  0.00  0.00    +0.000 C 
ATOM     22  C   UNL     1       7.633   5.052  13.548  0.00  0.00    +0.000 C 
ENDBRANCH   6  20
BRANCH   1  23
ATOM     23  O   UNL     1       2.619   3.973  17.873  0.00  0.00    +0.000 OA
ATOM     24  H   UNL     1       2.253   3.935  18.776  0.00  0.00    +0.000 HD
ENDBRANCH   1  23
TORSDOF 6
ENDMDL
