MODEL 1
REMARK VINA RESULT:      -9.5      0.000      0.000
REMARK  Name = 
REMARK  3 active torsions:
REMARK  status: ('A' for Active; 'I' for Inactive)
REMARK    1  A    between atoms: C_1  and  N_2
REMARK    2  A    between atoms: N_5  and  C_6
REMARK    3  A    between atoms: C_9  and  C_10
REMARK                            x       y       z     vdW  Elec       q    Type
REMARK                         _______ _______ _______ _____ _____    ______ ____
ROOT
ATOM      1  C   UNL     1       2.573   6.462  19.658  0.00  0.00    +0.000 A 
ATOM      2  N   UNL     1       3.706   6.094  19.030  0.00  0.00    +0.000 NA
ATOM      3  C   UNL     1       4.195   4.837  19.155  0.00  0.00    +0.000 A 
ATOM      4  N   UNL     1       5.363   4.450  18.455  0.00  0.00    +0.000 N 
ATOM      5  C   UNL     1       6.267   5.590  18.139  0.00  0.00    +0.000 C 
ATOM      6  C   UNL     1       6.141   6.088  16.677  0.00  0.00    +0.000 C 
ATOM      7  C   UNL     1       6.989   5.258  15.699  0.00  0.00    +0.000 C 
ATOM      8  C   UNL     1       5.978   4.337  15.033  0.00  0.00    +0.000 C 
ATOM      9  C   UNL     1       4.785   4.441  15.968  0.00  0.00    +0.000 C 
ATOM     10  C   UNL     1       5.008   3.620  17.276  0.00  0.00    +0.000 C 
ATOM     11  O   UNL     1       4.788   5.862  16.225  0.00  0.00    +0.000 OA
ATOM     12  C   UNL     1       3.486   3.977  20.015  0.00  0.00    +0.000 A 
ATOM     13  S   UNL     1       3.795   2.338  20.465  0.00  0.00    +0.000 S 
ATOM     14  C   UNL     1       2.427   2.276  21.484  0.00  0.00    +0.000 A 
ATOM     15  C   UNL     1       1.747   3.469  21.503  0.00  0.00    +0.000 A 
ATOM     16  C   UNL     1       2.347   4.446  20.659  0.00  0.00    +0.000 A 
ATOM     17  N   UNL     1       1.862   5.696  20.491  0.00  0.00    +0.000 NA
ENDROOT
BRANCH   1  21
ATOM     18  C   UNL     1       0.947  10.360  18.741  0.00  0.00    +0.000 A 
ATOM     19  C   UNL     1       1.695   9.654  17.799  0.00  0.00    +0.000 A 
ATOM     20  C   UNL     1       2.231   8.399  18.103  0.00  0.00    +0.000 A 
ATOM     21  C   UNL     1       2.044   7.807  19.363  0.00  0.00    +0.000 A 
ATOM     22  C   UNL     1       1.308   8.544  20.312  0.00  0.00    +0.000 A 
ATOM     23  C   UNL     1       0.775   9.807  20.011  0.00  0.00    +0.000 A 
BRANCH  18  28
ATOM     24  C   UNL     1       0.410  15.206  18.883  0.00  0.00    +0.000 C 
ATOM     25  N   UNL     1       0.019  13.864  18.526  0.00  0.00    +0.000 N 
ATOM     26  C   UNL     1       0.867  12.832  18.875  0.00  0.00    +0.000 C 
ATOM     27  O   UNL     1       1.931  13.030  19.446  0.00  0.00    +0.000 OA
ATOM     28  N   UNL     1       0.364  11.613  18.470  0.00  0.00    +0.000 N 
ATOM     29  H   UNL     1      -0.964  13.642  18.584  0.00  0.00    +0.000 HD
ATOM     30  H   UNL     1      -0.315  11.655  17.724  0.00  0.00    +0.000 HD
ENDBRANCH  18  28
ENDBRANCH   1  21
TORSDOF 2
ENDMDL
MODEL 2
REMARK VINA RESULT:      -9.0      0.462      1.014
REMARK  Name = 
REMARK  3 active torsions:
REMARK  status: ('A' for Active; 'I' for Inactive)
REMARK    1  A    between atoms: C_1  and  N_2
REMARK    2  A    between atoms: N_5  and  C_6
REMARK    3  A    between atoms: C_9  and  C_10
REMARK                            x       y       z     vdW  Elec       q    Type
REMARK                         _______ _______ _______ _____ _____    ______ ____
ROOT
ATOM      1  C   UNL     1       2.559   6.530  19.534  0.00  0.00    +0.000 A 
ATOM      2  N   UNL     1       3.694   6.130  18.931  0.00  0.00    +0.000 NA
ATOM      3  C   UNL     1       4.154   4.865  19.080  0.00  0.00    +0.000 A 
ATOM      4  N   UNL     1       5.326   4.444  18.406  0.00  0.00    +0.000 N 
ATOM      5  C   UNL     1       6.258   5.561  18.090  0.00  0.00    +0.000 C 
ATOM      6  C   UNL     1       6.167   6.040  16.619  0.00  0.00    +0.000 C 
ATOM      7  C   UNL     1       7.014   5.180  15.667  0.00  0.00    +0.000 C 
ATOM      8  C   UNL     1       5.995   4.270  14.997  0.00  0.00    +0.000 C 
ATOM      9  C   UNL     1       4.789   4.412  15.911  0.00  0.00    +0.000 C 
ATOM     10  C   UNL     1       4.973   3.605  17.233  0.00  0.00    +0.000 C 
ATOM     11  O   UNL     1       4.818   5.836  16.148  0.00  0.00    +0.000 OA
ATOM     12  C   UNL     1       3.414   4.032  19.940  0.00  0.00    +0.000 A 
ATOM     13  S   UNL     1       3.681   2.393  20.418  0.00  0.00    +0.000 S 
ATOM     14  C   UNL     1       2.295   2.374  21.415  0.00  0.00    +0.000 A 
ATOM     15  C   UNL     1       1.640   3.581  21.405  0.00  0.00    +0.000 A 
ATOM     16  C   UNL     1       2.275   4.534  20.559  0.00  0.00    +0.000 A 
ATOM     17  N   UNL     1       1.819   5.791  20.365  0.00  0.00    +0.000 NA
ENDROOT
BRANCH   1  21
ATOM     18  C   UNL     1       1.173  10.528  18.657  0.00  0.00    +0.000 A 
ATOM     19  C   UNL     1       0.787   9.875  19.828  0.00  0.00    +0.000 A 
ATOM     20  C   UNL     1       1.226   8.577  20.101  0.00  0.00    +0.000 A 
ATOM     21  C   UNL     1       2.062   7.882  19.212  0.00  0.00    +0.000 A 
ATOM     22  C   UNL     1       2.421   8.545  18.022  0.00  0.00    +0.000 A 
ATOM     23  C   UNL     1       1.976   9.845  17.741  0.00  0.00    +0.000 A 
BRANCH  18  28
ATOM     24  C   UNL     1      -0.465  15.048  19.484  0.00  0.00    +0.000 C 
ATOM     25  N   UNL     1      -0.023  13.957  18.649  0.00  0.00    +0.000 N 
ATOM     26  C   UNL     1       0.385  12.795  19.273  0.00  0.00    +0.000 C 
ATOM     27  O   UNL     1       0.404  12.683  20.491  0.00  0.00    +0.000 OA
ATOM     28  N   UNL     1       0.777  11.846  18.352  0.00  0.00    +0.000 N 
ATOM     29  H   UNL     1      -0.512  13.820  17.777  0.00  0.00    +0.000 HD
ATOM     30  H   UNL     1       1.036  12.206  17.446  0.00  0.00    +0.000 HD
ENDBRANCH  18  28
ENDBRANCH   1  21
TORSDOF 2
ENDMDL
MODEL 3
REMARK VINA RESULT:      -8.7      2.130      4.307
REMARK  Name = 
REMARK  3 active torsions:
REMARK  status: ('A' for Active; 'I' for Inactive)
REMARK    1  A    between atoms: C_1  and  N_2
REMARK    2  A    between atoms: N_5  and  C_6
REMARK    3  A    between atoms: C_9  and  C_10
REMARK                            x       y       z     vdW  Elec       q    Type
REMARK                         _______ _______ _______ _____ _____    ______ ____
ROOT
ATOM      1  C   UNL     1       2.818   7.322  18.070  0.00  0.00    +0.000 A 
ATOM      2  N   UNL     1       2.413   6.099  18.461  0.00  0.00    +0.000 NA
ATOM      3  C   UNL     1       3.078   4.987  18.068  0.00  0.00    +0.000 A 
ATOM      4  N   UNL     1       2.669   3.710  18.522  0.00  0.00    +0.000 N 
ATOM      5  C   UNL     1       1.226   3.646  18.883  0.00  0.00    +0.000 C 
ATOM      6  C   UNL     1       0.969   3.735  20.408  0.00  0.00    +0.000 C 
ATOM      7  C   UNL     1       1.114   2.374  21.108  0.00  0.00    +0.000 C 
ATOM      8  C   UNL     1       2.489   2.444  21.756  0.00  0.00    +0.000 C 
ATOM      9  C   UNL     1       3.125   3.618  21.031  0.00  0.00    +0.000 C 
ATOM     10  C   UNL     1       3.578   3.225  19.591  0.00  0.00    +0.000 C 
ATOM     11  O   UNL     1       2.011   4.535  21.008  0.00  0.00    +0.000 OA
ATOM     12  C   UNL     1       4.162   5.187  17.192  0.00  0.00    +0.000 A 
ATOM     13  S   UNL     1       5.225   4.049  16.445  0.00  0.00    +0.000 S 
ATOM     14  C   UNL     1       6.098   5.273  15.637  0.00  0.00    +0.000 A 
ATOM     15  C   UNL     1       5.598   6.523  15.908  0.00  0.00    +0.000 A 
ATOM     16  C   UNL     1       4.490   6.480  16.802  0.00  0.00    +0.000 A 
ATOM     17  N   UNL     1       3.830   7.576  17.236  0.00  0.00    +0.000 NA
ENDROOT
BRANCH   1  21
ATOM     18  C   UNL     1       0.680  10.701  19.710  0.00  0.00    +0.000 A 
ATOM     19  C   UNL     1       1.236  10.755  18.432  0.00  0.00    +0.000 A 
ATOM     20  C   UNL     1       1.938   9.665  17.910  0.00  0.00    +0.000 A 
ATOM     21  C   UNL     1       2.116   8.484  18.649  0.00  0.00    +0.000 A 
ATOM     22  C   UNL     1       1.571   8.455  19.948  0.00  0.00    +0.000 A 
ATOM     23  C   UNL     1       0.872   9.551  20.477  0.00  0.00    +0.000 A 
BRANCH  18  28
ATOM     24  C   UNL     1      -0.169  14.671  22.415  0.00  0.00    +0.000 C 
ATOM     25  N   UNL     1      -0.547  13.589  21.538  0.00  0.00    +0.000 N 
ATOM     26  C   UNL     1       0.450  12.744  21.093  0.00  0.00    +0.000 C 
ATOM     27  O   UNL     1       1.624  12.906  21.397  0.00  0.00    +0.000 OA
ATOM     28  N   UNL     1      -0.059  11.764  20.267  0.00  0.00    +0.000 N 
ATOM     29  H   UNL     1      -1.433  13.141  21.720  0.00  0.00    +0.000 HD
ATOM     30  H   UNL     1      -0.949  11.978  19.842  0.00  0.00    +0.000 HD
ENDBRANCH  18  28
ENDBRANCH   1  21
TORSDOF 2
ENDMDL
MODEL 4
REMARK VINA RESULT:      -8.5      2.310      4.401
REMARK  Name = 
REMARK  3 active torsions:
REMARK  status: ('A' for Active; 'I' for Inactive)
REMARK    1  A    between atoms: C_1  and  N_2
REMARK    2  A    between atoms: N_5  and  C_6
REMARK    3  A    between atoms: C_9  and  C_10
REMARK                            x       y       z     vdW  Elec       q    Type
REMARK                         _______ _______ _______ _____ _____    ______ ____
ROOT
ATOM      1  C   UNL     1       2.780   7.369  18.106  0.00  0.00    +0.000 A 
ATOM      2  N   UNL     1       2.380   6.143  18.491  0.00  0.00    +0.000 NA
ATOM      3  C   UNL     1       3.038   5.034  18.078  0.00  0.00    +0.000 A 
ATOM      4  N   UNL     1       2.635   3.753  18.526  0.00  0.00    +0.000 N 
ATOM      5  C   UNL     1       1.198   3.687  18.907  0.00  0.00    +0.000 C 
ATOM      6  C   UNL     1       0.964   3.762  20.437  0.00  0.00    +0.000 C 
ATOM      7  C   UNL     1       1.118   2.394  21.122  0.00  0.00    +0.000 C 
ATOM      8  C   UNL     1       2.502   2.457  21.751  0.00  0.00    +0.000 C 
ATOM      9  C   UNL     1       3.129   3.637  21.027  0.00  0.00    +0.000 C 
ATOM     10  C   UNL     1       3.560   3.258  19.577  0.00  0.00    +0.000 C 
ATOM     11  O   UNL     1       2.014   4.555  21.029  0.00  0.00    +0.000 OA
ATOM     12  C   UNL     1       4.110   5.241  17.188  0.00  0.00    +0.000 A 
ATOM     13  S   UNL     1       5.161   4.110  16.415  0.00  0.00    +0.000 S 
ATOM     14  C   UNL     1       6.023   5.341  15.606  0.00  0.00    +0.000 A 
ATOM     15  C   UNL     1       5.528   6.589  15.895  0.00  0.00    +0.000 A 
ATOM     16  C   UNL     1       4.434   6.538  16.805  0.00  0.00    +0.000 A 
ATOM     17  N   UNL     1       3.781   7.631  17.259  0.00  0.00    +0.000 NA
ENDROOT
BRANCH   1  21
ATOM     18  C   UNL     1       0.670  10.736  19.806  0.00  0.00    +0.000 A 
ATOM     19  C   UNL     1       1.234  10.811  18.533  0.00  0.00    +0.000 A 
ATOM     20  C   UNL     1       1.928   9.725  17.991  0.00  0.00    +0.000 A 
ATOM     21  C   UNL     1       2.088   8.526  18.706  0.00  0.00    +0.000 A 
ATOM     22  C   UNL     1       1.535   8.476  20.001  0.00  0.00    +0.000 A 
ATOM     23  C   UNL     1       0.845   9.567  20.549  0.00  0.00    +0.000 A 
BRANCH  18  28
ATOM     24  C   UNL     1      -3.135  13.689  20.579  0.00  0.00    +0.000 C 
ATOM     25  N   UNL     1      -1.776  13.242  20.766  0.00  0.00    +0.000 N 
ATOM     26  C   UNL     1      -1.378  12.097  20.107  0.00  0.00    +0.000 C 
ATOM     27  O   UNL     1      -2.145  11.452  19.404  0.00  0.00    +0.000 OA
ATOM     28  N   UNL     1      -0.061  11.794  20.381  0.00  0.00    +0.000 N 
ATOM     29  H   UNL     1      -1.065  13.956  20.842  0.00  0.00    +0.000 HD
ATOM     30  H   UNL     1       0.307  12.201  21.229  0.00  0.00    +0.000 HD
ENDBRANCH  18  28
ENDBRANCH   1  21
TORSDOF 2
ENDMDL
MODEL 5
REMARK VINA RESULT:      -8.1      1.557      1.619
REMARK  Name = 
REMARK  3 active torsions:
REMARK  status: ('A' for Active; 'I' for Inactive)
REMARK    1  A    between atoms: C_1  and  N_2
REMARK    2  A    between atoms: N_5  and  C_6
REMARK    3  A    between atoms: C_9  and  C_10
REMARK                            x       y       z     vdW  Elec       q    Type
REMARK                         _______ _______ _______ _____ _____    ______ ____
ROOT
ATOM      1  C   UNL     1       2.201   6.274  19.835  0.00  0.00    +0.000 A 
ATOM      2  N   UNL     1       3.428   6.020  19.344  0.00  0.00    +0.000 NA
ATOM      3  C   UNL     1       3.803   4.759  19.024  0.00  0.00    +0.000 A 
ATOM      4  N   UNL     1       5.081   4.510  18.467  0.00  0.00    +0.000 N 
ATOM      5  C   UNL     1       6.095   5.535  18.838  0.00  0.00    +0.000 C 
ATOM      6  C   UNL     1       6.348   6.581  17.723  0.00  0.00    +0.000 C 
ATOM      7  C   UNL     1       7.357   6.088  16.673  0.00  0.00    +0.000 C 
ATOM      8  C   UNL     1       6.484   5.664  15.501  0.00  0.00    +0.000 C 
ATOM      9  C   UNL     1       5.110   5.567  16.144  0.00  0.00    +0.000 C 
ATOM     10  C   UNL     1       4.970   4.274  17.006  0.00  0.00    +0.000 C 
ATOM     11  O   UNL     1       5.131   6.754  16.966  0.00  0.00    +0.000 OA
ATOM     12  C   UNL     1       2.865   3.744  19.292  0.00  0.00    +0.000 A 
ATOM     13  S   UNL     1       2.966   2.034  19.068  0.00  0.00    +0.000 S 
ATOM     14  C   UNL     1       1.395   1.779  19.682  0.00  0.00    +0.000 A 
ATOM     15  C   UNL     1       0.796   2.955  20.064  0.00  0.00    +0.000 A 
ATOM     16  C   UNL     1       1.633   4.085  19.839  0.00  0.00    +0.000 A 
ATOM     17  N   UNL     1       1.271   5.357  20.118  0.00  0.00    +0.000 NA
ENDROOT
BRANCH   1  21
ATOM     18  C   UNL     1       1.026  10.399  20.371  0.00  0.00    +0.000 A 
ATOM     19  C   UNL     1       1.421   9.921  19.121  0.00  0.00    +0.000 A 
ATOM     20  C   UNL     1       1.814   8.590  18.954  0.00  0.00    +0.000 A 
ATOM     21  C   UNL     1       1.831   7.689  20.032  0.00  0.00    +0.000 A 
ATOM     22  C   UNL     1       1.454   8.194  21.292  0.00  0.00    +0.000 A 
ATOM     23  C   UNL     1       1.068   9.531  21.464  0.00  0.00    +0.000 A 
BRANCH  18  28
ATOM     24  C   UNL     1      -2.067  14.169  20.493  0.00  0.00    +0.000 C 
ATOM     25  N   UNL     1      -0.773  13.543  20.622  0.00  0.00    +0.000 N 
ATOM     26  C   UNL     1      -0.696  12.179  20.425  0.00  0.00    +0.000 C 
ATOM     27  O   UNL     1      -1.684  11.501  20.176  0.00  0.00    +0.000 OA
ATOM     28  N   UNL     1       0.597  11.724  20.581  0.00  0.00    +0.000 N 
ATOM     29  H   UNL     1       0.024  14.065  20.287  0.00  0.00    +0.000 HD
ATOM     30  H   UNL     1       1.202  12.325  21.120  0.00  0.00    +0.000 HD
ENDBRANCH  18  28
ENDBRANCH   1  21
TORSDOF 2
ENDMDL
MODEL 6
REMARK VINA RESULT:      -8.0      1.255      1.544
REMARK  Name = 
REMARK  3 active torsions:
REMARK  status: ('A' for Active; 'I' for Inactive)
REMARK    1  A    between atoms: C_1  and  N_2
REMARK    2  A    between atoms: N_5  and  C_6
REMARK    3  A    between atoms: C_9  and  C_10
REMARK                            x       y       z     vdW  Elec       q    Type
REMARK                         _______ _______ _______ _____ _____    ______ ____
ROOT
ATOM      1  C   UNL     1       2.470   6.090  18.981  0.00  0.00    +0.000 A 
ATOM      2  N   UNL     1       3.677   5.776  18.475  0.00  0.00    +0.000 NA
ATOM      3  C   UNL     1       4.046   4.484  18.303  0.00  0.00    +0.000 A 
ATOM      4  N   UNL     1       5.301   4.167  17.729  0.00  0.00    +0.000 N 
ATOM      5  C   UNL     1       6.324   5.231  17.924  0.00  0.00    +0.000 C 
ATOM      6  C   UNL     1       6.524   6.127  16.675  0.00  0.00    +0.000 C 
ATOM      7  C   UNL     1       7.492   5.505  15.655  0.00  0.00    +0.000 C 
ATOM      8  C   UNL     1       6.572   4.935  14.585  0.00  0.00    +0.000 C 
ATOM      9  C   UNL     1       5.228   4.920  15.292  0.00  0.00    +0.000 C 
ATOM     10  C   UNL     1       5.131   3.747  16.315  0.00  0.00    +0.000 C 
ATOM     11  O   UNL     1       5.275   6.202  15.954  0.00  0.00    +0.000 OA
ATOM     12  C   UNL     1       3.125   3.511  18.737  0.00  0.00    +0.000 A 
ATOM     13  S   UNL     1       3.227   1.787  18.728  0.00  0.00    +0.000 S 
ATOM     14  C   UNL     1       1.684   1.611  19.435  0.00  0.00    +0.000 A 
ATOM     15  C   UNL     1       1.095   2.826  19.689  0.00  0.00    +0.000 A 
ATOM     16  C   UNL     1       1.915   3.918  19.288  0.00  0.00    +0.000 A 
ATOM     17  N   UNL     1       1.558   5.215  19.417  0.00  0.00    +0.000 NA
ENDROOT
BRANCH   1  21
ATOM     18  C   UNL     1       1.476  10.293  19.121  0.00  0.00    +0.000 A 
ATOM     19  C   UNL     1       1.324   9.482  20.245  0.00  0.00    +0.000 A 
ATOM     20  C   UNL     1       1.633   8.119  20.193  0.00  0.00    +0.000 A 
ATOM     21  C   UNL     1       2.101   7.518  19.012  0.00  0.00    +0.000 A 
ATOM     22  C   UNL     1       2.224   8.346  17.879  0.00  0.00    +0.000 A 
ATOM     23  C   UNL     1       1.906   9.711  17.927  0.00  0.00    +0.000 A 
BRANCH  18  28
ATOM     24  C   UNL     1      -1.131  14.367  19.756  0.00  0.00    +0.000 C 
ATOM     25  N   UNL     1       0.038  13.619  19.363  0.00  0.00    +0.000 N 
ATOM     26  C   UNL     1       0.023  12.252  19.555  0.00  0.00    +0.000 C 
ATOM     27  O   UNL     1      -0.931  11.678  20.065  0.00  0.00    +0.000 OA
ATOM     28  N   UNL     1       1.203  11.675  19.135  0.00  0.00    +0.000 N 
ATOM     29  H   UNL     1       0.518  13.924  18.528  0.00  0.00    +0.000 HD
ATOM     30  H   UNL     1       1.993  12.302  19.080  0.00  0.00    +0.000 HD
ENDBRANCH  18  28
ENDBRANCH   1  21
TORSDOF 2
ENDMDL
MODEL 7
REMARK VINA RESULT:      -7.9      2.558      4.511
REMARK  Name = 
REMARK  3 active torsions:
REMARK  status: ('A' for Active; 'I' for Inactive)
REMARK    1  A    between atoms: C_1  and  N_2
REMARK    2  A    between atoms: N_5  and  C_6
REMARK    3  A    between atoms: C_9  and  C_10
REMARK                            x       y       z     vdW  Elec       q    Type
REMARK                         _______ _______ _______ _____ _____    ______ ____
ROOT
ATOM      1  C   UNL     1       2.726   7.492  18.198  0.00  0.00    +0.000 A 
ATOM      2  N   UNL     1       2.398   6.218  18.486  0.00  0.00    +0.000 NA
ATOM      3  C   UNL     1       3.283   5.211  18.294  0.00  0.00    +0.000 A 
ATOM      4  N   UNL     1       2.941   3.882  18.643  0.00  0.00    +0.000 N 
ATOM      5  C   UNL     1       1.476   3.623  18.618  0.00  0.00    +0.000 C 
ATOM      6  C   UNL     1       0.824   3.645  20.024  0.00  0.00    +0.000 C 
ATOM      7  C   UNL     1       0.960   2.300  20.755  0.00  0.00    +0.000 C 
ATOM      8  C   UNL     1       2.099   2.535  21.737  0.00  0.00    +0.000 C 
ATOM      9  C   UNL     1       2.741   3.797  21.186  0.00  0.00    +0.000 C 
ATOM     10  C   UNL     1       3.599   3.497  19.918  0.00  0.00    +0.000 C 
ATOM     11  O   UNL     1       1.560   4.561  20.862  0.00  0.00    +0.000 OA
ATOM     12  C   UNL     1       4.520   5.569  17.727  0.00  0.00    +0.000 A 
ATOM     13  S   UNL     1       5.881   4.595  17.296  0.00  0.00    +0.000 S 
ATOM     14  C   UNL     1       6.764   5.940  16.726  0.00  0.00    +0.000 A 
ATOM     15  C   UNL     1       6.052   7.108  16.841  0.00  0.00    +0.000 A 
ATOM     16  C   UNL     1       4.766   6.902  17.418  0.00  0.00    +0.000 A 
ATOM     17  N   UNL     1       3.878   7.893  17.651  0.00  0.00    +0.000 NA
ENDROOT
BRANCH   1  21
ATOM     18  C   UNL     1      -0.203  10.494  19.240  0.00  0.00    +0.000 A 
ATOM     19  C   UNL     1       0.054  10.173  17.907  0.00  0.00    +0.000 A 
ATOM     20  C   UNL     1       1.012   9.211  17.573  0.00  0.00    +0.000 A 
ATOM     21  C   UNL     1       1.752   8.539  18.560  0.00  0.00    +0.000 A 
ATOM     22  C   UNL     1       1.499   8.893  19.900  0.00  0.00    +0.000 A 
ATOM     23  C   UNL     1       0.545   9.864  20.237  0.00  0.00    +0.000 A 
BRANCH  18  28
ATOM     24  C   UNL     1      -4.519  12.766  19.249  0.00  0.00    +0.000 C 
ATOM     25  N   UNL     1      -3.148  12.576  19.656  0.00  0.00    +0.000 N 
ATOM     26  C   UNL     1      -2.471  11.486  19.149  0.00  0.00    +0.000 C 
ATOM     27  O   UNL     1      -3.006  10.680  18.399  0.00  0.00    +0.000 OA
ATOM     28  N   UNL     1      -1.177  11.435  19.625  0.00  0.00    +0.000 N 
ATOM     29  H   UNL     1      -2.586  13.407  19.773  0.00  0.00    +0.000 HD
ATOM     30  H   UNL     1      -1.014  11.945  20.481  0.00  0.00    +0.000 HD
ENDBRANCH  18  28
ENDBRANCH   1  21
TORSDOF 2
ENDMDL
