MODEL 1
REMARK VINA RESULT:      -6.6      0.000      0.000
REMARK  Name = 
REMARK  7 active torsions:
REMARK  status: ('A' for Active; 'I' for Inactive)
REMARK    1  A    between atoms: C_1  and  C_2
REMARK    2  A    between atoms: C_5  and  C_6
REMARK    3  A    between atoms: C_7  and  C_8
REMARK    4  A    between atoms: C_9  and  O_10
REMARK    5  A    between atoms: O_10  and  C_11
REMARK    6  A    between atoms: C_11  and  C_13
REMARK    7  A    between atoms: C_13  and  C_14
REMARK                            x       y       z     vdW  Elec       q    Type
REMARK                         _______ _______ _______ _____ _____    ______ ____
ROOT
ATOM      1  C   UNL     1      -1.616  15.000  20.797  0.00  0.00    +0.000 C 
ATOM      2  C   UNL     1      -0.865  14.771  19.705  0.00  0.00    +0.000 C 
ATOM      3  C   UNL     1       0.057  15.945  19.374  0.00  0.00    +0.000 C 
ATOM      4  C   UNL     1      -0.317  16.662  18.062  0.00  0.00    +0.000 C 
ATOM      5  C   UNL     1       0.627  17.787  17.690  0.00  0.00    +0.000 C 
ATOM      6  C   UNL     1       2.059  17.342  17.840  0.00  0.00    +0.000 C 
ATOM      7  O   UNL     1       2.881  17.484  16.944  0.00  0.00    +0.000 OA
ATOM      8  C   UNL     1       2.449  16.817  19.202  0.00  0.00    +0.000 C 
ATOM      9  C   UNL     1       1.558  15.636  19.585  0.00  0.00    +0.000 C 
ATOM     10  N   UNL     1      -0.316  16.857  20.439  0.00  0.00    +0.000 N 
ATOM     11  C   UNL     1      -1.212  16.330  21.329  0.00  0.00    +0.000 C 
ATOM     12  O   UNL     1      -1.573  16.862  22.344  0.00  0.00    +0.000 OA
ATOM     13  H   UNL     1       0.085  17.769  20.626  0.00  0.00    +0.000 HD
ENDROOT
BRANCH   1  20
ATOM     14  C   UNL     1      -6.352  13.494  20.658  0.00  0.00    +0.000 C 
ATOM     15  C   UNL     1      -5.002  13.455  21.309  0.00  0.00    +0.000 A 
ATOM     16  C   UNL     1      -4.763  12.634  22.414  0.00  0.00    +0.000 A 
ATOM     17  C   UNL     1      -3.499  12.594  23.004  0.00  0.00    +0.000 A 
ATOM     18  C   UNL     1      -2.449  13.380  22.511  0.00  0.00    +0.000 A 
ATOM     19  C   UNL     1      -1.102  13.287  23.180  0.00  0.00    +0.000 C 
ATOM     20  C   UNL     1      -2.685  14.210  21.391  0.00  0.00    +0.000 A 
ATOM     21  C   UNL     1      -3.956  14.234  20.799  0.00  0.00    +0.000 A 
ENDBRANCH   1  20
BRANCH   2  22
ATOM     22  O   UNL     1      -0.888  13.553  18.957  0.00  0.00    +0.000 OA
BRANCH  22  23
ATOM     23  C   UNL     1      -0.332  12.391  19.470  0.00  0.00    +0.000 C 
ATOM     24  O   UNL     1       0.839  12.193  19.688  0.00  0.00    +0.000 OA
BRANCH  23  25
ATOM     25  C   UNL     1      -1.367  11.320  19.763  0.00  0.00    +0.000 C 
BRANCH  25  26
ATOM     26  C   UNL     1      -2.200  10.998  18.536  0.00  0.00    +0.000 A 
ATOM     27  C   UNL     1      -1.640  10.218  17.511  0.00  0.00    +0.000 A 
ATOM     28  C   UNL     1      -2.335  10.005  16.320  0.00  0.00    +0.000 A 
ATOM     29  C   UNL     1      -3.597  10.556  16.154  0.00  0.00    +0.000 A 
ATOM     30  F   UNL     1      -4.260  10.357  15.007  0.00  0.00    +0.000 F 
ATOM     31  C   UNL     1      -4.174  11.327  17.157  0.00  0.00    +0.000 A 
ATOM     32  C   UNL     1      -3.474  11.553  18.349  0.00  0.00    +0.000 A 
ENDBRANCH  25  26
ENDBRANCH  23  25
ENDBRANCH  22  23
ENDBRANCH   2  22
TORSDOF 5
ENDMDL
MODEL 2
REMARK VINA RESULT:      -6.6      3.247      4.539
REMARK  Name = 
REMARK  7 active torsions:
REMARK  status: ('A' for Active; 'I' for Inactive)
REMARK    1  A    between atoms: C_1  and  C_2
REMARK    2  A    between atoms: C_5  and  C_6
REMARK    3  A    between atoms: C_7  and  C_8
REMARK    4  A    between atoms: C_9  and  O_10
REMARK    5  A    between atoms: O_10  and  C_11
REMARK    6  A    between atoms: C_11  and  C_13
REMARK    7  A    between atoms: C_13  and  C_14
REMARK                            x       y       z     vdW  Elec       q    Type
REMARK                         _______ _______ _______ _____ _____    ______ ____
ROOT
ATOM      1  C   UNL     1       0.072  13.559  19.056  0.00  0.00    +0.000 C 
ATOM      2  C   UNL     1       1.277  13.068  19.398  0.00  0.00    +0.000 C 
ATOM      3  C   UNL     1       2.364  14.143  19.406  0.00  0.00    +0.000 C 
ATOM      4  C   UNL     1       3.419  13.949  18.300  0.00  0.00    +0.000 C 
ATOM      5  C   UNL     1       4.538  14.970  18.336  0.00  0.00    +0.000 C 
ATOM      6  C   UNL     1       5.048  15.142  19.745  0.00  0.00    +0.000 C 
ATOM      7  O   UNL     1       6.239  15.070  20.018  0.00  0.00    +0.000 OA
ATOM      8  C   UNL     1       4.016  15.520  20.780  0.00  0.00    +0.000 C 
ATOM      9  C   UNL     1       2.901  14.476  20.818  0.00  0.00    +0.000 C 
ATOM     10  N   UNL     1       1.576  15.291  18.998  0.00  0.00    +0.000 N 
ATOM     11  C   UNL     1       0.240  15.025  18.864  0.00  0.00    +0.000 C 
ATOM     12  O   UNL     1      -0.609  15.845  18.646  0.00  0.00    +0.000 OA
ATOM     13  H   UNL     1       1.899  16.248  18.904  0.00  0.00    +0.000 HD
ENDROOT
BRANCH   1  20
ATOM     14  C   UNL     1      -2.695  10.645  16.128  0.00  0.00    +0.000 C 
ATOM     15  C   UNL     1      -2.542  11.431  17.396  0.00  0.00    +0.000 A 
ATOM     16  C   UNL     1      -3.560  11.455  18.352  0.00  0.00    +0.000 A 
ATOM     17  C   UNL     1      -3.401  12.178  19.535  0.00  0.00    +0.000 A 
ATOM     18  C   UNL     1      -2.228  12.901  19.785  0.00  0.00    +0.000 A 
ATOM     19  C   UNL     1      -2.107  13.653  21.085  0.00  0.00    +0.000 C 
ATOM     20  C   UNL     1      -1.193  12.878  18.822  0.00  0.00    +0.000 A 
ATOM     21  C   UNL     1      -1.359  12.140  17.642  0.00  0.00    +0.000 A 
ENDBRANCH   1  20
BRANCH   2  22
ATOM     22  O   UNL     1       1.514  11.705  19.759  0.00  0.00    +0.000 OA
BRANCH  22  23
ATOM     23  C   UNL     1       0.846  11.124  20.826  0.00  0.00    +0.000 C 
ATOM     24  O   UNL     1       0.742  11.580  21.939  0.00  0.00    +0.000 OA
BRANCH  23  25
ATOM     25  C   UNL     1       0.210   9.793  20.469  0.00  0.00    +0.000 C 
BRANCH  25  26
ATOM     26  C   UNL     1       1.181   8.890  19.732  0.00  0.00    +0.000 A 
ATOM     27  C   UNL     1       1.468   9.147  18.381  0.00  0.00    +0.000 A 
ATOM     28  C   UNL     1       2.261   8.268  17.644  0.00  0.00    +0.000 A 
ATOM     29  C   UNL     1       2.784   7.138  18.256  0.00  0.00    +0.000 A 
ATOM     30  F   UNL     1       3.540   6.291  17.543  0.00  0.00    +0.000 F 
ATOM     31  C   UNL     1       2.519   6.866  19.592  0.00  0.00    +0.000 A 
ATOM     32  C   UNL     1       1.713   7.740  20.333  0.00  0.00    +0.000 A 
ENDBRANCH  25  26
ENDBRANCH  23  25
ENDBRANCH  22  23
ENDBRANCH   2  22
TORSDOF 5
ENDMDL
MODEL 3
REMARK VINA RESULT:      -6.6      3.188      6.429
REMARK  Name = 
REMARK  7 active torsions:
REMARK  status: ('A' for Active; 'I' for Inactive)
REMARK    1  A    between atoms: C_1  and  C_2
REMARK    2  A    between atoms: C_5  and  C_6
REMARK    3  A    between atoms: C_7  and  C_8
REMARK    4  A    between atoms: C_9  and  O_10
REMARK    5  A    between atoms: O_10  and  C_11
REMARK    6  A    between atoms: C_11  and  C_13
REMARK    7  A    between atoms: C_13  and  C_14
REMARK                            x       y       z     vdW  Elec       q    Type
REMARK                         _______ _______ _______ _____ _____    ______ ____
ROOT
ATOM      1  C   UNL     1      -0.913  13.659  20.925  0.00  0.00    +0.000 C 
ATOM      2  C   UNL     1      -1.658  12.633  21.374  0.00  0.00    +0.000 C 
ATOM      3  C   UNL     1      -2.888  13.101  22.153  0.00  0.00    +0.000 C 
ATOM      4  C   UNL     1      -2.829  12.751  23.652  0.00  0.00    +0.000 C 
ATOM      5  C   UNL     1      -4.069  13.153  24.423  0.00  0.00    +0.000 C 
ATOM      6  C   UNL     1      -5.311  12.739  23.673  0.00  0.00    +0.000 C 
ATOM      7  O   UNL     1      -6.209  12.100  24.206  0.00  0.00    +0.000 OA
ATOM      8  C   UNL     1      -5.433  13.257  22.260  0.00  0.00    +0.000 C 
ATOM      9  C   UNL     1      -4.227  12.815  21.432  0.00  0.00    +0.000 C 
ATOM     10  N   UNL     1      -2.693  14.537  22.078  0.00  0.00    +0.000 N 
ATOM     11  C   UNL     1      -1.619  14.910  21.316  0.00  0.00    +0.000 C 
ATOM     12  O   UNL     1      -1.337  16.040  21.025  0.00  0.00    +0.000 OA
ATOM     13  H   UNL     1      -3.310  15.254  22.442  0.00  0.00    +0.000 HD
ENDROOT
BRANCH   1  20
ATOM     14  C   UNL     1       4.014  14.271  21.186  0.00  0.00    +0.000 C 
ATOM     15  C   UNL     1       2.793  13.944  20.379  0.00  0.00    +0.000 A 
ATOM     16  C   UNL     1       2.898  13.593  19.031  0.00  0.00    +0.000 A 
ATOM     17  C   UNL     1       1.756  13.276  18.293  0.00  0.00    +0.000 A 
ATOM     18  C   UNL     1       0.485  13.313  18.881  0.00  0.00    +0.000 A 
ATOM     19  C   UNL     1      -0.710  12.949  18.039  0.00  0.00    +0.000 C 
ATOM     20  C   UNL     1       0.374  13.665  20.246  0.00  0.00    +0.000 A 
ATOM     21  C   UNL     1       1.529  13.971  20.981  0.00  0.00    +0.000 A 
ENDBRANCH   1  20
BRANCH   2  22
ATOM     22  O   UNL     1      -1.364  11.257  21.119  0.00  0.00    +0.000 OA
BRANCH  22  23
ATOM     23  C   UNL     1      -0.439  10.571  21.891  0.00  0.00    +0.000 C 
ATOM     24  O   UNL     1       0.249  11.038  22.768  0.00  0.00    +0.000 OA
BRANCH  23  25
ATOM     25  C   UNL     1      -0.351   9.098  21.538  0.00  0.00    +0.000 C 
BRANCH  25  26
ATOM     26  C   UNL     1       0.670   8.845  20.446  0.00  0.00    +0.000 A 
ATOM     27  C   UNL     1       0.700   9.691  19.324  0.00  0.00    +0.000 A 
ATOM     28  C   UNL     1       1.545   9.415  18.250  0.00  0.00    +0.000 A 
ATOM     29  C   UNL     1       2.375   8.303  18.297  0.00  0.00    +0.000 A 
ATOM     30  F   UNL     1       3.181   8.036  17.260  0.00  0.00    +0.000 F 
ATOM     31  C   UNL     1       2.367   7.456  19.398  0.00  0.00    +0.000 A 
ATOM     32  C   UNL     1       1.511   7.723  20.474  0.00  0.00    +0.000 A 
ENDBRANCH  25  26
ENDBRANCH  23  25
ENDBRANCH  22  23
ENDBRANCH   2  22
TORSDOF 5
ENDMDL
MODEL 4
REMARK VINA RESULT:      -6.5      2.755      3.773
REMARK  Name = 
REMARK  7 active torsions:
REMARK  status: ('A' for Active; 'I' for Inactive)
REMARK    1  A    between atoms: C_1  and  C_2
REMARK    2  A    between atoms: C_5  and  C_6
REMARK    3  A    between atoms: C_7  and  C_8
REMARK    4  A    between atoms: C_9  and  O_10
REMARK    5  A    between atoms: O_10  and  C_11
REMARK    6  A    between atoms: C_11  and  C_13
REMARK    7  A    between atoms: C_13  and  C_14
REMARK                            x       y       z     vdW  Elec       q    Type
REMARK                         _______ _______ _______ _____ _____    ______ ____
ROOT
ATOM      1  C   UNL     1      -0.025  14.138  20.924  0.00  0.00    +0.000 C 
ATOM      2  C   UNL     1       0.056  14.303  19.591  0.00  0.00    +0.000 C 
ATOM      3  C   UNL     1       0.986  15.453  19.201  0.00  0.00    +0.000 C 
ATOM      4  C   UNL     1       0.246  16.644  18.562  0.00  0.00    +0.000 C 
ATOM      5  C   UNL     1       1.163  17.762  18.112  0.00  0.00    +0.000 C 
ATOM      6  C   UNL     1       2.340  17.204  17.354  0.00  0.00    +0.000 C 
ATOM      7  O   UNL     1       2.665  17.629  16.253  0.00  0.00    +0.000 OA
ATOM      8  C   UNL     1       3.165  16.169  18.082  0.00  0.00    +0.000 C 
ATOM      9  C   UNL     1       2.283  14.991  18.496  0.00  0.00    +0.000 C 
ATOM     10  N   UNL     1       1.386  15.902  20.521  0.00  0.00    +0.000 N 
ATOM     11  C   UNL     1       0.898  15.130  21.540  0.00  0.00    +0.000 C 
ATOM     12  O   UNL     1       1.191  15.248  22.698  0.00  0.00    +0.000 OA
ATOM     13  H   UNL     1       2.044  16.643  20.736  0.00  0.00    +0.000 HD
ENDROOT
BRANCH   1  20
ATOM     14  C   UNL     1      -0.533   9.815  23.326  0.00  0.00    +0.000 C 
ATOM     15  C   UNL     1      -1.103  11.138  22.913  0.00  0.00    +0.000 A 
ATOM     16  C   UNL     1      -2.377  11.532  23.331  0.00  0.00    +0.000 A 
ATOM     17  C   UNL     1      -2.892  12.773  22.953  0.00  0.00    +0.000 A 
ATOM     18  C   UNL     1      -2.153  13.643  22.140  0.00  0.00    +0.000 A 
ATOM     19  C   UNL     1      -2.755  14.974  21.774  0.00  0.00    +0.000 C 
ATOM     20  C   UNL     1      -0.863  13.250  21.716  0.00  0.00    +0.000 A 
ATOM     21  C   UNL     1      -0.350  12.006  22.111  0.00  0.00    +0.000 A 
ENDBRANCH   1  20
BRANCH   2  22
ATOM     22  O   UNL     1      -0.615  13.474  18.639  0.00  0.00    +0.000 OA
BRANCH  22  23
ATOM     23  C   UNL     1      -0.356  12.114  18.571  0.00  0.00    +0.000 C 
ATOM     24  O   UNL     1      -1.177  11.233  18.475  0.00  0.00    +0.000 OA
BRANCH  23  25
ATOM     25  C   UNL     1       1.126  11.791  18.621  0.00  0.00    +0.000 C 
BRANCH  25  26
ATOM     26  C   UNL     1       1.368  10.307  18.821  0.00  0.00    +0.000 A 
ATOM     27  C   UNL     1       1.102   9.730  20.074  0.00  0.00    +0.000 A 
ATOM     28  C   UNL     1       1.426   8.397  20.324  0.00  0.00    +0.000 A 
ATOM     29  C   UNL     1       2.001   7.630  19.321  0.00  0.00    +0.000 A 
ATOM     30  F   UNL     1       2.319   6.351  19.567  0.00  0.00    +0.000 F 
ATOM     31  C   UNL     1       2.268   8.178  18.072  0.00  0.00    +0.000 A 
ATOM     32  C   UNL     1       1.956   9.520  17.821  0.00  0.00    +0.000 A 
ENDBRANCH  25  26
ENDBRANCH  23  25
ENDBRANCH  22  23
ENDBRANCH   2  22
TORSDOF 5
ENDMDL
MODEL 5
REMARK VINA RESULT:      -6.2      4.084      8.007
REMARK  Name = 
REMARK  7 active torsions:
REMARK  status: ('A' for Active; 'I' for Inactive)
REMARK    1  A    between atoms: C_1  and  C_2
REMARK    2  A    between atoms: C_5  and  C_6
REMARK    3  A    between atoms: C_7  and  C_8
REMARK    4  A    between atoms: C_9  and  O_10
REMARK    5  A    between atoms: O_10  and  C_11
REMARK    6  A    between atoms: C_11  and  C_13
REMARK    7  A    between atoms: C_13  and  C_14
REMARK                            x       y       z     vdW  Elec       q    Type
REMARK                         _______ _______ _______ _____ _____    ______ ____
ROOT
ATOM      1  C   UNL     1       1.060  13.797  19.380  0.00  0.00    +0.000 C 
ATOM      2  C   UNL     1       1.405  13.240  20.554  0.00  0.00    +0.000 C 
ATOM      3  C   UNL     1       0.442  12.131  20.981  0.00  0.00    +0.000 C 
ATOM      4  C   UNL     1      -0.381  12.488  22.233  0.00  0.00    +0.000 C 
ATOM      5  C   UNL     1      -1.293  11.373  22.703  0.00  0.00    +0.000 C 
ATOM      6  C   UNL     1      -0.550  10.061  22.725  0.00  0.00    +0.000 C 
ATOM      7  O   UNL     1      -0.545   9.334  23.710  0.00  0.00    +0.000 OA
ATOM      8  C   UNL     1       0.091   9.643  21.423  0.00  0.00    +0.000 C 
ATOM      9  C   UNL     1       1.069  10.717  20.949  0.00  0.00    +0.000 C 
ATOM     10  N   UNL     1      -0.491  12.179  19.871  0.00  0.00    +0.000 N 
ATOM     11  C   UNL     1      -0.136  13.061  18.887  0.00  0.00    +0.000 C 
ATOM     12  O   UNL     1      -0.698  13.183  17.832  0.00  0.00    +0.000 OA
ATOM     13  H   UNL     1      -1.291  11.573  19.724  0.00  0.00    +0.000 HD
ENDROOT
BRANCH   1  20
ATOM     14  C   UNL     1       0.745  18.605  18.154  0.00  0.00    +0.000 C 
ATOM     15  C   UNL     1       1.482  17.300  18.090  0.00  0.00    +0.000 A 
ATOM     16  C   UNL     1       2.705  17.200  17.424  0.00  0.00    +0.000 A 
ATOM     17  C   UNL     1       3.390  15.984  17.383  0.00  0.00    +0.000 A 
ATOM     18  C   UNL     1       2.862  14.840  17.995  0.00  0.00    +0.000 A 
ATOM     19  C   UNL     1       3.651  13.558  17.929  0.00  0.00    +0.000 C 
ATOM     20  C   UNL     1       1.625  14.937  18.672  0.00  0.00    +0.000 A 
ATOM     21  C   UNL     1       0.952  16.166  18.717  0.00  0.00    +0.000 A 
ENDBRANCH   1  20
BRANCH   2  22
ATOM     22  O   UNL     1       2.565  13.608  21.306  0.00  0.00    +0.000 OA
BRANCH  22  23
ATOM     23  C   UNL     1       2.587  14.773  22.058  0.00  0.00    +0.000 C 
ATOM     24  O   UNL     1       1.628  15.424  22.396  0.00  0.00    +0.000 OA
BRANCH  23  25
ATOM     25  C   UNL     1       3.990  15.192  22.456  0.00  0.00    +0.000 C 
BRANCH  25  26
ATOM     26  C   UNL     1       4.745  15.795  21.287  0.00  0.00    +0.000 A 
ATOM     27  C   UNL     1       5.705  15.019  20.615  0.00  0.00    +0.000 A 
ATOM     28  C   UNL     1       6.500  15.580  19.616  0.00  0.00    +0.000 A 
ATOM     29  C   UNL     1       6.329  16.914  19.272  0.00  0.00    +0.000 A 
ATOM     30  F   UNL     1       7.099  17.453  18.317  0.00  0.00    +0.000 F 
ATOM     31  C   UNL     1       5.382  17.699  19.919  0.00  0.00    +0.000 A 
ATOM     32  C   UNL     1       4.591  17.142  20.931  0.00  0.00    +0.000 A 
ENDBRANCH  25  26
ENDBRANCH  23  25
ENDBRANCH  22  23
ENDBRANCH   2  22
TORSDOF 5
ENDMDL
MODEL 6
REMARK VINA RESULT:      -6.2      3.128      4.611
REMARK  Name = 
REMARK  7 active torsions:
REMARK  status: ('A' for Active; 'I' for Inactive)
REMARK    1  A    between atoms: C_1  and  C_2
REMARK    2  A    between atoms: C_5  and  C_6
REMARK    3  A    between atoms: C_7  and  C_8
REMARK    4  A    between atoms: C_9  and  O_10
REMARK    5  A    between atoms: O_10  and  C_11
REMARK    6  A    between atoms: C_11  and  C_13
REMARK    7  A    between atoms: C_13  and  C_14
REMARK                            x       y       z     vdW  Elec       q    Type
REMARK                         _______ _______ _______ _____ _____    ______ ____
ROOT
ATOM      1  C   UNL     1       0.228  13.715  18.971  0.00  0.00    +0.000 C 
ATOM      2  C   UNL     1       1.466  13.230  19.179  0.00  0.00    +0.000 C 
ATOM      3  C   UNL     1       2.535  14.322  19.143  0.00  0.00    +0.000 C 
ATOM      4  C   UNL     1       3.489  14.201  17.939  0.00  0.00    +0.000 C 
ATOM      5  C   UNL     1       4.592  15.239  17.926  0.00  0.00    +0.000 C 
ATOM      6  C   UNL     1       5.225  15.350  19.290  0.00  0.00    +0.000 C 
ATOM      7  O   UNL     1       6.437  15.287  19.451  0.00  0.00    +0.000 OA
ATOM      8  C   UNL     1       4.286  15.660  20.431  0.00  0.00    +0.000 C 
ATOM      9  C   UNL     1       3.193  14.595  20.516  0.00  0.00    +0.000 C 
ATOM     10  N   UNL     1       1.698  15.474  18.866  0.00  0.00    +0.000 N 
ATOM     11  C   UNL     1       0.360  15.192  18.838  0.00  0.00    +0.000 C 
ATOM     12  O   UNL     1      -0.517  16.006  18.739  0.00  0.00    +0.000 OA
ATOM     13  H   UNL     1       1.999  16.440  18.792  0.00  0.00    +0.000 HD
ENDROOT
BRANCH   1  20
ATOM     14  C   UNL     1      -2.710  10.810  16.207  0.00  0.00    +0.000 C 
ATOM     15  C   UNL     1      -2.476  11.581  17.471  0.00  0.00    +0.000 A 
ATOM     16  C   UNL     1      -3.424  11.582  18.496  0.00  0.00    +0.000 A 
ATOM     17  C   UNL     1      -3.189  12.292  19.675  0.00  0.00    +0.000 A 
ATOM     18  C   UNL     1      -2.007  13.024  19.852  0.00  0.00    +0.000 A 
ATOM     19  C   UNL     1      -1.802  13.761  21.150  0.00  0.00    +0.000 C 
ATOM     20  C   UNL     1      -1.043  13.024  18.818  0.00  0.00    +0.000 A 
ATOM     21  C   UNL     1      -1.285  12.299  17.642  0.00  0.00    +0.000 A 
ENDBRANCH   1  20
BRANCH   2  22
ATOM     22  O   UNL     1       1.753  11.855  19.448  0.00  0.00    +0.000 OA
BRANCH  22  23
ATOM     23  C   UNL     1       1.809  10.925  18.421  0.00  0.00    +0.000 C 
ATOM     24  O   UNL     1       2.464  11.013  17.411  0.00  0.00    +0.000 OA
BRANCH  23  25
ATOM     25  C   UNL     1       0.938   9.709  18.678  0.00  0.00    +0.000 C 
BRANCH  25  26
ATOM     26  C   UNL     1       0.668   9.518  20.159  0.00  0.00    +0.000 A 
ATOM     27  C   UNL     1      -0.416  10.187  20.752  0.00  0.00    +0.000 A 
ATOM     28  C   UNL     1      -0.619  10.127  22.130  0.00  0.00    +0.000 A 
ATOM     29  C   UNL     1       0.249   9.388  22.920  0.00  0.00    +0.000 A 
ATOM     30  F   UNL     1       0.056   9.339  24.246  0.00  0.00    +0.000 F 
ATOM     31  C   UNL     1       1.325   8.714  22.356  0.00  0.00    +0.000 A 
ATOM     32  C   UNL     1       1.540   8.781  20.973  0.00  0.00    +0.000 A 
ENDBRANCH  25  26
ENDBRANCH  23  25
ENDBRANCH  22  23
ENDBRANCH   2  22
TORSDOF 5
ENDMDL
MODEL 7
REMARK VINA RESULT:      -6.2      8.818     12.624
REMARK  Name = 
REMARK  7 active torsions:
REMARK  status: ('A' for Active; 'I' for Inactive)
REMARK    1  A    between atoms: C_1  and  C_2
REMARK    2  A    between atoms: C_5  and  C_6
REMARK    3  A    between atoms: C_7  and  C_8
REMARK    4  A    between atoms: C_9  and  O_10
REMARK    5  A    between atoms: O_10  and  C_11
REMARK    6  A    between atoms: C_11  and  C_13
REMARK    7  A    between atoms: C_13  and  C_14
REMARK                            x       y       z     vdW  Elec       q    Type
REMARK                         _______ _______ _______ _____ _____    ______ ____
ROOT
ATOM      1  C   UNL     1       4.716   3.351  17.396  0.00  0.00    +0.000 C 
ATOM      2  C   UNL     1       4.189   4.030  18.431  0.00  0.00    +0.000 C 
ATOM      3  C   UNL     1       3.306   3.152  19.318  0.00  0.00    +0.000 C 
ATOM      4  C   UNL     1       1.815   3.534  19.262  0.00  0.00    +0.000 C 
ATOM      5  C   UNL     1       0.938   2.713  20.185  0.00  0.00    +0.000 C 
ATOM      6  C   UNL     1       1.566   2.610  21.552  0.00  0.00    +0.000 C 
ATOM      7  O   UNL     1       0.946   2.875  22.573  0.00  0.00    +0.000 OA
ATOM      8  C   UNL     1       2.968   2.050  21.594  0.00  0.00    +0.000 C 
ATOM      9  C   UNL     1       3.898   2.894  20.724  0.00  0.00    +0.000 C 
ATOM     10  N   UNL     1       3.415   1.894  18.602  0.00  0.00    +0.000 N 
ATOM     11  C   UNL     1       4.277   1.936  17.539  0.00  0.00    +0.000 C 
ATOM     12  O   UNL     1       4.605   0.989  16.878  0.00  0.00    +0.000 OA
ATOM     13  H   UNL     1       3.004   1.006  18.867  0.00  0.00    +0.000 HD
ENDROOT
BRANCH   1  20
ATOM     14  C   UNL     1       5.129   3.998  12.484  0.00  0.00    +0.000 C 
ATOM     15  C   UNL     1       5.703   4.151  13.861  0.00  0.00    +0.000 A 
ATOM     16  C   UNL     1       6.935   4.779  14.057  0.00  0.00    +0.000 A 
ATOM     17  C   UNL     1       7.453   4.930  15.344  0.00  0.00    +0.000 A 
ATOM     18  C   UNL     1       6.759   4.449  16.462  0.00  0.00    +0.000 A 
ATOM     19  C   UNL     1       7.361   4.651  17.828  0.00  0.00    +0.000 C 
ATOM     20  C   UNL     1       5.510   3.815  16.268  0.00  0.00    +0.000 A 
ATOM     21  C   UNL     1       4.994   3.678  14.972  0.00  0.00    +0.000 A 
ENDBRANCH   1  20
BRANCH   2  22
ATOM     22  O   UNL     1       4.454   5.409  18.703  0.00  0.00    +0.000 OA
BRANCH  22  23
ATOM     23  C   UNL     1       3.994   6.404  17.854  0.00  0.00    +0.000 C 
ATOM     24  O   UNL     1       4.672   7.123  17.159  0.00  0.00    +0.000 OA
BRANCH  23  25
ATOM     25  C   UNL     1       2.481   6.528  17.855  0.00  0.00    +0.000 C 
BRANCH  25  26
ATOM     26  C   UNL     1       2.023   7.761  18.611  0.00  0.00    +0.000 A 
ATOM     27  C   UNL     1       1.792   7.674  19.994  0.00  0.00    +0.000 A 
ATOM     28  C   UNL     1       1.257   8.755  20.694  0.00  0.00    +0.000 A 
ATOM     29  C   UNL     1       0.966   9.932  20.021  0.00  0.00    +0.000 A 
ATOM     30  F   UNL     1       0.445  10.967  20.695  0.00  0.00    +0.000 F 
ATOM     31  C   UNL     1       1.191  10.044  18.654  0.00  0.00    +0.000 A 
ATOM     32  C   UNL     1       1.717   8.957  17.945  0.00  0.00    +0.000 A 
ENDBRANCH  25  26
ENDBRANCH  23  25
ENDBRANCH  22  23
ENDBRANCH   2  22
TORSDOF 5
ENDMDL
MODEL 8
REMARK VINA RESULT:      -6.2      3.911      6.467
REMARK  Name = 
REMARK  7 active torsions:
REMARK  status: ('A' for Active; 'I' for Inactive)
REMARK    1  A    between atoms: C_1  and  C_2
REMARK    2  A    between atoms: C_5  and  C_6
REMARK    3  A    between atoms: C_7  and  C_8
REMARK    4  A    between atoms: C_9  and  O_10
REMARK    5  A    between atoms: O_10  and  C_11
REMARK    6  A    between atoms: C_11  and  C_13
REMARK    7  A    between atoms: C_13  and  C_14
REMARK                            x       y       z     vdW  Elec       q    Type
REMARK                         _______ _______ _______ _____ _____    ______ ____
ROOT
ATOM      1  C   UNL     1       0.311   9.928  21.554  0.00  0.00    +0.000 C 
ATOM      2  C   UNL     1       0.163   9.153  20.464  0.00  0.00    +0.000 C 
ATOM      3  C   UNL     1       1.138   7.975  20.448  0.00  0.00    +0.000 C 
ATOM      4  C   UNL     1       2.191   8.072  19.329  0.00  0.00    +0.000 C 
ATOM      5  C   UNL     1       3.123   6.879  19.262  0.00  0.00    +0.000 C 
ATOM      6  C   UNL     1       2.340   5.594  19.353  0.00  0.00    +0.000 C 
ATOM      7  O   UNL     1       2.482   4.687  18.544  0.00  0.00    +0.000 OA
ATOM      8  C   UNL     1       1.453   5.445  20.567  0.00  0.00    +0.000 C 
ATOM      9  C   UNL     1       0.454   6.599  20.632  0.00  0.00    +0.000 C 
ATOM     10  N   UNL     1       1.853   8.233  21.684  0.00  0.00    +0.000 N 
ATOM     11  C   UNL     1       1.364   9.295  22.395  0.00  0.00    +0.000 C 
ATOM     12  O   UNL     1       1.727   9.618  23.493  0.00  0.00    +0.000 OA
ATOM     13  H   UNL     1       2.585   7.663  22.093  0.00  0.00    +0.000 HD
ENDROOT
BRANCH   1  20
ATOM     14  C   UNL     1      -3.358  12.308  23.917  0.00  0.00    +0.000 C 
ATOM     15  C   UNL     1      -2.111  12.357  23.087  0.00  0.00    +0.000 A 
ATOM     16  C   UNL     1      -1.540  13.578  22.722  0.00  0.00    +0.000 A 
ATOM     17  C   UNL     1      -0.370  13.612  21.961  0.00  0.00    +0.000 A 
ATOM     18  C   UNL     1       0.250  12.428  21.540  0.00  0.00    +0.000 A 
ATOM     19  C   UNL     1       1.517  12.525  20.732  0.00  0.00    +0.000 C 
ATOM     20  C   UNL     1      -0.323  11.189  21.910  0.00  0.00    +0.000 A 
ATOM     21  C   UNL     1      -1.492  11.167  22.683  0.00  0.00    +0.000 A 
ENDBRANCH   1  20
BRANCH   2  22
ATOM     22  O   UNL     1      -0.822   9.374  19.452  0.00  0.00    +0.000 OA
BRANCH  22  23
ATOM     23  C   UNL     1      -0.579  10.242  18.398  0.00  0.00    +0.000 C 
ATOM     24  O   UNL     1       0.459  10.815  18.168  0.00  0.00    +0.000 OA
BRANCH  23  25
ATOM     25  C   UNL     1      -1.784  10.425  17.494  0.00  0.00    +0.000 C 
BRANCH  25  26
ATOM     26  C   UNL     1      -2.957  11.028  18.243  0.00  0.00    +0.000 A 
ATOM     27  C   UNL     1      -4.265  10.698  17.850  0.00  0.00    +0.000 A 
ATOM     28  C   UNL     1      -5.363  11.326  18.439  0.00  0.00    +0.000 A 
ATOM     29  C   UNL     1      -5.160  12.273  19.433  0.00  0.00    +0.000 A 
ATOM     30  F   UNL     1      -6.216  12.881  19.991  0.00  0.00    +0.000 F 
ATOM     31  C   UNL     1      -3.875  12.612  19.841  0.00  0.00    +0.000 A 
ATOM     32  C   UNL     1      -2.770  11.992  19.243  0.00  0.00    +0.000 A 
ENDBRANCH  25  26
ENDBRANCH  23  25
ENDBRANCH  22  23
ENDBRANCH   2  22
TORSDOF 5
ENDMDL
MODEL 9
REMARK VINA RESULT:      -6.2      3.229      4.807
REMARK  Name = 
REMARK  7 active torsions:
REMARK  status: ('A' for Active; 'I' for Inactive)
REMARK    1  A    between atoms: C_1  and  C_2
REMARK    2  A    between atoms: C_5  and  C_6
REMARK    3  A    between atoms: C_7  and  C_8
REMARK    4  A    between atoms: C_9  and  O_10
REMARK    5  A    between atoms: O_10  and  C_11
REMARK    6  A    between atoms: C_11  and  C_13
REMARK    7  A    between atoms: C_13  and  C_14
REMARK                            x       y       z     vdW  Elec       q    Type
REMARK                         _______ _______ _______ _____ _____    ______ ____
ROOT
ATOM      1  C   UNL     1      -0.833  13.080  19.595  0.00  0.00    +0.000 C 
ATOM      2  C   UNL     1      -0.128  12.827  20.713  0.00  0.00    +0.000 C 
ATOM      3  C   UNL     1       1.018  13.818  20.918  0.00  0.00    +0.000 C 
ATOM      4  C   UNL     1       2.411  13.175  20.778  0.00  0.00    +0.000 C 
ATOM      5  C   UNL     1       3.555  14.131  21.042  0.00  0.00    +0.000 C 
ATOM      6  C   UNL     1       3.294  14.930  22.294  0.00  0.00    +0.000 C 
ATOM      7  O   UNL     1       4.121  15.019  23.192  0.00  0.00    +0.000 OA
ATOM      8  C   UNL     1       2.000  15.707  22.325  0.00  0.00    +0.000 C 
ATOM      9  C   UNL     1       0.815  14.762  22.126  0.00  0.00    +0.000 C 
ATOM     10  N   UNL     1       0.845  14.640  19.735  0.00  0.00    +0.000 N 
ATOM     11  C   UNL     1      -0.251  14.308  18.987  0.00  0.00    +0.000 C 
ATOM     12  O   UNL     1      -0.649  14.921  18.034  0.00  0.00    +0.000 OA
ATOM     13  H   UNL     1       1.384  15.461  19.481  0.00  0.00    +0.000 HD
ENDROOT
BRANCH   1  20
ATOM     14  C   UNL     1      -2.303   9.847  16.117  0.00  0.00    +0.000 C 
ATOM     15  C   UNL     1      -2.634  10.733  17.280  0.00  0.00    +0.000 A 
ATOM     16  C   UNL     1      -3.933  10.791  17.790  0.00  0.00    +0.000 A 
ATOM     17  C   UNL     1      -4.227  11.608  18.883  0.00  0.00    +0.000 A 
ATOM     18  C   UNL     1      -3.234  12.393  19.484  0.00  0.00    +0.000 A 
ATOM     19  C   UNL     1      -3.607  13.246  20.668  0.00  0.00    +0.000 C 
ATOM     20  C   UNL     1      -1.917  12.336  18.973  0.00  0.00    +0.000 A 
ATOM     21  C   UNL     1      -1.631  11.503  17.882  0.00  0.00    +0.000 A 
ENDBRANCH   1  20
BRANCH   2  22
ATOM     22  O   UNL     1      -0.437  11.777  21.633  0.00  0.00    +0.000 OA
BRANCH  22  23
ATOM     23  C   UNL     1       0.292  10.597  21.638  0.00  0.00    +0.000 C 
ATOM     24  O   UNL     1       1.249  10.350  22.331  0.00  0.00    +0.000 OA
BRANCH  23  25
ATOM     25  C   UNL     1      -0.239   9.572  20.653  0.00  0.00    +0.000 C 
BRANCH  25  26
ATOM     26  C   UNL     1       0.880   8.938  19.849  0.00  0.00    +0.000 A 
ATOM     27  C   UNL     1       1.267   9.522  18.631  0.00  0.00    +0.000 A 
ATOM     28  C   UNL     1       2.208   8.899  17.812  0.00  0.00    +0.000 A 
ATOM     29  C   UNL     1       2.779   7.699  18.213  0.00  0.00    +0.000 A 
ATOM     30  F   UNL     1       3.678   7.098  17.421  0.00  0.00    +0.000 F 
ATOM     31  C   UNL     1       2.417   7.106  19.416  0.00  0.00    +0.000 A 
ATOM     32  C   UNL     1       1.463   7.723  20.236  0.00  0.00    +0.000 A 
ENDBRANCH  25  26
ENDBRANCH  23  25
ENDBRANCH  22  23
ENDBRANCH   2  22
TORSDOF 5
ENDMDL
