MODEL 1
REMARK VINA RESULT:      -7.8      0.000      0.000
REMARK  Name = 
REMARK  6 active torsions:
REMARK  status: ('A' for Active; 'I' for Inactive)
REMARK    1  A    between atoms: N_1  and  C_2
REMARK    2  A    between atoms: C_2  and  C_3
REMARK    3  A    between atoms: C_3  and  O_4
REMARK    4  A    between atoms: O_4  and  C_5
REMARK    5  A    between atoms: C_8  and  C_9
REMARK    6  A    between atoms: C_14  and  N_15
REMARK                            x       y       z     vdW  Elec       q    Type
REMARK                         _______ _______ _______ _____ _____    ______ ____
ROOT
ATOM      1  C   UNL     1       0.399  11.500  19.608  0.00  0.00    +0.000 C 
ATOM      2  O   UNL     1       0.449  12.332  18.630  0.00  0.00    +0.000 OA
ATOM      3  N   UNL     1       0.947  10.139  19.524  0.00  0.00    +0.000 N 
ATOM      4  C   UNL     1       1.603   9.711  18.286  0.00  0.00    +0.000 C 
ATOM      5  C   UNL     1       1.524   8.107  18.010  0.00  0.00    +0.000 C 
ATOM      6  C   UNL     1       2.193   6.897  19.159  0.00  0.00    +0.000 C 
ATOM      7  C   UNL     1       1.585   7.747  20.465  0.00  0.00    +0.000 C 
ATOM      8  C   UNL     1       1.538   9.367  20.658  0.00  0.00    +0.000 C 
ENDROOT
BRANCH   6   9
ATOM      9  N   UNL     1       3.772   6.217  18.761  0.00  0.00    +0.000 N 
ATOM     10  C   UNL     1       3.160   4.961  18.832  0.00  0.00    +0.000 C 
ATOM     11  O   UNL     1       2.888   4.329  19.843  0.00  0.00    +0.000 OA
ATOM     12  C   UNL     1       3.058   4.430  17.494  0.00  0.00    +0.000 C 
ATOM     13  C   UNL     1       4.327   3.691  17.781  0.00  0.00    +0.000 C 
ATOM     14  C   UNL     1       5.047   4.654  16.953  0.00  0.00    +0.000 A 
ATOM     15  C   UNL     1       5.673   3.933  15.885  0.00  0.00    +0.000 A 
ATOM     16  C   UNL     1       6.816   4.391  15.359  0.00  0.00    +0.000 A 
ATOM     17  C   UNL     1       7.280   5.511  16.047  0.00  0.00    +0.000 A 
ATOM     18  C   UNL     1       6.440   6.298  17.146  0.00  0.00    +0.000 A 
ATOM     19  C   UNL     1       5.058   5.987  17.505  0.00  0.00    +0.000 A 
ENDBRANCH   6   9
BRANCH   1  23
ATOM     20  C   UNL     1      -1.608  13.251  23.208  0.00  0.00    +0.000 A 
ATOM     21  C   UNL     1      -0.709  13.983  22.441  0.00  0.00    +0.000 A 
ATOM     22  C   UNL     1      -0.096  13.419  21.280  0.00  0.00    +0.000 A 
ATOM     23  C   UNL     1      -0.328  12.112  20.843  0.00  0.00    +0.000 A 
ATOM     24  C   UNL     1      -1.157  11.355  21.700  0.00  0.00    +0.000 A 
ATOM     25  C   UNL     1      -1.783  11.921  22.859  0.00  0.00    +0.000 A 
BRANCH  20  26
ATOM     26  O   UNL     1      -2.285  13.752  24.298  0.00  0.00    +0.000 OA
BRANCH  26  27
ATOM     27  C   UNL     1      -3.557  14.352  23.963  0.00  0.00    +0.000 C 
BRANCH  27  28
ATOM     28  C   UNL     1      -4.713  13.357  24.133  0.00  0.00    +0.000 C 
BRANCH  28  29
ATOM     29  N   UNL     1      -4.528  12.532  25.326  0.00  0.00    +0.000 NA
ATOM     30  H   UNL     1      -5.146  11.725  25.286  0.00  0.00    +0.000 HD
ATOM     31  H   UNL     1      -4.822  13.086  26.134  0.00  0.00    +0.000 HD
ENDBRANCH  28  29
ENDBRANCH  27  28
ENDBRANCH  26  27
ENDBRANCH  20  26
ENDBRANCH   1  23
TORSDOF 6
ENDMDL
MODEL 2
REMARK VINA RESULT:      -7.8      0.890      1.023
REMARK  Name = 
REMARK  6 active torsions:
REMARK  status: ('A' for Active; 'I' for Inactive)
REMARK    1  A    between atoms: N_1  and  C_2
REMARK    2  A    between atoms: C_2  and  C_3
REMARK    3  A    between atoms: C_3  and  O_4
REMARK    4  A    between atoms: O_4  and  C_5
REMARK    5  A    between atoms: C_8  and  C_9
REMARK    6  A    between atoms: C_14  and  N_15
REMARK                            x       y       z     vdW  Elec       q    Type
REMARK                         _______ _______ _______ _____ _____    ______ ____
ROOT
ATOM      1  C   UNL     1       0.306  12.144  19.344  0.00  0.00    +0.000 C 
ATOM      2  O   UNL     1       0.536  13.002  18.415  0.00  0.00    +0.000 OA
ATOM      3  N   UNL     1       0.796  10.760  19.288  0.00  0.00    +0.000 N 
ATOM      4  C   UNL     1       1.604  10.337  18.140  0.00  0.00    +0.000 C 
ATOM      5  C   UNL     1       1.490   8.748  17.795  0.00  0.00    +0.000 C 
ATOM      6  C   UNL     1       1.929   7.471  18.981  0.00  0.00    +0.000 C 
ATOM      7  C   UNL     1       1.180   8.310  20.218  0.00  0.00    +0.000 C 
ATOM      8  C   UNL     1       1.181   9.924  20.464  0.00  0.00    +0.000 C 
ENDROOT
BRANCH   6   9
ATOM      9  N   UNL     1       3.515   6.722  18.787  0.00  0.00    +0.000 N 
ATOM     10  C   UNL     1       2.871   5.495  18.973  0.00  0.00    +0.000 C 
ATOM     11  O   UNL     1       2.515   5.002  20.034  0.00  0.00    +0.000 OA
ATOM     12  C   UNL     1       2.849   4.798  17.709  0.00  0.00    +0.000 C 
ATOM     13  C   UNL     1       4.078   4.084  18.178  0.00  0.00    +0.000 C 
ATOM     14  C   UNL     1       4.875   4.922  17.289  0.00  0.00    +0.000 A 
ATOM     15  C   UNL     1       5.557   4.061  16.368  0.00  0.00    +0.000 A 
ATOM     16  C   UNL     1       6.744   4.431  15.871  0.00  0.00    +0.000 A 
ATOM     17  C   UNL     1       7.186   5.624  16.443  0.00  0.00    +0.000 A 
ATOM     18  C   UNL     1       6.290   6.557  17.370  0.00  0.00    +0.000 A 
ATOM     19  C   UNL     1       4.879   6.315  17.666  0.00  0.00    +0.000 A 
ENDBRANCH   6   9
BRANCH   1  23
ATOM     20  C   UNL     1      -2.176  13.988  22.584  0.00  0.00    +0.000 A 
ATOM     21  C   UNL     1      -2.657  13.834  21.289  0.00  0.00    +0.000 A 
ATOM     22  C   UNL     1      -1.864  13.220  20.271  0.00  0.00    +0.000 A 
ATOM     23  C   UNL     1      -0.563  12.755  20.484  0.00  0.00    +0.000 A 
ATOM     24  C   UNL     1      -0.057  13.024  21.776  0.00  0.00    +0.000 A 
ATOM     25  C   UNL     1      -0.855  13.629  22.802  0.00  0.00    +0.000 A 
BRANCH  20  26
ATOM     26  O   UNL     1      -2.909  14.509  23.627  0.00  0.00    +0.000 OA
BRANCH  26  27
ATOM     27  C   UNL     1      -4.206  13.891  23.787  0.00  0.00    +0.000 C 
BRANCH  27  28
ATOM     28  C   UNL     1      -4.105  12.543  24.514  0.00  0.00    +0.000 C 
BRANCH  28  29
ATOM     29  N   UNL     1      -5.426  12.057  24.910  0.00  0.00    +0.000 NA
ATOM     30  H   UNL     1      -6.066  12.120  24.121  0.00  0.00    +0.000 HD
ATOM     31  H   UNL     1      -5.785  12.688  25.630  0.00  0.00    +0.000 HD
ENDBRANCH  28  29
ENDBRANCH  27  28
ENDBRANCH  26  27
ENDBRANCH  20  26
ENDBRANCH   1  23
TORSDOF 6
ENDMDL
MODEL 3
REMARK VINA RESULT:      -7.7      1.319      1.658
REMARK  Name = 
REMARK  6 active torsions:
REMARK  status: ('A' for Active; 'I' for Inactive)
REMARK    1  A    between atoms: N_1  and  C_2
REMARK    2  A    between atoms: C_2  and  C_3
REMARK    3  A    between atoms: C_3  and  O_4
REMARK    4  A    between atoms: O_4  and  C_5
REMARK    5  A    between atoms: C_8  and  C_9
REMARK    6  A    between atoms: C_14  and  N_15
REMARK                            x       y       z     vdW  Elec       q    Type
REMARK                         _______ _______ _______ _____ _____    ______ ____
ROOT
ATOM      1  C   UNL     1       0.480  11.835  19.662  0.00  0.00    +0.000 C 
ATOM      2  O   UNL     1       0.593  12.715  18.732  0.00  0.00    +0.000 OA
ATOM      3  N   UNL     1       0.974  10.458  19.519  0.00  0.00    +0.000 N 
ATOM      4  C   UNL     1       1.649  10.070  18.277  0.00  0.00    +0.000 C 
ATOM      5  C   UNL     1       1.512   8.487  17.912  0.00  0.00    +0.000 C 
ATOM      6  C   UNL     1       2.097   7.191  19.011  0.00  0.00    +0.000 C 
ATOM      7  C   UNL     1       1.486   7.994  20.344  0.00  0.00    +0.000 C 
ATOM      8  C   UNL     1       1.499   9.603  20.624  0.00  0.00    +0.000 C 
ENDROOT
BRANCH   6   9
ATOM      9  N   UNL     1       3.658   6.466  18.620  0.00  0.00    +0.000 N 
ATOM     10  C   UNL     1       3.062   5.230  18.888  0.00  0.00    +0.000 C 
ATOM     11  O   UNL     1       2.850   4.736  19.987  0.00  0.00    +0.000 OA
ATOM     12  C   UNL     1       2.893   4.527  17.640  0.00  0.00    +0.000 C 
ATOM     13  C   UNL     1       4.181   3.835  17.951  0.00  0.00    +0.000 C 
ATOM     14  C   UNL     1       4.847   4.681  16.967  0.00  0.00    +0.000 A 
ATOM     15  C   UNL     1       5.422   3.827  15.969  0.00  0.00    +0.000 A 
ATOM     16  C   UNL     1       6.530   4.214  15.326  0.00  0.00    +0.000 A 
ATOM     17  C   UNL     1       7.021   5.415  15.835  0.00  0.00    +0.000 A 
ATOM     18  C   UNL     1       6.235   6.338  16.865  0.00  0.00    +0.000 A 
ATOM     19  C   UNL     1       4.877   6.076  17.337  0.00  0.00    +0.000 A 
ENDBRANCH   6   9
BRANCH   1  23
ATOM     20  C   UNL     1      -1.707  13.532  23.182  0.00  0.00    +0.000 A 
ATOM     21  C   UNL     1      -2.201  12.449  22.464  0.00  0.00    +0.000 A 
ATOM     22  C   UNL     1      -1.479  11.901  21.359  0.00  0.00    +0.000 A 
ATOM     23  C   UNL     1      -0.258  12.410  20.907  0.00  0.00    +0.000 A 
ATOM     24  C   UNL     1       0.165  13.577  21.581  0.00  0.00    +0.000 A 
ATOM     25  C   UNL     1      -0.550  14.121  22.697  0.00  0.00    +0.000 A 
BRANCH  20  26
ATOM     26  O   UNL     1      -2.316  14.066  24.296  0.00  0.00    +0.000 OA
BRANCH  26  27
ATOM     27  C   UNL     1      -1.877  15.407  24.608  0.00  0.00    +0.000 C 
BRANCH  27  28
ATOM     28  C   UNL     1      -1.494  15.547  26.088  0.00  0.00    +0.000 C 
BRANCH  28  29
ATOM     29  N   UNL     1      -0.099  15.959  26.235  0.00  0.00    +0.000 NA
ATOM     30  H   UNL     1       0.054  16.328  27.171  0.00  0.00    +0.000 HD
ATOM     31  H   UNL     1       0.067  16.730  25.584  0.00  0.00    +0.000 HD
ENDBRANCH  28  29
ENDBRANCH  27  28
ENDBRANCH  26  27
ENDBRANCH  20  26
ENDBRANCH   1  23
TORSDOF 6
ENDMDL
MODEL 4
REMARK VINA RESULT:      -7.6      0.761      1.176
REMARK  Name = 
REMARK  6 active torsions:
REMARK  status: ('A' for Active; 'I' for Inactive)
REMARK    1  A    between atoms: N_1  and  C_2
REMARK    2  A    between atoms: C_2  and  C_3
REMARK    3  A    between atoms: C_3  and  O_4
REMARK    4  A    between atoms: O_4  and  C_5
REMARK    5  A    between atoms: C_8  and  C_9
REMARK    6  A    between atoms: C_14  and  N_15
REMARK                            x       y       z     vdW  Elec       q    Type
REMARK                         _______ _______ _______ _____ _____    ______ ____
ROOT
ATOM      1  C   UNL     1       0.477  11.866  19.729  0.00  0.00    +0.000 C 
ATOM      2  O   UNL     1       0.582  12.741  18.792  0.00  0.00    +0.000 OA
ATOM      3  N   UNL     1       0.967  10.488  19.589  0.00  0.00    +0.000 N 
ATOM      4  C   UNL     1       1.627  10.091  18.342  0.00  0.00    +0.000 C 
ATOM      5  C   UNL     1       1.483   8.506  17.988  0.00  0.00    +0.000 C 
ATOM      6  C   UNL     1       2.078   7.215  19.088  0.00  0.00    +0.000 C 
ATOM      7  C   UNL     1       1.483   8.028  20.424  0.00  0.00    +0.000 C 
ATOM      8  C   UNL     1       1.503   9.638  20.693  0.00  0.00    +0.000 C 
ENDROOT
BRANCH   6   9
ATOM      9  N   UNL     1       3.632   6.485  18.684  0.00  0.00    +0.000 N 
ATOM     10  C   UNL     1       3.028   5.249  18.937  0.00  0.00    +0.000 C 
ATOM     11  O   UNL     1       2.815   4.742  20.030  0.00  0.00    +0.000 OA
ATOM     12  C   UNL     1       2.851   4.564  17.680  0.00  0.00    +0.000 C 
ATOM     13  C   UNL     1       4.136   3.859  17.979  0.00  0.00    +0.000 C 
ATOM     14  C   UNL     1       4.805   4.713  17.004  0.00  0.00    +0.000 A 
ATOM     15  C   UNL     1       5.371   3.868  15.994  0.00  0.00    +0.000 A 
ATOM     16  C   UNL     1       6.481   4.256  15.354  0.00  0.00    +0.000 A 
ATOM     17  C   UNL     1       6.982   5.447  15.877  0.00  0.00    +0.000 A 
ATOM     18  C   UNL     1       6.204   6.362  16.922  0.00  0.00    +0.000 A 
ATOM     19  C   UNL     1       4.845   6.102  17.393  0.00  0.00    +0.000 A 
ENDBRANCH   6   9
BRANCH   1  23
ATOM     20  C   UNL     1      -1.669  13.584  23.264  0.00  0.00    +0.000 A 
ATOM     21  C   UNL     1      -2.129  12.447  22.608  0.00  0.00    +0.000 A 
ATOM     22  C   UNL     1      -1.419  11.895  21.497  0.00  0.00    +0.000 A 
ATOM     23  C   UNL     1      -0.245  12.451  20.979  0.00  0.00    +0.000 A 
ATOM     24  C   UNL     1       0.138  13.665  21.591  0.00  0.00    +0.000 A 
ATOM     25  C   UNL     1      -0.565  14.215  22.712  0.00  0.00    +0.000 A 
BRANCH  20  26
ATOM     26  O   UNL     1      -2.265  14.129  24.379  0.00  0.00    +0.000 OA
BRANCH  26  27
ATOM     27  C   UNL     1      -3.705  14.004  24.385  0.00  0.00    +0.000 C 
BRANCH  27  28
ATOM     28  C   UNL     1      -4.380  15.216  23.727  0.00  0.00    +0.000 C 
BRANCH  28  29
ATOM     29  N   UNL     1      -5.688  15.481  24.327  0.00  0.00    +0.000 NA
ATOM     30  H   UNL     1      -6.339  14.741  24.074  0.00  0.00    +0.000 HD
ATOM     31  H   UNL     1      -6.049  16.344  23.913  0.00  0.00    +0.000 HD
ENDBRANCH  28  29
ENDBRANCH  27  28
ENDBRANCH  26  27
ENDBRANCH  20  26
ENDBRANCH   1  23
TORSDOF 6
ENDMDL
MODEL 5
REMARK VINA RESULT:      -7.5      2.258     10.867
REMARK  Name = 
REMARK  6 active torsions:
REMARK  status: ('A' for Active; 'I' for Inactive)
REMARK    1  A    between atoms: N_1  and  C_2
REMARK    2  A    between atoms: C_2  and  C_3
REMARK    3  A    between atoms: C_3  and  O_4
REMARK    4  A    between atoms: O_4  and  C_5
REMARK    5  A    between atoms: C_8  and  C_9
REMARK    6  A    between atoms: C_14  and  N_15
REMARK                            x       y       z     vdW  Elec       q    Type
REMARK                         _______ _______ _______ _____ _____    ______ ____
ROOT
ATOM      1  C   UNL     1       1.668   8.900  18.485  0.00  0.00    +0.000 C 
ATOM      2  O   UNL     1       1.587   9.194  17.236  0.00  0.00    +0.000 OA
ATOM      3  N   UNL     1       1.033   9.708  19.536  0.00  0.00    +0.000 N 
ATOM      4  C   UNL     1       0.249  10.885  19.152  0.00  0.00    +0.000 C 
ATOM      5  C   UNL     1       0.207  12.056  20.285  0.00  0.00    +0.000 C 
ATOM      6  C   UNL     1      -0.436  11.771  21.940  0.00  0.00    +0.000 C 
ATOM      7  C   UNL     1       0.331  10.287  22.023  0.00  0.00    +0.000 C 
ATOM      8  C   UNL     1       0.493   9.188  20.827  0.00  0.00    +0.000 C 
ENDROOT
BRANCH   6   9
ATOM      9  N   UNL     1      -2.082  12.325  22.255  0.00  0.00    +0.000 N 
ATOM     10  C   UNL     1      -1.506  13.489  22.775  0.00  0.00    +0.000 C 
ATOM     11  O   UNL     1      -1.001  13.632  23.880  0.00  0.00    +0.000 OA
ATOM     12  C   UNL     1      -1.763  14.572  21.857  0.00  0.00    +0.000 C 
ATOM     13  C   UNL     1      -2.935  14.914  22.720  0.00  0.00    +0.000 C 
ATOM     14  C   UNL     1      -3.817  14.333  21.713  0.00  0.00    +0.000 A 
ATOM     15  C   UNL     1      -4.714  15.359  21.270  0.00  0.00    +0.000 A 
ATOM     16  C   UNL     1      -5.941  15.027  20.848  0.00  0.00    +0.000 A 
ATOM     17  C   UNL     1      -6.184  13.664  21.010  0.00  0.00    +0.000 A 
ATOM     18  C   UNL     1      -5.071  12.597  21.403  0.00  0.00    +0.000 A 
ATOM     19  C   UNL     1      -3.651  12.907  21.562  0.00  0.00    +0.000 A 
ENDBRANCH   6   9
BRANCH   1  23
ATOM     20  C   UNL     1       4.103   5.190  19.084  0.00  0.00    +0.000 A 
ATOM     21  C   UNL     1       4.287   6.018  17.983  0.00  0.00    +0.000 A 
ATOM     22  C   UNL     1       3.521   7.213  17.818  0.00  0.00    +0.000 A 
ATOM     23  C   UNL     1       2.533   7.626  18.718  0.00  0.00    +0.000 A 
ATOM     24  C   UNL     1       2.290   6.711  19.767  0.00  0.00    +0.000 A 
ATOM     25  C   UNL     1       3.064   5.518  19.941  0.00  0.00    +0.000 A 
BRANCH  20  26
ATOM     26  O   UNL     1       4.851   4.062  19.340  0.00  0.00    +0.000 OA
BRANCH  26  27
ATOM     27  C   UNL     1       4.053   2.891  19.625  0.00  0.00    +0.000 C 
BRANCH  27  28
ATOM     28  C   UNL     1       3.607   2.183  18.339  0.00  0.00    +0.000 C 
BRANCH  28  29
ATOM     29  N   UNL     1       3.967   0.766  18.364  0.00  0.00    +0.000 NA
ATOM     30  H   UNL     1       3.967   0.428  19.324  0.00  0.00    +0.000 HD
ATOM     31  H   UNL     1       4.928   0.685  18.025  0.00  0.00    +0.000 HD
ENDBRANCH  28  29
ENDBRANCH  27  28
ENDBRANCH  26  27
ENDBRANCH  20  26
ENDBRANCH   1  23
TORSDOF 6
ENDMDL
MODEL 6
REMARK VINA RESULT:      -7.4      2.315     10.717
REMARK  Name = 
REMARK  6 active torsions:
REMARK  status: ('A' for Active; 'I' for Inactive)
REMARK    1  A    between atoms: N_1  and  C_2
REMARK    2  A    between atoms: C_2  and  C_3
REMARK    3  A    between atoms: C_3  and  O_4
REMARK    4  A    between atoms: O_4  and  C_5
REMARK    5  A    between atoms: C_8  and  C_9
REMARK    6  A    between atoms: C_14  and  N_15
REMARK                            x       y       z     vdW  Elec       q    Type
REMARK                         _______ _______ _______ _____ _____    ______ ____
ROOT
ATOM      1  C   UNL     1       1.833   8.840  18.480  0.00  0.00    +0.000 C 
ATOM      2  O   UNL     1       1.909   9.237  17.260  0.00  0.00    +0.000 OA
ATOM      3  N   UNL     1       1.156   9.616  19.528  0.00  0.00    +0.000 N 
ATOM      4  C   UNL     1       0.517  10.885  19.173  0.00  0.00    +0.000 C 
ATOM      5  C   UNL     1       0.448  11.962  20.395  0.00  0.00    +0.000 C 
ATOM      6  C   UNL     1      -0.389  11.607  21.946  0.00  0.00    +0.000 C 
ATOM      7  C   UNL     1       0.242  10.058  21.974  0.00  0.00    +0.000 C 
ATOM      8  C   UNL     1       0.441   9.047  20.709  0.00  0.00    +0.000 C 
ENDROOT
BRANCH   6   9
ATOM      9  N   UNL     1      -2.008  12.280  22.143  0.00  0.00    +0.000 N 
ATOM     10  C   UNL     1      -1.386  13.412  22.681  0.00  0.00    +0.000 C 
ATOM     11  O   UNL     1      -0.946  13.542  23.814  0.00  0.00    +0.000 OA
ATOM     12  C   UNL     1      -1.506  14.490  21.730  0.00  0.00    +0.000 C 
ATOM     13  C   UNL     1      -2.705  14.931  22.509  0.00  0.00    +0.000 C 
ATOM     14  C   UNL     1      -3.559  14.392  21.455  0.00  0.00    +0.000 A 
ATOM     15  C   UNL     1      -4.351  15.468  20.937  0.00  0.00    +0.000 A 
ATOM     16  C   UNL     1      -5.568  15.214  20.440  0.00  0.00    +0.000 A 
ATOM     17  C   UNL     1      -5.917  13.874  20.608  0.00  0.00    +0.000 A 
ATOM     18  C   UNL     1      -4.909  12.741  21.091  0.00  0.00    +0.000 A 
ATOM     19  C   UNL     1      -3.485  12.955  21.338  0.00  0.00    +0.000 A 
ENDBRANCH   6   9
BRANCH   1  23
ATOM     20  C   UNL     1       3.983   4.968  19.138  0.00  0.00    +0.000 A 
ATOM     21  C   UNL     1       3.037   5.443  20.039  0.00  0.00    +0.000 A 
ATOM     22  C   UNL     1       2.340   6.668  19.802  0.00  0.00    +0.000 A 
ATOM     23  C   UNL     1       2.562   7.478  18.685  0.00  0.00    +0.000 A 
ATOM     24  C   UNL     1       3.605   7.030  17.845  0.00  0.00    +0.000 A 
ATOM     25  C   UNL     1       4.298   5.796  18.073  0.00  0.00    +0.000 A 
BRANCH  20  26
ATOM     26  O   UNL     1       4.643   3.765  19.269  0.00  0.00    +0.000 OA
BRANCH  26  27
ATOM     27  C   UNL     1       3.772   2.661  19.604  0.00  0.00    +0.000 C 
BRANCH  27  28
ATOM     28  C   UNL     1       3.173   2.012  18.349  0.00  0.00    +0.000 C 
BRANCH  28  29
ATOM     29  N   UNL     1       1.758   1.698  18.542  0.00  0.00    +0.000 NA
ATOM     30  H   UNL     1       1.452   1.037  17.831  0.00  0.00    +0.000 HD
ATOM     31  H   UNL     1       1.226   2.558  18.391  0.00  0.00    +0.000 HD
ENDBRANCH  28  29
ENDBRANCH  27  28
ENDBRANCH  26  27
ENDBRANCH  20  26
ENDBRANCH   1  23
TORSDOF 6
ENDMDL
MODEL 7
REMARK VINA RESULT:      -7.4      1.166      1.321
REMARK  Name = 
REMARK  6 active torsions:
REMARK  status: ('A' for Active; 'I' for Inactive)
REMARK    1  A    between atoms: N_1  and  C_2
REMARK    2  A    between atoms: C_2  and  C_3
REMARK    3  A    between atoms: C_3  and  O_4
REMARK    4  A    between atoms: O_4  and  C_5
REMARK    5  A    between atoms: C_8  and  C_9
REMARK    6  A    between atoms: C_14  and  N_15
REMARK                            x       y       z     vdW  Elec       q    Type
REMARK                         _______ _______ _______ _____ _____    ______ ____
ROOT
ATOM      1  C   UNL     1       0.288  11.083  19.678  0.00  0.00    +0.000 C 
ATOM      2  O   UNL     1       0.592  11.909  18.741  0.00  0.00    +0.000 OA
ATOM      3  N   UNL     1       0.772   9.696  19.704  0.00  0.00    +0.000 N 
ATOM      4  C   UNL     1       1.659   9.232  18.634  0.00  0.00    +0.000 C 
ATOM      5  C   UNL     1       1.561   7.633  18.334  0.00  0.00    +0.000 C 
ATOM      6  C   UNL     1       1.903   6.394  19.592  0.00  0.00    +0.000 C 
ATOM      7  C   UNL     1       1.070   7.278  20.741  0.00  0.00    +0.000 C 
ATOM      8  C   UNL     1       1.064   8.899  20.932  0.00  0.00    +0.000 C 
ENDROOT
BRANCH   6   9
ATOM      9  N   UNL     1       3.494   5.633  19.540  0.00  0.00    +0.000 N 
ATOM     10  C   UNL     1       2.865   4.541  18.934  0.00  0.00    +0.000 C 
ATOM     11  O   UNL     1       2.212   3.667  19.486  0.00  0.00    +0.000 OA
ATOM     12  C   UNL     1       3.261   4.501  17.547  0.00  0.00    +0.000 C 
ATOM     13  C   UNL     1       4.305   3.512  17.962  0.00  0.00    +0.000 C 
ATOM     14  C   UNL     1       5.312   4.561  17.843  0.00  0.00    +0.000 A 
ATOM     15  C   UNL     1       6.275   4.137  16.869  0.00  0.00    +0.000 A 
ATOM     16  C   UNL     1       7.545   4.549  16.972  0.00  0.00    +0.000 A 
ATOM     17  C   UNL     1       7.747   5.291  18.135  0.00  0.00    +0.000 A 
ATOM     18  C   UNL     1       6.577   5.801  19.086  0.00  0.00    +0.000 A 
ATOM     19  C   UNL     1       5.153   5.620  18.810  0.00  0.00    +0.000 A 
ENDBRANCH   6   9
BRANCH   1  23
ATOM     20  C   UNL     1      -2.417  13.045  22.660  0.00  0.00    +0.000 A 
ATOM     21  C   UNL     1      -2.817  12.811  21.350  0.00  0.00    +0.000 A 
ATOM     22  C   UNL     1      -1.953  12.160  20.416  0.00  0.00    +0.000 A 
ATOM     23  C   UNL     1      -0.658  11.735  20.730  0.00  0.00    +0.000 A 
ATOM     24  C   UNL     1      -0.236  12.085  22.032  0.00  0.00    +0.000 A 
ATOM     25  C   UNL     1      -1.104  12.727  22.975  0.00  0.00    +0.000 A 
BRANCH  20  26
ATOM     26  O   UNL     1      -3.221  13.605  23.628  0.00  0.00    +0.000 OA
BRANCH  26  27
ATOM     27  C   UNL     1      -4.181  12.681  24.187  0.00  0.00    +0.000 C 
BRANCH  27  28
ATOM     28  C   UNL     1      -5.620  13.071  23.823  0.00  0.00    +0.000 C 
BRANCH  28  29
ATOM     29  N   UNL     1      -5.877  14.479  24.122  0.00  0.00    +0.000 NA
ATOM     30  H   UNL     1      -5.037  14.908  24.505  0.00  0.00    +0.000 HD
ATOM     31  H   UNL     1      -6.587  14.515  24.857  0.00  0.00    +0.000 HD
ENDBRANCH  28  29
ENDBRANCH  27  28
ENDBRANCH  26  27
ENDBRANCH  20  26
ENDBRANCH   1  23
TORSDOF 6
ENDMDL
MODEL 8
REMARK VINA RESULT:      -7.3      2.633      3.795
REMARK  Name = 
REMARK  6 active torsions:
REMARK  status: ('A' for Active; 'I' for Inactive)
REMARK    1  A    between atoms: N_1  and  C_2
REMARK    2  A    between atoms: C_2  and  C_3
REMARK    3  A    between atoms: C_3  and  O_4
REMARK    4  A    between atoms: O_4  and  C_5
REMARK    5  A    between atoms: C_8  and  C_9
REMARK    6  A    between atoms: C_14  and  N_15
REMARK                            x       y       z     vdW  Elec       q    Type
REMARK                         _______ _______ _______ _____ _____    ______ ____
ROOT
ATOM      1  C   UNL     1      -0.775  10.622  22.143  0.00  0.00    +0.000 C 
ATOM      2  O   UNL     1      -1.125  10.137  23.282  0.00  0.00    +0.000 OA
ATOM      3  N   UNL     1       0.078   9.892  21.196  0.00  0.00    +0.000 N 
ATOM      4  C   UNL     1       0.533   8.543  21.542  0.00  0.00    +0.000 C 
ATOM      5  C   UNL     1       1.953   8.124  20.861  0.00  0.00    +0.000 C 
ATOM      6  C   UNL     1       2.196   8.094  19.079  0.00  0.00    +0.000 C 
ATOM      7  C   UNL     1       1.355   9.529  18.904  0.00  0.00    +0.000 C 
ATOM      8  C   UNL     1       0.013   9.996  19.707  0.00  0.00    +0.000 C 
ENDROOT
BRANCH   6   9
ATOM      9  N   UNL     1       2.112   6.516  18.296  0.00  0.00    +0.000 N 
ATOM     10  C   UNL     1       3.433   6.735  17.891  0.00  0.00    +0.000 C 
ATOM     11  O   UNL     1       3.813   7.431  16.960  0.00  0.00    +0.000 OA
ATOM     12  C   UNL     1       4.290   5.851  18.643  0.00  0.00    +0.000 C 
ATOM     13  C   UNL     1       4.216   4.921  17.474  0.00  0.00    +0.000 C 
ATOM     14  C   UNL     1       3.295   4.080  18.232  0.00  0.00    +0.000 A 
ATOM     15  C   UNL     1       3.886   2.780  18.356  0.00  0.00    +0.000 A 
ATOM     16  C   UNL     1       3.099   1.701  18.443  0.00  0.00    +0.000 A 
ATOM     17  C   UNL     1       1.754   2.038  18.294  0.00  0.00    +0.000 A 
ATOM     18  C   UNL     1       1.202   3.531  18.280  0.00  0.00    +0.000 A 
ATOM     19  C   UNL     1       2.028   4.717  18.500  0.00  0.00    +0.000 A 
ENDBRANCH   6   9
BRANCH   1  23
ATOM     20  C   UNL     1      -2.463  14.737  21.623  0.00  0.00    +0.000 A 
ATOM     21  C   UNL     1      -1.541  14.444  22.621  0.00  0.00    +0.000 A 
ATOM     22  C   UNL     1      -0.991  13.132  22.759  0.00  0.00    +0.000 A 
ATOM     23  C   UNL     1      -1.342  12.058  21.935  0.00  0.00    +0.000 A 
ATOM     24  C   UNL     1      -2.362  12.355  21.003  0.00  0.00    +0.000 A 
ATOM     25  C   UNL     1      -2.907  13.672  20.854  0.00  0.00    +0.000 A 
BRANCH  20  26
ATOM     26  O   UNL     1      -2.982  15.992  21.391  0.00  0.00    +0.000 OA
BRANCH  26  27
ATOM     27  C   UNL     1      -1.973  17.016  21.242  0.00  0.00    +0.000 C 
BRANCH  27  28
ATOM     28  C   UNL     1      -1.292  16.944  19.868  0.00  0.00    +0.000 C 
BRANCH  28  29
ATOM     29  N   UNL     1      -2.126  17.554  18.834  0.00  0.00    +0.000 NA
ATOM     30  H   UNL     1      -2.785  16.867  18.474  0.00  0.00    +0.000 HD
ATOM     31  H   UNL     1      -1.515  17.810  18.055  0.00  0.00    +0.000 HD
ENDBRANCH  28  29
ENDBRANCH  27  28
ENDBRANCH  26  27
ENDBRANCH  20  26
ENDBRANCH   1  23
TORSDOF 6
ENDMDL
MODEL 9
REMARK VINA RESULT:      -7.3      2.274      3.269
REMARK  Name = 
REMARK  6 active torsions:
REMARK  status: ('A' for Active; 'I' for Inactive)
REMARK    1  A    between atoms: N_1  and  C_2
REMARK    2  A    between atoms: C_2  and  C_3
REMARK    3  A    between atoms: C_3  and  O_4
REMARK    4  A    between atoms: O_4  and  C_5
REMARK    5  A    between atoms: C_8  and  C_9
REMARK    6  A    between atoms: C_14  and  N_15
REMARK                            x       y       z     vdW  Elec       q    Type
REMARK                         _______ _______ _______ _____ _____    ______ ____
ROOT
ATOM      1  C   UNL     1      -0.602  10.609  22.272  0.00  0.00    +0.000 C 
ATOM      2  O   UNL     1      -0.807  10.142  23.453  0.00  0.00    +0.000 OA
ATOM      3  N   UNL     1       0.188   9.895  21.260  0.00  0.00    +0.000 N 
ATOM      4  C   UNL     1       0.750   8.583  21.591  0.00  0.00    +0.000 C 
ATOM      5  C   UNL     1       2.114   8.218  20.777  0.00  0.00    +0.000 C 
ATOM      6  C   UNL     1       2.175   8.145  18.982  0.00  0.00    +0.000 C 
ATOM      7  C   UNL     1       1.243   9.529  18.858  0.00  0.00    +0.000 C 
ATOM      8  C   UNL     1      -0.034   9.949  19.784  0.00  0.00    +0.000 C 
ENDROOT
BRANCH   6   9
ATOM      9  N   UNL     1       2.098   6.541  18.252  0.00  0.00    +0.000 N 
ATOM     10  C   UNL     1       3.421   6.748  17.850  0.00  0.00    +0.000 C 
ATOM     11  O   UNL     1       3.809   7.412  16.899  0.00  0.00    +0.000 OA
ATOM     12  C   UNL     1       4.274   5.891  18.639  0.00  0.00    +0.000 C 
ATOM     13  C   UNL     1       4.209   4.921  17.501  0.00  0.00    +0.000 C 
ATOM     14  C   UNL     1       3.283   4.106  18.280  0.00  0.00    +0.000 A 
ATOM     15  C   UNL     1       3.874   2.812  18.452  0.00  0.00    +0.000 A 
ATOM     16  C   UNL     1       3.087   1.736  18.570  0.00  0.00    +0.000 A 
ATOM     17  C   UNL     1       1.743   2.066  18.399  0.00  0.00    +0.000 A 
ATOM     18  C   UNL     1       1.191   3.557  18.330  0.00  0.00    +0.000 A 
ATOM     19  C   UNL     1       2.013   4.750  18.516  0.00  0.00    +0.000 A 
ENDBRANCH   6   9
BRANCH   1  23
ATOM     20  C   UNL     1      -2.581  14.599  21.803  0.00  0.00    +0.000 A 
ATOM     21  C   UNL     1      -1.852  14.271  22.941  0.00  0.00    +0.000 A 
ATOM     22  C   UNL     1      -1.204  13.004  23.065  0.00  0.00    +0.000 A 
ATOM     23  C   UNL     1      -1.266  12.007  22.087  0.00  0.00    +0.000 A 
ATOM     24  C   UNL     1      -2.103  12.322  20.994  0.00  0.00    +0.000 A 
ATOM     25  C   UNL     1      -2.745  13.596  20.860  0.00  0.00    +0.000 A 
BRANCH  20  26
ATOM     26  O   UNL     1      -3.173  15.824  21.589  0.00  0.00    +0.000 OA
BRANCH  26  27
ATOM     27  C   UNL     1      -3.867  16.342  22.746  0.00  0.00    +0.000 C 
BRANCH  27  28
ATOM     28  C   UNL     1      -5.250  15.697  22.912  0.00  0.00    +0.000 C 
BRANCH  28  29
ATOM     29  N   UNL     1      -5.527  15.399  24.317  0.00  0.00    +0.000 NA
ATOM     30  H   UNL     1      -6.018  16.181  24.744  0.00  0.00    +0.000 HD
ATOM     31  H   UNL     1      -4.629  15.317  24.799  0.00  0.00    +0.000 HD
ENDBRANCH  28  29
ENDBRANCH  27  28
ENDBRANCH  26  27
ENDBRANCH  20  26
ENDBRANCH   1  23
TORSDOF 6
ENDMDL
