MODEL 1
REMARK VINA RESULT:      -8.3      0.000      0.000
REMARK  Name = 
REMARK  10 active torsions:
REMARK  status: ('A' for Active; 'I' for Inactive)
REMARK    1  A    between atoms: C_1  and  O_2
REMARK    2  A    between atoms: O_2  and  C_3
REMARK    3  A    between atoms: C_8  and  O_9
REMARK    4  A    between atoms: O_9  and  C_10
REMARK    5  A    between atoms: C_10  and  C_11
REMARK    6  A    between atoms: C_11  and  N_12
REMARK    7  A    between atoms: C_21  and  C_22
REMARK    8  A    between atoms: C_25  and  N_26
REMARK    9  A    between atoms: N_26  and  C_27
REMARK   10  A    between atoms: N_26  and  C_28
REMARK                            x       y       z     vdW  Elec       q    Type
REMARK                         _______ _______ _______ _____ _____    ______ ____
ROOT
ATOM      1  C   UNL     1       2.599   4.761  20.066  0.00  0.00    +0.000 A 
ATOM      2  C   UNL     1       1.940   5.842  20.672  0.00  0.00    +0.000 A 
ATOM      3  C   UNL     1       1.845   7.041  19.990  0.00  0.00    +0.000 A 
ATOM      4  C   UNL     1       2.393   7.174  18.730  0.00  0.00    +0.000 A 
ATOM      5  C   UNL     1       3.062   6.140  18.090  0.00  0.00    +0.000 A 
ATOM      6  C   UNL     1       3.167   4.908  18.766  0.00  0.00    +0.000 A 
ATOM      7  C   UNL     1       2.091   8.519  18.217  0.00  0.00    +0.000 C 
ATOM      8  O   UNL     1       2.427   8.977  17.146  0.00  0.00    +0.000 OA
ATOM      9  C   UNL     1       1.281   9.204  19.285  0.00  0.00    +0.000 C 
ATOM     10  C   UNL     1       0.752  10.422  19.127  0.00  0.00    +0.000 C 
ATOM     11  C   UNL     1       1.154   8.277  20.460  0.00  0.00    +0.000 C 
ENDROOT
BRANCH  10  12
ATOM     12  C   UNL     1      -0.052  11.060  20.167  0.00  0.00    +0.000 A 
ATOM     13  C   UNL     1      -1.046  11.976  19.834  0.00  0.00    +0.000 A 
ATOM     14  C   UNL     1      -1.826  12.572  20.837  0.00  0.00    +0.000 A 
ATOM     15  C   UNL     1      -1.656  12.280  22.202  0.00  0.00    +0.000 A 
ATOM     16  C   UNL     1      -0.620  11.379  22.506  0.00  0.00    +0.000 A 
ATOM     17  C   UNL     1       0.173  10.781  21.512  0.00  0.00    +0.000 A 
BRANCH  15  18
ATOM     18  N   UNL     1      -2.436  12.884  23.177  0.00  0.00    +0.000 N 
ATOM     19  C   UNL     1      -3.534  12.167  23.827  0.00  0.00    +0.000 C 
ATOM     20  C   UNL     1      -2.033  14.110  23.862  0.00  0.00    +0.000 C 
ENDBRANCH  15  18
ENDBRANCH  10  12
BRANCH   1  22
ATOM     21  C   UNL     1       1.656   3.207  21.609  0.00  0.00    +0.000 C 
ATOM     22  O   UNL     1       2.681   3.526  20.667  0.00  0.00    +0.000 OA
ENDBRANCH   1  22
BRANCH   6  23
ATOM     23  O   UNL     1       3.761   3.798  18.201  0.00  0.00    +0.000 OA
BRANCH  23  24
ATOM     24  C   UNL     1       4.121   3.926  16.813  0.00  0.00    +0.000 C 
BRANCH  24  25
ATOM     25  C   UNL     1       5.644   4.114  16.673  0.00  0.00    +0.000 C 
BRANCH  25  26
ATOM     26  N   UNL     1       6.195   5.218  17.494  0.00  0.00    +0.000 NA
ATOM     27  C   UNL     1       7.415   4.818  18.213  0.00  0.00    +0.000 C 
ATOM     28  C   UNL     1       7.941   5.948  19.101  0.00  0.00    +0.000 C 
ATOM     29  C   UNL     1       8.196   7.215  18.296  0.00  0.00    +0.000 C 
ATOM     30  C   UNL     1       6.959   7.584  17.487  0.00  0.00    +0.000 C 
ATOM     31  C   UNL     1       6.463   6.398  16.652  0.00  0.00    +0.000 C 
ENDBRANCH  25  26
ENDBRANCH  24  25
ENDBRANCH  23  24
ENDBRANCH   6  23
TORSDOF 7
ENDMDL
MODEL 2
REMARK VINA RESULT:      -8.3      0.752      1.298
REMARK  Name = 
REMARK  10 active torsions:
REMARK  status: ('A' for Active; 'I' for Inactive)
REMARK    1  A    between atoms: C_1  and  O_2
REMARK    2  A    between atoms: O_2  and  C_3
REMARK    3  A    between atoms: C_8  and  O_9
REMARK    4  A    between atoms: O_9  and  C_10
REMARK    5  A    between atoms: C_10  and  C_11
REMARK    6  A    between atoms: C_11  and  N_12
REMARK    7  A    between atoms: C_21  and  C_22
REMARK    8  A    between atoms: C_25  and  N_26
REMARK    9  A    between atoms: N_26  and  C_27
REMARK   10  A    between atoms: N_26  and  C_28
REMARK                            x       y       z     vdW  Elec       q    Type
REMARK                         _______ _______ _______ _____ _____    ______ ____
ROOT
ATOM      1  C   UNL     1       2.299   5.355  20.310  0.00  0.00    +0.000 A 
ATOM      2  C   UNL     1       1.589   6.397  20.928  0.00  0.00    +0.000 A 
ATOM      3  C   UNL     1       1.474   7.612  20.277  0.00  0.00    +0.000 A 
ATOM      4  C   UNL     1       2.051   7.798  19.038  0.00  0.00    +0.000 A 
ATOM      5  C   UNL     1       2.770   6.806  18.388  0.00  0.00    +0.000 A 
ATOM      6  C   UNL     1       2.897   5.558  19.031  0.00  0.00    +0.000 A 
ATOM      7  C   UNL     1       1.720   9.147  18.554  0.00  0.00    +0.000 C 
ATOM      8  O   UNL     1       2.070   9.647  17.507  0.00  0.00    +0.000 OA
ATOM      9  C   UNL     1       0.859   9.775  19.618  0.00  0.00    +0.000 C 
ATOM     10  C   UNL     1       0.296  10.980  19.480  0.00  0.00    +0.000 C 
ATOM     11  C   UNL     1       0.731   8.811  20.762  0.00  0.00    +0.000 C 
ENDROOT
BRANCH  10  12
ATOM     12  C   UNL     1      -0.557  11.561  20.515  0.00  0.00    +0.000 A 
ATOM     13  C   UNL     1      -1.653  12.348  20.171  0.00  0.00    +0.000 A 
ATOM     14  C   UNL     1      -2.478  12.889  21.170  0.00  0.00    +0.000 A 
ATOM     15  C   UNL     1      -2.252  12.668  22.541  0.00  0.00    +0.000 A 
ATOM     16  C   UNL     1      -1.116  11.901  22.852  0.00  0.00    +0.000 A 
ATOM     17  C   UNL     1      -0.278  11.360  21.863  0.00  0.00    +0.000 A 
BRANCH  15  18
ATOM     18  N   UNL     1      -3.078  13.217  23.510  0.00  0.00    +0.000 N 
ATOM     19  C   UNL     1      -3.337  14.656  23.566  0.00  0.00    +0.000 C 
ATOM     20  C   UNL     1      -4.001  12.411  24.306  0.00  0.00    +0.000 C 
ENDBRANCH  15  18
ENDBRANCH  10  12
BRANCH   1  22
ATOM     21  C   UNL     1       1.251   3.269  20.796  0.00  0.00    +0.000 C 
ATOM     22  O   UNL     1       2.405   4.106  20.879  0.00  0.00    +0.000 OA
ENDBRANCH   1  22
BRANCH   6  23
ATOM     23  O   UNL     1       3.542   4.484  18.453  0.00  0.00    +0.000 OA
BRANCH  23  24
ATOM     24  C   UNL     1       3.959   4.673  17.088  0.00  0.00    +0.000 C 
BRANCH  24  25
ATOM     25  C   UNL     1       5.335   4.019  16.856  0.00  0.00    +0.000 C 
BRANCH  25  26
ATOM     26  N   UNL     1       6.485   4.898  17.174  0.00  0.00    +0.000 NA
ATOM     27  C   UNL     1       6.251   6.290  16.758  0.00  0.00    +0.000 C 
ATOM     28  C   UNL     1       7.467   7.174  17.041  0.00  0.00    +0.000 C 
ATOM     29  C   UNL     1       7.861   7.124  18.510  0.00  0.00    +0.000 C 
ATOM     30  C   UNL     1       8.024   5.679  18.964  0.00  0.00    +0.000 C 
ATOM     31  C   UNL     1       6.788   4.841  18.616  0.00  0.00    +0.000 C 
ENDBRANCH  25  26
ENDBRANCH  24  25
ENDBRANCH  23  24
ENDBRANCH   6  23
TORSDOF 7
ENDMDL
MODEL 3
REMARK VINA RESULT:      -8.2      0.930      1.307
REMARK  Name = 
REMARK  10 active torsions:
REMARK  status: ('A' for Active; 'I' for Inactive)
REMARK    1  A    between atoms: C_1  and  O_2
REMARK    2  A    between atoms: O_2  and  C_3
REMARK    3  A    between atoms: C_8  and  O_9
REMARK    4  A    between atoms: O_9  and  C_10
REMARK    5  A    between atoms: C_10  and  C_11
REMARK    6  A    between atoms: C_11  and  N_12
REMARK    7  A    between atoms: C_21  and  C_22
REMARK    8  A    between atoms: C_25  and  N_26
REMARK    9  A    between atoms: N_26  and  C_27
REMARK   10  A    between atoms: N_26  and  C_28
REMARK                            x       y       z     vdW  Elec       q    Type
REMARK                         _______ _______ _______ _____ _____    ______ ____
ROOT
ATOM      1  C   UNL     1       2.230   5.256  20.468  0.00  0.00    +0.000 A 
ATOM      2  C   UNL     1       1.682   6.442  20.980  0.00  0.00    +0.000 A 
ATOM      3  C   UNL     1       1.650   7.570  20.180  0.00  0.00    +0.000 A 
ATOM      4  C   UNL     1       2.151   7.529  18.895  0.00  0.00    +0.000 A 
ATOM      5  C   UNL     1       2.710   6.386  18.343  0.00  0.00    +0.000 A 
ATOM      6  C   UNL     1       2.750   5.224  19.140  0.00  0.00    +0.000 A 
ATOM      7  C   UNL     1       1.931   8.835  18.254  0.00  0.00    +0.000 C 
ATOM      8  O   UNL     1       2.254   9.153  17.130  0.00  0.00    +0.000 OA
ATOM      9  C   UNL     1       1.222   9.688  19.272  0.00  0.00    +0.000 C 
ATOM     10  C   UNL     1       0.782  10.923  19.007  0.00  0.00    +0.000 C 
ATOM     11  C   UNL     1       1.077   8.899  20.542  0.00  0.00    +0.000 C 
ENDROOT
BRANCH  10  12
ATOM     12  C   UNL     1       0.075  11.725  20.002  0.00  0.00    +0.000 A 
ATOM     13  C   UNL     1      -1.303  11.603  20.163  0.00  0.00    +0.000 A 
ATOM     14  C   UNL     1      -1.973  12.365  21.133  0.00  0.00    +0.000 A 
ATOM     15  C   UNL     1      -1.307  13.268  21.981  0.00  0.00    +0.000 A 
ATOM     16  C   UNL     1       0.077  13.392  21.767  0.00  0.00    +0.000 A 
ATOM     17  C   UNL     1       0.759  12.641  20.795  0.00  0.00    +0.000 A 
BRANCH  15  18
ATOM     18  N   UNL     1      -1.991  14.012  22.930  0.00  0.00    +0.000 N 
ATOM     19  C   UNL     1      -3.453  14.008  22.993  0.00  0.00    +0.000 C 
ATOM     20  C   UNL     1      -1.343  14.562  24.118  0.00  0.00    +0.000 C 
ENDBRANCH  15  18
ENDBRANCH  10  12
BRANCH   1  22
ATOM     21  C   UNL     1       1.148   3.193  20.982  0.00  0.00    +0.000 C 
ATOM     22  O   UNL     1       2.243   4.086  21.192  0.00  0.00    +0.000 OA
ENDBRANCH   1  22
BRANCH   6  23
ATOM     23  O   UNL     1       3.233   4.018  18.674  0.00  0.00    +0.000 OA
BRANCH  23  24
ATOM     24  C   UNL     1       4.656   3.834  18.787  0.00  0.00    +0.000 C 
BRANCH  24  25
ATOM     25  C   UNL     1       5.340   4.129  17.437  0.00  0.00    +0.000 C 
BRANCH  25  26
ATOM     26  N   UNL     1       6.503   5.042  17.535  0.00  0.00    +0.000 NA
ATOM     27  C   UNL     1       6.277   6.308  16.820  0.00  0.00    +0.000 C 
ATOM     28  C   UNL     1       7.506   7.217  16.882  0.00  0.00    +0.000 C 
ATOM     29  C   UNL     1       7.923   7.492  18.320  0.00  0.00    +0.000 C 
ATOM     30  C   UNL     1       8.078   6.183  19.084  0.00  0.00    +0.000 C 
ATOM     31  C   UNL     1       6.828   5.306  18.949  0.00  0.00    +0.000 C 
ENDBRANCH  25  26
ENDBRANCH  24  25
ENDBRANCH  23  24
ENDBRANCH   6  23
TORSDOF 7
ENDMDL
MODEL 4
REMARK VINA RESULT:      -8.2      1.098      1.532
REMARK  Name = 
REMARK  10 active torsions:
REMARK  status: ('A' for Active; 'I' for Inactive)
REMARK    1  A    between atoms: C_1  and  O_2
REMARK    2  A    between atoms: O_2  and  C_3
REMARK    3  A    between atoms: C_8  and  O_9
REMARK    4  A    between atoms: O_9  and  C_10
REMARK    5  A    between atoms: C_10  and  C_11
REMARK    6  A    between atoms: C_11  and  N_12
REMARK    7  A    between atoms: C_21  and  C_22
REMARK    8  A    between atoms: C_25  and  N_26
REMARK    9  A    between atoms: N_26  and  C_27
REMARK   10  A    between atoms: N_26  and  C_28
REMARK                            x       y       z     vdW  Elec       q    Type
REMARK                         _______ _______ _______ _____ _____    ______ ____
ROOT
ATOM      1  C   UNL     1       1.791   4.578  20.108  0.00  0.00    +0.000 A 
ATOM      2  C   UNL     1       1.394   5.780  20.714  0.00  0.00    +0.000 A 
ATOM      3  C   UNL     1       1.565   6.969  20.030  0.00  0.00    +0.000 A 
ATOM      4  C   UNL     1       2.120   6.974  18.766  0.00  0.00    +0.000 A 
ATOM      5  C   UNL     1       2.537   5.817  18.125  0.00  0.00    +0.000 A 
ATOM      6  C   UNL     1       2.369   4.593  18.804  0.00  0.00    +0.000 A 
ATOM      7  C   UNL     1       2.123   8.352  18.251  0.00  0.00    +0.000 C 
ATOM      8  O   UNL     1       2.546   8.722  17.177  0.00  0.00    +0.000 OA
ATOM      9  C   UNL     1       1.493   9.202  19.322  0.00  0.00    +0.000 C 
ATOM     10  C   UNL     1       1.248  10.508  19.164  0.00  0.00    +0.000 C 
ATOM     11  C   UNL     1       1.170   8.329  20.500  0.00  0.00    +0.000 C 
ENDROOT
BRANCH  10  12
ATOM     12  C   UNL     1       0.614  11.309  20.207  0.00  0.00    +0.000 A 
ATOM     13  C   UNL     1       1.119  12.562  20.545  0.00  0.00    +0.000 A 
ATOM     14  C   UNL     1       0.495  13.335  21.537  0.00  0.00    +0.000 A 
ATOM     15  C   UNL     1      -0.652  12.900  22.225  0.00  0.00    +0.000 A 
ATOM     16  C   UNL     1      -1.114  11.617  21.884  0.00  0.00    +0.000 A 
ATOM     17  C   UNL     1      -0.494  10.830  20.899  0.00  0.00    +0.000 A 
BRANCH  15  18
ATOM     18  N   UNL     1      -1.250  13.680  23.204  0.00  0.00    +0.000 N 
ATOM     19  C   UNL     1      -0.733  15.006  23.543  0.00  0.00    +0.000 C 
ATOM     20  C   UNL     1      -2.593  13.413  23.712  0.00  0.00    +0.000 C 
ENDBRANCH  15  18
ENDBRANCH  10  12
BRANCH   1  22
ATOM     21  C   UNL     1       2.494   3.025  21.776  0.00  0.00    +0.000 C 
ATOM     22  O   UNL     1       1.600   3.357  20.712  0.00  0.00    +0.000 OA
ENDBRANCH   1  22
BRANCH   6  23
ATOM     23  O   UNL     1       2.697   3.377  18.239  0.00  0.00    +0.000 OA
BRANCH  23  24
ATOM     24  C   UNL     1       4.038   3.273  17.727  0.00  0.00    +0.000 C 
BRANCH  24  25
ATOM     25  C   UNL     1       5.058   3.627  18.828  0.00  0.00    +0.000 C 
BRANCH  25  26
ATOM     26  N   UNL     1       6.204   4.437  18.352  0.00  0.00    +0.000 NA
ATOM     27  C   UNL     1       5.924   5.093  17.065  0.00  0.00    +0.000 C 
ATOM     28  C   UNL     1       7.135   5.879  16.559  0.00  0.00    +0.000 C 
ATOM     29  C   UNL     1       7.600   6.906  17.582  0.00  0.00    +0.000 C 
ATOM     30  C   UNL     1       7.811   6.242  18.937  0.00  0.00    +0.000 C 
ATOM     31  C   UNL     1       6.576   5.441  19.366  0.00  0.00    +0.000 C 
ENDBRANCH  25  26
ENDBRANCH  24  25
ENDBRANCH  23  24
ENDBRANCH   6  23
TORSDOF 7
ENDMDL
MODEL 5
REMARK VINA RESULT:      -8.0      2.143     10.206
REMARK  Name = 
REMARK  10 active torsions:
REMARK  status: ('A' for Active; 'I' for Inactive)
REMARK    1  A    between atoms: C_1  and  O_2
REMARK    2  A    between atoms: O_2  and  C_3
REMARK    3  A    between atoms: C_8  and  O_9
REMARK    4  A    between atoms: O_9  and  C_10
REMARK    5  A    between atoms: C_10  and  C_11
REMARK    6  A    between atoms: C_11  and  N_12
REMARK    7  A    between atoms: C_21  and  C_22
REMARK    8  A    between atoms: C_25  and  N_26
REMARK    9  A    between atoms: N_26  and  C_27
REMARK   10  A    between atoms: N_26  and  C_28
REMARK                            x       y       z     vdW  Elec       q    Type
REMARK                         _______ _______ _______ _____ _____    ______ ____
ROOT
ATOM      1  C   UNL     1       0.925   9.478  19.158  0.00  0.00    +0.000 A 
ATOM      2  C   UNL     1       1.874   8.965  18.260  0.00  0.00    +0.000 A 
ATOM      3  C   UNL     1       2.509   7.773  18.558  0.00  0.00    +0.000 A 
ATOM      4  C   UNL     1       2.213   7.097  19.724  0.00  0.00    +0.000 A 
ATOM      5  C   UNL     1       1.290   7.563  20.649  0.00  0.00    +0.000 A 
ATOM      6  C   UNL     1       0.629   8.775  20.363  0.00  0.00    +0.000 A 
ATOM      7  C   UNL     1       2.976   5.840  19.754  0.00  0.00    +0.000 C 
ATOM      8  O   UNL     1       2.966   5.007  20.635  0.00  0.00    +0.000 OA
ATOM      9  C   UNL     1       3.765   5.797  18.473  0.00  0.00    +0.000 C 
ATOM     10  C   UNL     1       4.516   4.749  18.116  0.00  0.00    +0.000 C 
ATOM     11  C   UNL     1       3.511   7.065  17.709  0.00  0.00    +0.000 C 
ENDROOT
BRANCH  10  12
ATOM     12  C   UNL     1       5.255   4.717  16.856  0.00  0.00    +0.000 A 
ATOM     13  C   UNL     1       4.723   4.080  15.737  0.00  0.00    +0.000 A 
ATOM     14  C   UNL     1       5.431   4.068  14.525  0.00  0.00    +0.000 A 
ATOM     15  C   UNL     1       6.685   4.689  14.374  0.00  0.00    +0.000 A 
ATOM     16  C   UNL     1       7.207   5.291  15.532  0.00  0.00    +0.000 A 
ATOM     17  C   UNL     1       6.512   5.303  16.753  0.00  0.00    +0.000 A 
BRANCH  15  18
ATOM     18  N   UNL     1       7.367   4.661  13.167  0.00  0.00    +0.000 N 
ATOM     19  C   UNL     1       6.883   3.869  12.036  0.00  0.00    +0.000 C 
ATOM     20  C   UNL     1       8.386   5.647  12.815  0.00  0.00    +0.000 C 
ENDBRANCH  15  18
ENDBRANCH  10  12
BRANCH   1  22
ATOM     21  C   UNL     1      -0.911  10.502  18.031  0.00  0.00    +0.000 C 
ATOM     22  O   UNL     1       0.219  10.630  18.895  0.00  0.00    +0.000 OA
ENDBRANCH   1  22
BRANCH   6  23
ATOM     23  O   UNL     1      -0.346   9.302  21.184  0.00  0.00    +0.000 OA
BRANCH  23  24
ATOM     24  C   UNL     1       0.126  10.179  22.224  0.00  0.00    +0.000 C 
BRANCH  24  25
ATOM     25  C   UNL     1      -1.011  10.487  23.219  0.00  0.00    +0.000 C 
BRANCH  25  26
ATOM     26  N   UNL     1      -1.320  11.930  23.356  0.00  0.00    +0.000 NA
ATOM     27  C   UNL     1      -0.646  12.742  22.331  0.00  0.00    +0.000 C 
ATOM     28  C   UNL     1      -0.929  14.233  22.519  0.00  0.00    +0.000 C 
ATOM     29  C   UNL     1      -2.424  14.521  22.519  0.00  0.00    +0.000 C 
ATOM     30  C   UNL     1      -3.134  13.622  23.523  0.00  0.00    +0.000 C 
ATOM     31  C   UNL     1      -2.777  12.147  23.303  0.00  0.00    +0.000 C 
ENDBRANCH  25  26
ENDBRANCH  24  25
ENDBRANCH  23  24
ENDBRANCH   6  23
TORSDOF 7
ENDMDL
MODEL 6
REMARK VINA RESULT:      -7.9      2.190     10.199
REMARK  Name = 
REMARK  10 active torsions:
REMARK  status: ('A' for Active; 'I' for Inactive)
REMARK    1  A    between atoms: C_1  and  O_2
REMARK    2  A    between atoms: O_2  and  C_3
REMARK    3  A    between atoms: C_8  and  O_9
REMARK    4  A    between atoms: O_9  and  C_10
REMARK    5  A    between atoms: C_10  and  C_11
REMARK    6  A    between atoms: C_11  and  N_12
REMARK    7  A    between atoms: C_21  and  C_22
REMARK    8  A    between atoms: C_25  and  N_26
REMARK    9  A    between atoms: N_26  and  C_27
REMARK   10  A    between atoms: N_26  and  C_28
REMARK                            x       y       z     vdW  Elec       q    Type
REMARK                         _______ _______ _______ _____ _____    ______ ____
ROOT
ATOM      1  C   UNL     1       0.999   9.891  18.928  0.00  0.00    +0.000 A 
ATOM      2  C   UNL     1       1.932   9.316  18.051  0.00  0.00    +0.000 A 
ATOM      3  C   UNL     1       2.515   8.107  18.385  0.00  0.00    +0.000 A 
ATOM      4  C   UNL     1       2.183   7.474  19.565  0.00  0.00    +0.000 A 
ATOM      5  C   UNL     1       1.274   8.002  20.470  0.00  0.00    +0.000 A 
ATOM      6  C   UNL     1       0.666   9.232  20.148  0.00  0.00    +0.000 A 
ATOM      7  C   UNL     1       2.894   6.189  19.634  0.00  0.00    +0.000 C 
ATOM      8  O   UNL     1       2.843   5.380  20.536  0.00  0.00    +0.000 OA
ATOM      9  C   UNL     1       3.690   6.080  18.361  0.00  0.00    +0.000 C 
ATOM     10  C   UNL     1       4.399   4.992  18.036  0.00  0.00    +0.000 C 
ATOM     11  C   UNL     1       3.493   7.337  17.563  0.00  0.00    +0.000 C 
ENDROOT
BRANCH  10  12
ATOM     12  C   UNL     1       5.145   4.898  16.784  0.00  0.00    +0.000 A 
ATOM     13  C   UNL     1       6.460   5.349  16.706  0.00  0.00    +0.000 A 
ATOM     14  C   UNL     1       7.177   5.240  15.504  0.00  0.00    +0.000 A 
ATOM     15  C   UNL     1       6.623   4.678  14.340  0.00  0.00    +0.000 A 
ATOM     16  C   UNL     1       5.283   4.267  14.444  0.00  0.00    +0.000 A 
ATOM     17  C   UNL     1       4.551   4.377  15.638  0.00  0.00    +0.000 A 
BRANCH  15  18
ATOM     18  N   UNL     1       7.350   4.584  13.162  0.00  0.00    +0.000 N 
ATOM     19  C   UNL     1       6.947   3.675  12.089  0.00  0.00    +0.000 C 
ATOM     20  C   UNL     1       8.330   5.589  12.759  0.00  0.00    +0.000 C 
ENDBRANCH  15  18
ENDBRANCH  10  12
BRANCH   1  22
ATOM     21  C   UNL     1       1.038  12.275  18.928  0.00  0.00    +0.000 C 
ATOM     22  O   UNL     1       0.343  11.064  18.630  0.00  0.00    +0.000 OA
ENDBRANCH   1  22
BRANCH   6  23
ATOM     23  O   UNL     1      -0.293   9.820  20.948  0.00  0.00    +0.000 OA
BRANCH  23  24
ATOM     24  C   UNL     1      -0.340   9.350  22.307  0.00  0.00    +0.000 C 
BRANCH  24  25
ATOM     25  C   UNL     1      -0.825  10.474  23.244  0.00  0.00    +0.000 C 
BRANCH  25  26
ATOM     26  N   UNL     1      -1.553  11.565  22.553  0.00  0.00    +0.000 NA
ATOM     27  C   UNL     1      -2.752  11.987  23.294  0.00  0.00    +0.000 C 
ATOM     28  C   UNL     1      -3.523  13.074  22.542  0.00  0.00    +0.000 C 
ATOM     29  C   UNL     1      -2.640  14.277  22.241  0.00  0.00    +0.000 C 
ATOM     30  C   UNL     1      -1.359  13.830  21.548  0.00  0.00    +0.000 C 
ATOM     31  C   UNL     1      -0.658  12.715  22.332  0.00  0.00    +0.000 C 
ENDBRANCH  25  26
ENDBRANCH  24  25
ENDBRANCH  23  24
ENDBRANCH   6  23
TORSDOF 7
ENDMDL
MODEL 7
REMARK VINA RESULT:      -7.9      2.689      4.611
REMARK  Name = 
REMARK  10 active torsions:
REMARK  status: ('A' for Active; 'I' for Inactive)
REMARK    1  A    between atoms: C_1  and  O_2
REMARK    2  A    between atoms: O_2  and  C_3
REMARK    3  A    between atoms: C_8  and  O_9
REMARK    4  A    between atoms: O_9  and  C_10
REMARK    5  A    between atoms: C_10  and  C_11
REMARK    6  A    between atoms: C_11  and  N_12
REMARK    7  A    between atoms: C_21  and  C_22
REMARK    8  A    between atoms: C_25  and  N_26
REMARK    9  A    between atoms: N_26  and  C_27
REMARK   10  A    between atoms: N_26  and  C_28
REMARK                            x       y       z     vdW  Elec       q    Type
REMARK                         _______ _______ _______ _____ _____    ______ ____
ROOT
ATOM      1  C   UNL     1       4.460   6.411  16.979  0.00  0.00    +0.000 A 
ATOM      2  C   UNL     1       3.917   7.704  17.053  0.00  0.00    +0.000 A 
ATOM      3  C   UNL     1       2.992   7.990  18.041  0.00  0.00    +0.000 A 
ATOM      4  C   UNL     1       2.607   7.017  18.940  0.00  0.00    +0.000 A 
ATOM      5  C   UNL     1       3.106   5.723  18.906  0.00  0.00    +0.000 A 
ATOM      6  C   UNL     1       4.053   5.411  17.910  0.00  0.00    +0.000 A 
ATOM      7  C   UNL     1       1.673   7.607  19.911  0.00  0.00    +0.000 C 
ATOM      8  O   UNL     1       1.131   7.037  20.833  0.00  0.00    +0.000 OA
ATOM      9  C   UNL     1       1.531   9.057  19.531  0.00  0.00    +0.000 C 
ATOM     10  C   UNL     1       0.820   9.932  20.250  0.00  0.00    +0.000 C 
ATOM     11  C   UNL     1       2.342   9.309  18.292  0.00  0.00    +0.000 C 
ENDROOT
BRANCH  10  12
ATOM     12  C   UNL     1       0.715  11.341  19.876  0.00  0.00    +0.000 A 
ATOM     13  C   UNL     1       1.436  12.313  20.566  0.00  0.00    +0.000 A 
ATOM     14  C   UNL     1       1.344  13.662  20.191  0.00  0.00    +0.000 A 
ATOM     15  C   UNL     1       0.543  14.097  19.119  0.00  0.00    +0.000 A 
ATOM     16  C   UNL     1      -0.197  13.095  18.469  0.00  0.00    +0.000 A 
ATOM     17  C   UNL     1      -0.121  11.742  18.839  0.00  0.00    +0.000 A 
BRANCH  15  18
ATOM     18  N   UNL     1       0.465  15.437  18.769  0.00  0.00    +0.000 N 
ATOM     19  C   UNL     1      -0.696  16.253  19.127  0.00  0.00    +0.000 C 
ATOM     20  C   UNL     1       1.630  16.209  18.342  0.00  0.00    +0.000 C 
ENDBRANCH  15  18
ENDBRANCH  10  12
BRANCH   1  22
ATOM     21  C   UNL     1       6.782   6.184  16.484  0.00  0.00    +0.000 C 
ATOM     22  O   UNL     1       5.424   6.077  16.055  0.00  0.00    +0.000 OA
ENDBRANCH   1  22
BRANCH   6  23
ATOM     23  O   UNL     1       4.655   4.173  17.818  0.00  0.00    +0.000 OA
BRANCH  23  24
ATOM     24  C   UNL     1       3.875   3.150  17.170  0.00  0.00    +0.000 C 
BRANCH  24  25
ATOM     25  C   UNL     1       3.814   1.887  18.052  0.00  0.00    +0.000 C 
BRANCH  25  26
ATOM     26  N   UNL     1       2.848   1.977  19.172  0.00  0.00    +0.000 NA
ATOM     27  C   UNL     1       3.446   2.582  20.373  0.00  0.00    +0.000 C 
ATOM     28  C   UNL     1       2.455   2.616  21.538  0.00  0.00    +0.000 C 
ATOM     29  C   UNL     1       1.176   3.351  21.159  0.00  0.00    +0.000 C 
ATOM     30  C   UNL     1       0.601   2.779  19.870  0.00  0.00    +0.000 C 
ATOM     31  C   UNL     1       1.655   2.737  18.757  0.00  0.00    +0.000 C 
ENDBRANCH  25  26
ENDBRANCH  24  25
ENDBRANCH  23  24
ENDBRANCH   6  23
TORSDOF 7
ENDMDL
MODEL 8
REMARK VINA RESULT:      -7.8      0.849      1.107
REMARK  Name = 
REMARK  10 active torsions:
REMARK  status: ('A' for Active; 'I' for Inactive)
REMARK    1  A    between atoms: C_1  and  O_2
REMARK    2  A    between atoms: O_2  and  C_3
REMARK    3  A    between atoms: C_8  and  O_9
REMARK    4  A    between atoms: O_9  and  C_10
REMARK    5  A    between atoms: C_10  and  C_11
REMARK    6  A    between atoms: C_11  and  N_12
REMARK    7  A    between atoms: C_21  and  C_22
REMARK    8  A    between atoms: C_25  and  N_26
REMARK    9  A    between atoms: N_26  and  C_27
REMARK   10  A    between atoms: N_26  and  C_28
REMARK                            x       y       z     vdW  Elec       q    Type
REMARK                         _______ _______ _______ _____ _____    ______ ____
ROOT
ATOM      1  C   UNL     1       2.083   4.846  19.868  0.00  0.00    +0.000 A 
ATOM      2  C   UNL     1       1.608   5.987  20.534  0.00  0.00    +0.000 A 
ATOM      3  C   UNL     1       1.665   7.213  19.895  0.00  0.00    +0.000 A 
ATOM      4  C   UNL     1       2.183   7.312  18.620  0.00  0.00    +0.000 A 
ATOM      5  C   UNL     1       2.674   6.219  17.922  0.00  0.00    +0.000 A 
ATOM      6  C   UNL     1       2.622   4.959  18.553  0.00  0.00    +0.000 A 
ATOM      7  C   UNL     1       2.063   8.705  18.163  0.00  0.00    +0.000 C 
ATOM      8  O   UNL     1       2.425   9.150  17.095  0.00  0.00    +0.000 OA
ATOM      9  C   UNL     1       1.396   9.458  19.282  0.00  0.00    +0.000 C 
ATOM     10  C   UNL     1       1.044  10.746  19.185  0.00  0.00    +0.000 C 
ATOM     11  C   UNL     1       1.176   8.516  20.431  0.00  0.00    +0.000 C 
ENDROOT
BRANCH  10  12
ATOM     12  C   UNL     1       0.376  11.452  20.275  0.00  0.00    +0.000 A 
ATOM     13  C   UNL     1       0.935  12.605  20.821  0.00  0.00    +0.000 A 
ATOM     14  C   UNL     1       0.280  13.288  21.857  0.00  0.00    +0.000 A 
ATOM     15  C   UNL     1      -0.951  12.860  22.386  0.00  0.00    +0.000 A 
ATOM     16  C   UNL     1      -1.469  11.675  21.837  0.00  0.00    +0.000 A 
ATOM     17  C   UNL     1      -0.819  10.977  20.805  0.00  0.00    +0.000 A 
BRANCH  15  18
ATOM     18  N   UNL     1      -1.579  13.551  23.413  0.00  0.00    +0.000 N 
ATOM     19  C   UNL     1      -1.070  14.837  23.889  0.00  0.00    +0.000 C 
ATOM     20  C   UNL     1      -2.938  13.245  23.853  0.00  0.00    +0.000 C 
ENDBRANCH  15  18
ENDBRANCH  10  12
BRANCH   1  22
ATOM     21  C   UNL     1       2.220   3.505  21.836  0.00  0.00    +0.000 C 
ATOM     22  O   UNL     1       2.005   3.591  20.426  0.00  0.00    +0.000 OA
ENDBRANCH   1  22
BRANCH   6  23
ATOM     23  O   UNL     1       3.030   3.798  17.930  0.00  0.00    +0.000 OA
BRANCH  23  24
ATOM     24  C   UNL     1       4.390   3.401  18.187  0.00  0.00    +0.000 C 
BRANCH  24  25
ATOM     25  C   UNL     1       5.347   4.117  17.214  0.00  0.00    +0.000 C 
BRANCH  25  26
ATOM     26  N   UNL     1       5.991   5.326  17.779  0.00  0.00    +0.000 NA
ATOM     27  C   UNL     1       7.355   5.054  18.260  0.00  0.00    +0.000 C 
ATOM     28  C   UNL     1       7.987   6.297  18.892  0.00  0.00    +0.000 C 
ATOM     29  C   UNL     1       7.995   7.471  17.923  0.00  0.00    +0.000 C 
ATOM     30  C   UNL     1       6.597   7.701  17.361  0.00  0.00    +0.000 C 
ATOM     31  C   UNL     1       6.009   6.410  16.780  0.00  0.00    +0.000 C 
ENDBRANCH  25  26
ENDBRANCH  24  25
ENDBRANCH  23  24
ENDBRANCH   6  23
TORSDOF 7
ENDMDL
MODEL 9
REMARK VINA RESULT:      -7.8      2.147     10.260
REMARK  Name = 
REMARK  10 active torsions:
REMARK  status: ('A' for Active; 'I' for Inactive)
REMARK    1  A    between atoms: C_1  and  O_2
REMARK    2  A    between atoms: O_2  and  C_3
REMARK    3  A    between atoms: C_8  and  O_9
REMARK    4  A    between atoms: O_9  and  C_10
REMARK    5  A    between atoms: C_10  and  C_11
REMARK    6  A    between atoms: C_11  and  N_12
REMARK    7  A    between atoms: C_21  and  C_22
REMARK    8  A    between atoms: C_25  and  N_26
REMARK    9  A    between atoms: N_26  and  C_27
REMARK   10  A    between atoms: N_26  and  C_28
REMARK                            x       y       z     vdW  Elec       q    Type
REMARK                         _______ _______ _______ _____ _____    ______ ____
ROOT
ATOM      1  C   UNL     1       0.734   9.780  18.917  0.00  0.00    +0.000 A 
ATOM      2  C   UNL     1       1.683   9.225  18.043  0.00  0.00    +0.000 A 
ATOM      3  C   UNL     1       2.354   8.076  18.418  0.00  0.00    +0.000 A 
ATOM      4  C   UNL     1       2.095   7.482  19.636  0.00  0.00    +0.000 A 
ATOM      5  C   UNL     1       1.174   7.993  20.540  0.00  0.00    +0.000 A 
ATOM      6  C   UNL     1       0.477   9.162  20.176  0.00  0.00    +0.000 A 
ATOM      7  C   UNL     1       2.892   6.251  19.747  0.00  0.00    +0.000 C 
ATOM      8  O   UNL     1       2.917   5.486  20.687  0.00  0.00    +0.000 OA
ATOM      9  C   UNL     1       3.662   6.132  18.458  0.00  0.00    +0.000 C 
ATOM     10  C   UNL     1       4.434   5.079  18.167  0.00  0.00    +0.000 C 
ATOM     11  C   UNL     1       3.361   7.331  17.607  0.00  0.00    +0.000 C 
ENDROOT
BRANCH  10  12
ATOM     12  C   UNL     1       5.154   4.972  16.900  0.00  0.00    +0.000 A 
ATOM     13  C   UNL     1       6.383   5.604  16.728  0.00  0.00    +0.000 A 
ATOM     14  C   UNL     1       7.077   5.483  15.514  0.00  0.00    +0.000 A 
ATOM     15  C   UNL     1       6.586   4.731  14.432  0.00  0.00    +0.000 A 
ATOM     16  C   UNL     1       5.327   4.137  14.627  0.00  0.00    +0.000 A 
ATOM     17  C   UNL     1       4.618   4.256  15.834  0.00  0.00    +0.000 A 
BRANCH  15  18
ATOM     18  N   UNL     1       7.289   4.629  13.240  0.00  0.00    +0.000 N 
ATOM     19  C   UNL     1       6.836   3.750  12.161  0.00  0.00    +0.000 C 
ATOM     20  C   UNL     1       8.297   5.605  12.834  0.00  0.00    +0.000 C 
ENDBRANCH  15  18
ENDBRANCH  10  12
BRANCH   1  22
ATOM     21  C   UNL     1      -1.226  10.655  17.877  0.00  0.00    +0.000 C 
ATOM     22  O   UNL     1      -0.006  10.891  18.581  0.00  0.00    +0.000 OA
ENDBRANCH   1  22
BRANCH   6  23
ATOM     23  O   UNL     1      -0.499   9.725  20.973  0.00  0.00    +0.000 OA
BRANCH  23  24
ATOM     24  C   UNL     1      -0.021  10.461  22.113  0.00  0.00    +0.000 C 
BRANCH  24  25
ATOM     25  C   UNL     1      -0.071  11.976  21.829  0.00  0.00    +0.000 C 
BRANCH  25  26
ATOM     26  N   UNL     1      -1.377  12.606  22.137  0.00  0.00    +0.000 NA
ATOM     27  C   UNL     1      -2.214  12.763  20.937  0.00  0.00    +0.000 C 
ATOM     28  C   UNL     1      -3.534  13.465  21.261  0.00  0.00    +0.000 C 
ATOM     29  C   UNL     1      -4.305  12.729  22.347  0.00  0.00    +0.000 C 
ATOM     30  C   UNL     1      -3.413  12.493  23.559  0.00  0.00    +0.000 C 
ATOM     31  C   UNL     1      -2.093  11.823  23.160  0.00  0.00    +0.000 C 
ENDBRANCH  25  26
ENDBRANCH  24  25
ENDBRANCH  23  24
ENDBRANCH   6  23
TORSDOF 7
ENDMDL
