MODEL 1
REMARK VINA RESULT:      -8.2      0.000      0.000
REMARK  Name = 
REMARK  9 active torsions:
REMARK  status: ('A' for Active; 'I' for Inactive)
REMARK    1  A    between atoms: C_1  and  O_2
REMARK    2  A    between atoms: O_2  and  C_3
REMARK    3  A    between atoms: C_6  and  C_7
REMARK    4  A    between atoms: C_8  and  C_9
REMARK    5  A    between atoms: C_11  and  N_12
REMARK    6  A    between atoms: C_19  and  C_20
REMARK    7  A    between atoms: C_19  and  C_21
REMARK    8  A    between atoms: C_24  and  O_25
REMARK    9  A    between atoms: O_25  and  C_26
REMARK                            x       y       z     vdW  Elec       q    Type
REMARK                         _______ _______ _______ _____ _____    ______ ____
ROOT
ATOM      1  C   UNL     1       5.393   6.141  17.616  0.00  0.00    +0.000 C 
ATOM      2  C   UNL     1       6.701   6.313  18.375  0.00  0.00    +0.000 C 
ATOM      3  C   UNL     1       7.016   5.482  19.396  0.00  0.00    +0.000 C 
ATOM      4  O   UNL     1       6.151   4.447  19.768  0.00  0.00    +0.000 OA
ATOM      5  C   UNL     1       4.818   4.499  19.373  0.00  0.00    +0.000 C 
ATOM      6  C   UNL     1       4.398   5.362  18.439  0.00  0.00    +0.000 C 
ATOM      7  C   UNL     1       2.947   5.480  18.138  0.00  0.00    +0.000 C 
ATOM      8  O   UNL     1       2.543   6.355  17.380  0.00  0.00    +0.000 OA
ATOM      9  C   UNL     1       1.994   4.560  18.880  0.00  0.00    +0.000 C 
ATOM     10  C   UNL     1       2.642   3.196  19.183  0.00  0.00    +0.000 C 
ATOM     11  C   UNL     1       1.699   2.341  20.045  0.00  0.00    +0.000 C 
ATOM     12  C   UNL     1       2.886   2.430  17.861  0.00  0.00    +0.000 C 
ATOM     13  C   UNL     1       3.954   3.429  19.972  0.00  0.00    +0.000 C 
ENDROOT
BRANCH   1  17
ATOM     14  C   UNL     1       6.183   4.021  13.881  0.00  0.00    +0.000 A 
ATOM     15  C   UNL     1       5.101   3.649  14.704  0.00  0.00    +0.000 A 
ATOM     16  C   UNL     1       4.812   4.332  15.894  0.00  0.00    +0.000 A 
ATOM     17  C   UNL     1       5.625   5.385  16.299  0.00  0.00    +0.000 A 
ATOM     18  C   UNL     1       6.739   5.701  15.497  0.00  0.00    +0.000 A 
ATOM     19  C   UNL     1       7.052   5.020  14.319  0.00  0.00    +0.000 A 
BRANCH  14  21
ATOM     20  C   UNL     1       5.204   3.188  11.912  0.00  0.00    +0.000 C 
ATOM     21  O   UNL     1       6.395   3.417  12.670  0.00  0.00    +0.000 OA
ENDBRANCH  14  21
BRANCH  19  22
ATOM     22  O   UNL     1       8.211   5.500  13.781  0.00  0.00    +0.000 OA
ATOM     23  C   UNL     1       8.260   5.890  12.422  0.00  0.00    +0.000 C 
ENDBRANCH  19  22
ENDBRANCH   1  17
BRANCH   3  24
ATOM     24  N   UNL     1       8.167   5.513  20.145  0.00  0.00    +0.000 N 
ATOM     25  H   UNL     1       8.348   6.385  20.635  0.00  0.00    +0.000 HD
ATOM     26  H   UNL     1       8.972   5.178  19.620  0.00  0.00    +0.000 HD
ENDBRANCH   3  24
BRANCH   2  27
ATOM     27  C   UNL     1       7.558   7.385  17.993  0.00  0.00    +0.000 C 
ATOM     28  N   UNL     1       8.247   8.267  17.689  0.00  0.00    +0.000 NA
ENDBRANCH   2  27
TORSDOF 5
ENDMDL
MODEL 2
REMARK VINA RESULT:      -7.3      2.701      4.099
REMARK  Name = 
REMARK  9 active torsions:
REMARK  status: ('A' for Active; 'I' for Inactive)
REMARK    1  A    between atoms: C_1  and  O_2
REMARK    2  A    between atoms: O_2  and  C_3
REMARK    3  A    between atoms: C_6  and  C_7
REMARK    4  A    between atoms: C_8  and  C_9
REMARK    5  A    between atoms: C_11  and  N_12
REMARK    6  A    between atoms: C_19  and  C_20
REMARK    7  A    between atoms: C_19  and  C_21
REMARK    8  A    between atoms: C_24  and  O_25
REMARK    9  A    between atoms: O_25  and  C_26
REMARK                            x       y       z     vdW  Elec       q    Type
REMARK                         _______ _______ _______ _____ _____    ______ ____
ROOT
ATOM      1  C   UNL     1       2.344   6.190  18.274  0.00  0.00    +0.000 C 
ATOM      2  C   UNL     1       2.120   7.552  18.916  0.00  0.00    +0.000 C 
ATOM      3  C   UNL     1       1.925   7.657  20.251  0.00  0.00    +0.000 C 
ATOM      4  O   UNL     1       1.931   6.521  21.066  0.00  0.00    +0.000 OA
ATOM      5  C   UNL     1       1.748   5.269  20.490  0.00  0.00    +0.000 C 
ATOM      6  C   UNL     1       1.824   5.090  19.165  0.00  0.00    +0.000 C 
ATOM      7  C   UNL     1       1.491   3.766  18.574  0.00  0.00    +0.000 C 
ATOM      8  O   UNL     1       1.433   3.630  17.358  0.00  0.00    +0.000 OA
ATOM      9  C   UNL     1       1.124   2.640  19.525  0.00  0.00    +0.000 C 
ATOM     10  C   UNL     1       1.882   2.755  20.861  0.00  0.00    +0.000 C 
ATOM     11  C   UNL     1       1.392   1.680  21.843  0.00  0.00    +0.000 C 
ATOM     12  C   UNL     1       3.392   2.517  20.624  0.00  0.00    +0.000 C 
ATOM     13  C   UNL     1       1.603   4.148  21.477  0.00  0.00    +0.000 C 
ENDROOT
BRANCH   1  17
ATOM     14  C   UNL     1       6.590   5.559  17.469  0.00  0.00    +0.000 A 
ATOM     15  C   UNL     1       6.109   5.616  18.793  0.00  0.00    +0.000 A 
ATOM     16  C   UNL     1       4.748   5.791  19.075  0.00  0.00    +0.000 A 
ATOM     17  C   UNL     1       3.841   5.944  18.031  0.00  0.00    +0.000 A 
ATOM     18  C   UNL     1       4.348   5.949  16.717  0.00  0.00    +0.000 A 
ATOM     19  C   UNL     1       5.703   5.794  16.418  0.00  0.00    +0.000 A 
BRANCH  14  21
ATOM     20  C   UNL     1       8.510   4.367  18.116  0.00  0.00    +0.000 C 
ATOM     21  O   UNL     1       7.905   5.284  17.201  0.00  0.00    +0.000 OA
ENDBRANCH  14  21
BRANCH  19  22
ATOM     22  O   UNL     1       5.912   5.895  15.074  0.00  0.00    +0.000 OA
ATOM     23  C   UNL     1       6.089   4.732  14.289  0.00  0.00    +0.000 C 
ENDBRANCH  19  22
ENDBRANCH   1  17
BRANCH   3  24
ATOM     24  N   UNL     1       1.734   8.821  20.956  0.00  0.00    +0.000 N 
ATOM     25  H   UNL     1       1.830   8.744  21.965  0.00  0.00    +0.000 HD
ATOM     26  H   UNL     1       0.882   9.301  20.675  0.00  0.00    +0.000 HD
ENDBRANCH   3  24
BRANCH   2  27
ATOM     27  C   UNL     1       2.097   8.694  18.064  0.00  0.00    +0.000 C 
ATOM     28  N   UNL     1       2.065   9.623  17.370  0.00  0.00    +0.000 NA
ENDBRANCH   2  27
TORSDOF 5
ENDMDL
MODEL 3
REMARK VINA RESULT:      -7.2      2.789      3.886
REMARK  Name = 
REMARK  9 active torsions:
REMARK  status: ('A' for Active; 'I' for Inactive)
REMARK    1  A    between atoms: C_1  and  O_2
REMARK    2  A    between atoms: O_2  and  C_3
REMARK    3  A    between atoms: C_6  and  C_7
REMARK    4  A    between atoms: C_8  and  C_9
REMARK    5  A    between atoms: C_11  and  N_12
REMARK    6  A    between atoms: C_19  and  C_20
REMARK    7  A    between atoms: C_19  and  C_21
REMARK    8  A    between atoms: C_24  and  O_25
REMARK    9  A    between atoms: O_25  and  C_26
REMARK                            x       y       z     vdW  Elec       q    Type
REMARK                         _______ _______ _______ _____ _____    ______ ____
ROOT
ATOM      1  C   UNL     1       2.160   6.116  18.126  0.00  0.00    +0.000 C 
ATOM      2  C   UNL     1       2.095   7.484  18.792  0.00  0.00    +0.000 C 
ATOM      3  C   UNL     1       2.187   7.595  20.138  0.00  0.00    +0.000 C 
ATOM      4  O   UNL     1       2.350   6.462  20.940  0.00  0.00    +0.000 OA
ATOM      5  C   UNL     1       2.031   5.210  20.423  0.00  0.00    +0.000 C 
ATOM      6  C   UNL     1       1.824   5.027  19.112  0.00  0.00    +0.000 C 
ATOM      7  C   UNL     1       1.356   3.706  18.613  0.00  0.00    +0.000 C 
ATOM      8  O   UNL     1       1.041   3.567  17.437  0.00  0.00    +0.000 OA
ATOM      9  C   UNL     1       1.183   2.589  19.627  0.00  0.00    +0.000 C 
ATOM     10  C   UNL     1       2.207   2.697  20.772  0.00  0.00    +0.000 C 
ATOM     11  C   UNL     1       1.921   1.631  21.842  0.00  0.00    +0.000 C 
ATOM     12  C   UNL     1       3.630   2.435  20.224  0.00  0.00    +0.000 C 
ATOM     13  C   UNL     1       2.083   4.095  21.425  0.00  0.00    +0.000 C 
ENDROOT
BRANCH   1  17
ATOM     14  C   UNL     1       6.207   5.462  16.622  0.00  0.00    +0.000 A 
ATOM     15  C   UNL     1       5.320   4.380  16.794  0.00  0.00    +0.000 A 
ATOM     16  C   UNL     1       4.008   4.569  17.249  0.00  0.00    +0.000 A 
ATOM     17  C   UNL     1       3.568   5.848  17.574  0.00  0.00    +0.000 A 
ATOM     18  C   UNL     1       4.489   6.908  17.458  0.00  0.00    +0.000 A 
ATOM     19  C   UNL     1       5.804   6.736  17.022  0.00  0.00    +0.000 A 
BRANCH  14  21
ATOM     20  C   UNL     1       7.438   4.888  14.703  0.00  0.00    +0.000 C 
ATOM     21  O   UNL     1       7.451   5.281  16.078  0.00  0.00    +0.000 OA
ENDBRANCH  14  21
BRANCH  19  22
ATOM     22  O   UNL     1       6.481   7.919  17.060  0.00  0.00    +0.000 OA
ATOM     23  C   UNL     1       7.722   8.011  17.733  0.00  0.00    +0.000 C 
ENDBRANCH  19  22
ENDBRANCH   1  17
BRANCH   3  24
ATOM     24  N   UNL     1       2.165   8.764  20.860  0.00  0.00    +0.000 N 
ATOM     25  H   UNL     1       2.317   8.664  21.860  0.00  0.00    +0.000 HD
ATOM     26  H   UNL     1       1.351   9.334  20.638  0.00  0.00    +0.000 HD
ENDBRANCH   3  24
BRANCH   2  27
ATOM     27  C   UNL     1       1.908   8.623  17.958  0.00  0.00    +0.000 C 
ATOM     28  N   UNL     1       1.750   9.557  17.288  0.00  0.00    +0.000 NA
ENDBRANCH   2  27
TORSDOF 5
ENDMDL
MODEL 4
REMARK VINA RESULT:      -7.2      2.868      4.263
REMARK  Name = 
REMARK  9 active torsions:
REMARK  status: ('A' for Active; 'I' for Inactive)
REMARK    1  A    between atoms: C_1  and  O_2
REMARK    2  A    between atoms: O_2  and  C_3
REMARK    3  A    between atoms: C_6  and  C_7
REMARK    4  A    between atoms: C_8  and  C_9
REMARK    5  A    between atoms: C_11  and  N_12
REMARK    6  A    between atoms: C_19  and  C_20
REMARK    7  A    between atoms: C_19  and  C_21
REMARK    8  A    between atoms: C_24  and  O_25
REMARK    9  A    between atoms: O_25  and  C_26
REMARK                            x       y       z     vdW  Elec       q    Type
REMARK                         _______ _______ _______ _____ _____    ______ ____
ROOT
ATOM      1  C   UNL     1       2.111   6.502  18.230  0.00  0.00    +0.000 C 
ATOM      2  C   UNL     1       1.936   7.807  18.997  0.00  0.00    +0.000 C 
ATOM      3  C   UNL     1       1.984   7.818  20.349  0.00  0.00    +0.000 C 
ATOM      4  O   UNL     1       2.200   6.638  21.067  0.00  0.00    +0.000 OA
ATOM      5  C   UNL     1       1.981   5.413  20.446  0.00  0.00    +0.000 C 
ATOM      6  C   UNL     1       1.822   5.319  19.119  0.00  0.00    +0.000 C 
ATOM      7  C   UNL     1       1.457   4.015  18.506  0.00  0.00    +0.000 C 
ATOM      8  O   UNL     1       1.185   3.948  17.313  0.00  0.00    +0.000 OA
ATOM      9  C   UNL     1       1.332   2.812  19.425  0.00  0.00    +0.000 C 
ATOM     10  C   UNL     1       2.316   2.896  20.607  0.00  0.00    +0.000 C 
ATOM     11  C   UNL     1       2.072   1.734  21.583  0.00  0.00    +0.000 C 
ATOM     12  C   UNL     1       3.767   2.771  20.087  0.00  0.00    +0.000 C 
ATOM     13  C   UNL     1       2.080   4.228  21.361  0.00  0.00    +0.000 C 
ENDROOT
BRANCH   1  17
ATOM     14  C   UNL     1       6.216   6.024  16.819  0.00  0.00    +0.000 A 
ATOM     15  C   UNL     1       5.227   6.578  15.981  0.00  0.00    +0.000 A 
ATOM     16  C   UNL     1       3.909   6.766  16.421  0.00  0.00    +0.000 A 
ATOM     17  C   UNL     1       3.549   6.371  17.705  0.00  0.00    +0.000 A 
ATOM     18  C   UNL     1       4.534   5.760  18.506  0.00  0.00    +0.000 A 
ATOM     19  C   UNL     1       5.846   5.550  18.077  0.00  0.00    +0.000 A 
BRANCH  14  21
ATOM     20  C   UNL     1       7.744   5.050  15.321  0.00  0.00    +0.000 C 
ATOM     21  O   UNL     1       7.523   5.941  16.417  0.00  0.00    +0.000 OA
ENDBRANCH  14  21
BRANCH  19  22
ATOM     22  O   UNL     1       6.563   4.892  19.034  0.00  0.00    +0.000 OA
ATOM     23  C   UNL     1       7.622   5.544  19.708  0.00  0.00    +0.000 C 
ENDBRANCH  19  22
ENDBRANCH   1  17
BRANCH   3  24
ATOM     24  N   UNL     1       1.864   8.922  21.158  0.00  0.00    +0.000 N 
ATOM     25  H   UNL     1       2.213   8.812  22.106  0.00  0.00    +0.000 HD
ATOM     26  H   UNL     1       0.927   9.319  21.124  0.00  0.00    +0.000 HD
ENDBRANCH   3  24
BRANCH   2  27
ATOM     27  C   UNL     1       1.696   8.994  18.246  0.00  0.00    +0.000 C 
ATOM     28  N   UNL     1       1.513   9.964  17.638  0.00  0.00    +0.000 NA
ENDBRANCH   2  27
TORSDOF 5
ENDMDL
MODEL 5
REMARK VINA RESULT:      -6.8      9.984     12.915
REMARK  Name = 
REMARK  9 active torsions:
REMARK  status: ('A' for Active; 'I' for Inactive)
REMARK    1  A    between atoms: C_1  and  O_2
REMARK    2  A    between atoms: O_2  and  C_3
REMARK    3  A    between atoms: C_6  and  C_7
REMARK    4  A    between atoms: C_8  and  C_9
REMARK    5  A    between atoms: C_11  and  N_12
REMARK    6  A    between atoms: C_19  and  C_20
REMARK    7  A    between atoms: C_19  and  C_21
REMARK    8  A    between atoms: C_24  and  O_25
REMARK    9  A    between atoms: O_25  and  C_26
REMARK                            x       y       z     vdW  Elec       q    Type
REMARK                         _______ _______ _______ _____ _____    ______ ____
ROOT
ATOM      1  C   UNL     1      -1.339  12.722  22.979  0.00  0.00    +0.000 C 
ATOM      2  C   UNL     1      -0.824  14.148  23.117  0.00  0.00    +0.000 C 
ATOM      3  C   UNL     1       0.027  14.661  22.199  0.00  0.00    +0.000 C 
ATOM      4  O   UNL     1       0.444  13.896  21.105  0.00  0.00    +0.000 OA
ATOM      5  C   UNL     1       0.312  12.512  21.151  0.00  0.00    +0.000 C 
ATOM      6  C   UNL     1      -0.431  11.911  22.089  0.00  0.00    +0.000 C 
ATOM      7  C   UNL     1      -0.442  10.428  22.190  0.00  0.00    +0.000 C 
ATOM      8  O   UNL     1      -1.015   9.876  23.122  0.00  0.00    +0.000 OA
ATOM      9  C   UNL     1       0.365   9.644  21.169  0.00  0.00    +0.000 C 
ATOM     10  C   UNL     1       0.397  10.356  19.804  0.00  0.00    +0.000 C 
ATOM     11  C   UNL     1       1.326   9.605  18.836  0.00  0.00    +0.000 C 
ATOM     12  C   UNL     1      -1.019  10.356  19.183  0.00  0.00    +0.000 C 
ATOM     13  C   UNL     1       0.947  11.791  19.999  0.00  0.00    +0.000 C 
ENDROOT
BRANCH   1  17
ATOM     14  C   UNL     1      -5.394  12.731  21.357  0.00  0.00    +0.000 A 
ATOM     15  C   UNL     1      -4.283  12.963  20.520  0.00  0.00    +0.000 A 
ATOM     16  C   UNL     1      -2.971  12.938  21.013  0.00  0.00    +0.000 A 
ATOM     17  C   UNL     1      -2.748  12.711  22.367  0.00  0.00    +0.000 A 
ATOM     18  C   UNL     1      -3.873  12.545  23.199  0.00  0.00    +0.000 A 
ATOM     19  C   UNL     1      -5.186  12.583  22.728  0.00  0.00    +0.000 A 
BRANCH  14  21
ATOM     20  C   UNL     1      -7.085  11.325  20.527  0.00  0.00    +0.000 C 
ATOM     21  O   UNL     1      -6.663  12.652  20.848  0.00  0.00    +0.000 OA
ENDBRANCH  14  21
BRANCH  19  22
ATOM     22  O   UNL     1      -6.070  12.449  23.759  0.00  0.00    +0.000 OA
ATOM     23  C   UNL     1      -6.993  13.481  24.048  0.00  0.00    +0.000 C 
ENDBRANCH  19  22
ENDBRANCH   1  17
BRANCH   3  24
ATOM     24  N   UNL     1       0.547  15.933  22.192  0.00  0.00    +0.000 N 
ATOM     25  H   UNL     1       1.527  16.005  21.932  0.00  0.00    +0.000 HD
ATOM     26  H   UNL     1       0.325  16.439  23.047  0.00  0.00    +0.000 HD
ENDBRANCH   3  24
BRANCH   2  27
ATOM     27  C   UNL     1      -1.246  14.902  24.250  0.00  0.00    +0.000 C 
ATOM     28  N   UNL     1      -1.591  15.505  25.179  0.00  0.00    +0.000 NA
ENDBRANCH   2  27
TORSDOF 5
ENDMDL
MODEL 6
REMARK VINA RESULT:      -6.8      8.157     10.618
REMARK  Name = 
REMARK  9 active torsions:
REMARK  status: ('A' for Active; 'I' for Inactive)
REMARK    1  A    between atoms: C_1  and  O_2
REMARK    2  A    between atoms: O_2  and  C_3
REMARK    3  A    between atoms: C_6  and  C_7
REMARK    4  A    between atoms: C_8  and  C_9
REMARK    5  A    between atoms: C_11  and  N_12
REMARK    6  A    between atoms: C_19  and  C_20
REMARK    7  A    between atoms: C_19  and  C_21
REMARK    8  A    between atoms: C_24  and  O_25
REMARK    9  A    between atoms: O_25  and  C_26
REMARK                            x       y       z     vdW  Elec       q    Type
REMARK                         _______ _______ _______ _____ _____    ______ ____
ROOT
ATOM      1  C   UNL     1       0.710  10.740  20.150  0.00  0.00    +0.000 C 
ATOM      2  C   UNL     1       0.497   9.791  21.322  0.00  0.00    +0.000 C 
ATOM      3  C   UNL     1       0.014  10.253  22.498  0.00  0.00    +0.000 C 
ATOM      4  O   UNL     1      -0.305  11.605  22.659  0.00  0.00    +0.000 OA
ATOM      5  C   UNL     1       0.224  12.539  21.774  0.00  0.00    +0.000 C 
ATOM      6  C   UNL     1       0.811  12.165  20.630  0.00  0.00    +0.000 C 
ATOM      7  C   UNL     1       1.482  13.180  19.774  0.00  0.00    +0.000 C 
ATOM      8  O   UNL     1       2.131  12.830  18.795  0.00  0.00    +0.000 OA
ATOM      9  C   UNL     1       1.422  14.630  20.219  0.00  0.00    +0.000 C 
ATOM     10  C   UNL     1       0.106  14.945  20.955  0.00  0.00    +0.000 C 
ATOM     11  C   UNL     1       0.134  16.380  21.503  0.00  0.00    +0.000 C 
ATOM     12  C   UNL     1      -1.080  14.848  19.966  0.00  0.00    +0.000 C 
ATOM     13  C   UNL     1      -0.048  13.967  22.146  0.00  0.00    +0.000 C 
ENDROOT
BRANCH   1  17
ATOM     14  C   UNL     1      -2.661  10.596  17.377  0.00  0.00    +0.000 A 
ATOM     15  C   UNL     1      -1.450   9.943  17.071  0.00  0.00    +0.000 A 
ATOM     16  C   UNL     1      -0.364   9.953  17.957  0.00  0.00    +0.000 A 
ATOM     17  C   UNL     1      -0.461  10.648  19.159  0.00  0.00    +0.000 A 
ATOM     18  C   UNL     1      -1.655  11.347  19.418  0.00  0.00    +0.000 A 
ATOM     19  C   UNL     1      -2.740  11.362  18.539  0.00  0.00    +0.000 A 
BRANCH  14  21
ATOM     20  C   UNL     1      -3.428  10.365  15.166  0.00  0.00    +0.000 C 
ATOM     21  O   UNL     1      -3.751  10.493  16.553  0.00  0.00    +0.000 OA
ENDBRANCH  14  21
BRANCH  19  22
ATOM     22  O   UNL     1      -3.736  12.162  19.020  0.00  0.00    +0.000 OA
ATOM     23  C   UNL     1      -3.712  12.605  20.362  0.00  0.00    +0.000 C 
ENDBRANCH  19  22
ENDBRANCH   1  17
BRANCH   3  24
ATOM     24  N   UNL     1      -0.244   9.505  23.622  0.00  0.00    +0.000 N 
ATOM     25  H   UNL     1       0.549   9.354  24.240  0.00  0.00    +0.000 HD
ATOM     26  H   UNL     1      -0.743   8.646  23.400  0.00  0.00    +0.000 HD
ENDBRANCH   3  24
BRANCH   2  27
ATOM     27  C   UNL     1       0.848   8.422  21.143  0.00  0.00    +0.000 C 
ATOM     28  N   UNL     1       1.124   7.303  21.006  0.00  0.00    +0.000 NA
ENDBRANCH   2  27
TORSDOF 5
ENDMDL
MODEL 7
REMARK VINA RESULT:      -6.8      9.363     12.299
REMARK  Name = 
REMARK  9 active torsions:
REMARK  status: ('A' for Active; 'I' for Inactive)
REMARK    1  A    between atoms: C_1  and  O_2
REMARK    2  A    between atoms: O_2  and  C_3
REMARK    3  A    between atoms: C_6  and  C_7
REMARK    4  A    between atoms: C_8  and  C_9
REMARK    5  A    between atoms: C_11  and  N_12
REMARK    6  A    between atoms: C_19  and  C_20
REMARK    7  A    between atoms: C_19  and  C_21
REMARK    8  A    between atoms: C_24  and  O_25
REMARK    9  A    between atoms: O_25  and  C_26
REMARK                            x       y       z     vdW  Elec       q    Type
REMARK                         _______ _______ _______ _____ _____    ______ ____
ROOT
ATOM      1  C   UNL     1      -0.733  12.636  22.223  0.00  0.00    +0.000 C 
ATOM      2  C   UNL     1      -0.190  14.059  22.238  0.00  0.00    +0.000 C 
ATOM      3  C   UNL     1       0.546  14.521  21.201  0.00  0.00    +0.000 C 
ATOM      4  O   UNL     1       0.817  13.708  20.096  0.00  0.00    +0.000 OA
ATOM      5  C   UNL     1       0.677  12.329  20.216  0.00  0.00    +0.000 C 
ATOM      6  C   UNL     1       0.049  11.777  21.262  0.00  0.00    +0.000 C 
ATOM      7  C   UNL     1       0.035  10.299  21.424  0.00  0.00    +0.000 C 
ATOM      8  O   UNL     1      -0.424   9.793  22.441  0.00  0.00    +0.000 OA
ATOM      9  C   UNL     1       0.701   9.464  20.344  0.00  0.00    +0.000 C 
ATOM     10  C   UNL     1       0.572  10.121  18.957  0.00  0.00    +0.000 C 
ATOM     11  C   UNL     1       1.366   9.318  17.914  0.00  0.00    +0.000 C 
ATOM     12  C   UNL     1      -0.911  10.118  18.516  0.00  0.00    +0.000 C 
ATOM     13  C   UNL     1       1.157  11.553  19.025  0.00  0.00    +0.000 C 
ENDROOT
BRANCH   1  17
ATOM     14  C   UNL     1      -4.957  12.647  21.112  0.00  0.00    +0.000 A 
ATOM     15  C   UNL     1      -3.955  12.797  20.132  0.00  0.00    +0.000 A 
ATOM     16  C   UNL     1      -2.593  12.769  20.461  0.00  0.00    +0.000 A 
ATOM     17  C   UNL     1      -2.208  12.623  21.790  0.00  0.00    +0.000 A 
ATOM     18  C   UNL     1      -3.223  12.539  22.763  0.00  0.00    +0.000 A 
ATOM     19  C   UNL     1      -4.584  12.582  22.454  0.00  0.00    +0.000 A 
BRANCH  14  21
ATOM     20  C   UNL     1      -6.550  11.704  19.662  0.00  0.00    +0.000 C 
ATOM     21  O   UNL     1      -6.281  12.569  20.768  0.00  0.00    +0.000 OA
ENDBRANCH  14  21
BRANCH  19  22
ATOM     22  O   UNL     1      -5.336  12.536  23.592  0.00  0.00    +0.000 OA
ATOM     23  C   UNL     1      -4.718  12.337  24.849  0.00  0.00    +0.000 C 
ENDBRANCH  19  22
ENDBRANCH   1  17
BRANCH   3  24
ATOM     24  N   UNL     1       1.075  15.784  21.078  0.00  0.00    +0.000 N 
ATOM     25  H   UNL     1       0.927  16.236  20.180  0.00  0.00    +0.000 HD
ATOM     26  H   UNL     1       2.044  15.822  21.387  0.00  0.00    +0.000 HD
ENDBRANCH   3  24
BRANCH   2  27
ATOM     27  C   UNL     1      -0.461  14.863  23.382  0.00  0.00    +0.000 C 
ATOM     28  N   UNL     1      -0.669  15.515  24.319  0.00  0.00    +0.000 NA
ENDBRANCH   2  27
TORSDOF 5
ENDMDL
MODEL 8
REMARK VINA RESULT:      -6.6      8.910     11.990
REMARK  Name = 
REMARK  9 active torsions:
REMARK  status: ('A' for Active; 'I' for Inactive)
REMARK    1  A    between atoms: C_1  and  O_2
REMARK    2  A    between atoms: O_2  and  C_3
REMARK    3  A    between atoms: C_6  and  C_7
REMARK    4  A    between atoms: C_8  and  C_9
REMARK    5  A    between atoms: C_11  and  N_12
REMARK    6  A    between atoms: C_19  and  C_20
REMARK    7  A    between atoms: C_19  and  C_21
REMARK    8  A    between atoms: C_24  and  O_25
REMARK    9  A    between atoms: O_25  and  C_26
REMARK                            x       y       z     vdW  Elec       q    Type
REMARK                         _______ _______ _______ _____ _____    ______ ____
ROOT
ATOM      1  C   UNL     1      -0.989  12.638  18.838  0.00  0.00    +0.000 C 
ATOM      2  C   UNL     1      -0.657  11.273  18.249  0.00  0.00    +0.000 C 
ATOM      3  C   UNL     1       0.596  10.771  18.345  0.00  0.00    +0.000 C 
ATOM      4  O   UNL     1       1.607  11.491  18.992  0.00  0.00    +0.000 OA
ATOM      5  C   UNL     1       1.448  12.858  19.190  0.00  0.00    +0.000 C 
ATOM      6  C   UNL     1       0.263  13.458  19.019  0.00  0.00    +0.000 C 
ATOM      7  C   UNL     1       0.161  14.939  19.109  0.00  0.00    +0.000 C 
ATOM      8  O   UNL     1      -0.889  15.504  18.828  0.00  0.00    +0.000 OA
ATOM      9  C   UNL     1       1.421  15.714  19.452  0.00  0.00    +0.000 C 
ATOM     10  C   UNL     1       2.343  14.914  20.391  0.00  0.00    +0.000 C 
ATOM     11  C   UNL     1       3.662  15.672  20.612  0.00  0.00    +0.000 C 
ATOM     12  C   UNL     1       1.664  14.751  21.772  0.00  0.00    +0.000 C 
ATOM     13  C   UNL     1       2.663  13.549  19.736  0.00  0.00    +0.000 C 
ENDROOT
BRANCH   1  17
ATOM     14  C   UNL     1      -2.799  12.197  22.787  0.00  0.00    +0.000 A 
ATOM     15  C   UNL     1      -3.450  12.932  21.775  0.00  0.00    +0.000 A 
ATOM     16  C   UNL     1      -2.901  13.064  20.492  0.00  0.00    +0.000 A 
ATOM     17  C   UNL     1      -1.668  12.487  20.208  0.00  0.00    +0.000 A 
ATOM     18  C   UNL     1      -1.003  11.811  21.249  0.00  0.00    +0.000 A 
ATOM     19  C   UNL     1      -1.527  11.684  22.537  0.00  0.00    +0.000 A 
BRANCH  14  21
ATOM     20  C   UNL     1      -4.566  12.769  24.229  0.00  0.00    +0.000 C 
ATOM     21  O   UNL     1      -3.392  11.985  24.004  0.00  0.00    +0.000 OA
ENDBRANCH  14  21
BRANCH  19  22
ATOM     22  O   UNL     1      -0.647  11.033  23.351  0.00  0.00    +0.000 OA
ATOM     23  C   UNL     1      -0.288   9.691  23.087  0.00  0.00    +0.000 C 
ENDBRANCH  19  22
ENDBRANCH   1  17
BRANCH   3  24
ATOM     24  N   UNL     1       1.022   9.551  17.880  0.00  0.00    +0.000 N 
ATOM     25  H   UNL     1       1.863   9.567  17.310  0.00  0.00    +0.000 HD
ATOM     26  H   UNL     1       0.264   9.021  17.454  0.00  0.00    +0.000 HD
ENDBRANCH   3  24
BRANCH   2  27
ATOM     27  C   UNL     1      -1.696  10.566  17.577  0.00  0.00    +0.000 C 
ATOM     28  N   UNL     1      -2.542  10.000  17.021  0.00  0.00    +0.000 NA
ENDBRANCH   2  27
TORSDOF 5
ENDMDL
MODEL 9
REMARK VINA RESULT:      -6.6      2.856      5.841
REMARK  Name = 
REMARK  9 active torsions:
REMARK  status: ('A' for Active; 'I' for Inactive)
REMARK    1  A    between atoms: C_1  and  O_2
REMARK    2  A    between atoms: O_2  and  C_3
REMARK    3  A    between atoms: C_6  and  C_7
REMARK    4  A    between atoms: C_8  and  C_9
REMARK    5  A    between atoms: C_11  and  N_12
REMARK    6  A    between atoms: C_19  and  C_20
REMARK    7  A    between atoms: C_19  and  C_21
REMARK    8  A    between atoms: C_24  and  O_25
REMARK    9  A    between atoms: O_25  and  C_26
REMARK                            x       y       z     vdW  Elec       q    Type
REMARK                         _______ _______ _______ _____ _____    ______ ____
ROOT
ATOM      1  C   UNL     1       4.511   5.806  18.530  0.00  0.00    +0.000 C 
ATOM      2  C   UNL     1       5.336   5.925  17.255  0.00  0.00    +0.000 C 
ATOM      3  C   UNL     1       5.080   5.120  16.197  0.00  0.00    +0.000 C 
ATOM      4  O   UNL     1       4.054   4.172  16.251  0.00  0.00    +0.000 OA
ATOM      5  C   UNL     1       3.554   3.779  17.488  0.00  0.00    +0.000 C 
ATOM      6  C   UNL     1       3.838   4.459  18.606  0.00  0.00    +0.000 C 
ATOM      7  C   UNL     1       3.398   3.935  19.926  0.00  0.00    +0.000 C 
ATOM      8  O   UNL     1       3.763   4.482  20.960  0.00  0.00    +0.000 OA
ATOM      9  C   UNL     1       2.584   2.654  19.941  0.00  0.00    +0.000 C 
ATOM     10  C   UNL     1       1.692   2.532  18.692  0.00  0.00    +0.000 C 
ATOM     11  C   UNL     1       0.982   1.169  18.676  0.00  0.00    +0.000 C 
ATOM     12  C   UNL     1       0.597   3.626  18.725  0.00  0.00    +0.000 C 
ATOM     13  C   UNL     1       2.581   2.638  17.429  0.00  0.00    +0.000 C 
ENDROOT
BRANCH   1  17
ATOM     14  C   UNL     1       1.430   8.891  18.790  0.00  0.00    +0.000 A 
ATOM     15  C   UNL     1       2.258   8.795  17.653  0.00  0.00    +0.000 A 
ATOM     16  C   UNL     1       3.235   7.797  17.536  0.00  0.00    +0.000 A 
ATOM     17  C   UNL     1       3.424   6.891  18.575  0.00  0.00    +0.000 A 
ATOM     18  C   UNL     1       2.632   7.042  19.730  0.00  0.00    +0.000 A 
ATOM     19  C   UNL     1       1.666   8.040  19.871  0.00  0.00    +0.000 A 
BRANCH  14  21
ATOM     20  C   UNL     1       0.841  11.157  18.997  0.00  0.00    +0.000 C 
ATOM     21  O   UNL     1       0.409   9.802  18.851  0.00  0.00    +0.000 OA
ENDBRANCH  14  21
BRANCH  19  22
ATOM     22  O   UNL     1       1.094   7.983  21.108  0.00  0.00    +0.000 OA
ATOM     23  C   UNL     1       1.320   9.014  22.049  0.00  0.00    +0.000 C 
ENDBRANCH  19  22
ENDBRANCH   1  17
BRANCH   3  24
ATOM     24  N   UNL     1       5.730   5.137  14.986  0.00  0.00    +0.000 N 
ATOM     25  H   UNL     1       6.159   6.022  14.731  0.00  0.00    +0.000 HD
ATOM     26  H   UNL     1       5.158   4.745  14.242  0.00  0.00    +0.000 HD
ENDBRANCH   3  24
BRANCH   2  27
ATOM     27  C   UNL     1       6.389   6.883  17.229  0.00  0.00    +0.000 C 
ATOM     28  N   UNL     1       7.239   7.672  17.201  0.00  0.00    +0.000 NA
ENDBRANCH   2  27
TORSDOF 5
ENDMDL
