MODEL 1
REMARK VINA RESULT:      -6.9      0.000      0.000
REMARK  Name = 
REMARK  9 active torsions:
REMARK  status: ('A' for Active; 'I' for Inactive)
REMARK    1  A    between atoms: C_1  and  C_2
REMARK    2  A    between atoms: C_2  and  O_3
REMARK    3  A    between atoms: O_3  and  C_4
REMARK    4  A    between atoms: C_4  and  C_6
REMARK    5  A    between atoms: C_6  and  C_7
REMARK    6  A    between atoms: C_7  and  N_8
REMARK    7  A    between atoms: C_7  and  C_13
REMARK    8  A    between atoms: C_9  and  O_11
REMARK    9  A    between atoms: O_11  and  C_12
REMARK                            x       y       z     vdW  Elec       q    Type
REMARK                         _______ _______ _______ _____ _____    ______ ____
ROOT
ATOM      1  C   UNL     1       2.835   5.102  18.172  0.00  0.00    +0.000 C 
ENDROOT
BRANCH   1   2
ATOM      2  C   UNL     1       4.323   4.977  17.741  0.00  0.00    +0.000 C 
ATOM      3  C   UNL     1       4.817   6.208  16.945  0.00  0.00    +0.000 C 
ATOM      4  C   UNL     1       5.644   5.689  15.771  0.00  0.00    +0.000 C 
ATOM      5  C   UNL     1       5.206   4.261  15.494  0.00  0.00    +0.000 C 
ATOM      6  C   UNL     1       4.510   3.841  16.760  0.00  0.00    +0.000 C 
ATOM      7  O   UNL     1       4.159   2.685  16.970  0.00  0.00    +0.000 OA
BRANCH   2   8
ATOM      8  C   UNL     1       5.221   4.706  18.949  0.00  0.00    +0.000 C 
ATOM      9  O   UNL     1       5.259   3.665  19.591  0.00  0.00    +0.000 OA
BRANCH   8  10
ATOM     10  O   UNL     1       5.958   5.813  19.269  0.00  0.00    +0.000 OA
BRANCH  10  12
ATOM     11  C   UNL     1       8.044   6.849  18.556  0.00  0.00    +0.000 C 
ATOM     12  C   UNL     1       7.388   5.661  19.228  0.00  0.00    +0.000 C 
ENDBRANCH  10  12
ENDBRANCH   8  10
ENDBRANCH   2   8
ENDBRANCH   1   2
BRANCH   1  13
ATOM     13  C   UNL     1       2.421   6.489  18.624  0.00  0.00    +0.000 A 
ATOM     14  C   UNL     1       2.220   7.693  17.969  0.00  0.00    +0.000 A 
ATOM     15  C   UNL     1       1.854   8.640  18.955  0.00  0.00    +0.000 A 
ATOM     16  C   UNL     1       1.854   7.967  20.150  0.00  0.00    +0.000 A 
ATOM     17  O   UNL     1       2.190   6.668  19.960  0.00  0.00    +0.000 OA
ENDBRANCH   1  13
BRANCH   1  18
ATOM     18  N   UNL     1       2.511   4.198  19.280  0.00  0.00    +0.000 N 
ATOM     19  C   UNL     1       1.611   3.183  19.142  0.00  0.00    +0.000 C 
ATOM     20  O   UNL     1       0.923   2.974  18.155  0.00  0.00    +0.000 OA
ATOM     21  H   UNL     1       2.958   4.284  20.182  0.00  0.00    +0.000 HD
BRANCH  19  22
ATOM     22  O   UNL     1       1.591   2.442  20.279  0.00  0.00    +0.000 OA
ATOM     23  C   UNL     1       2.115   3.135  21.413  0.00  0.00    +0.000 C 
ENDBRANCH  19  22
ENDBRANCH   1  18
TORSDOF 7
ENDMDL
MODEL 2
REMARK VINA RESULT:      -6.7      2.026      3.311
REMARK  Name = 
REMARK  9 active torsions:
REMARK  status: ('A' for Active; 'I' for Inactive)
REMARK    1  A    between atoms: C_1  and  C_2
REMARK    2  A    between atoms: C_2  and  O_3
REMARK    3  A    between atoms: O_3  and  C_4
REMARK    4  A    between atoms: C_4  and  C_6
REMARK    5  A    between atoms: C_6  and  C_7
REMARK    6  A    between atoms: C_7  and  N_8
REMARK    7  A    between atoms: C_7  and  C_13
REMARK    8  A    between atoms: C_9  and  O_11
REMARK    9  A    between atoms: O_11  and  C_12
REMARK                            x       y       z     vdW  Elec       q    Type
REMARK                         _______ _______ _______ _____ _____    ______ ____
ROOT
ATOM      1  C   UNL     1       4.419   4.927  17.344  0.00  0.00    +0.000 C 
ENDROOT
BRANCH   1   2
ATOM      2  C   UNL     1       5.916   5.321  17.202  0.00  0.00    +0.000 C 
ATOM      3  C   UNL     1       6.623   5.475  18.569  0.00  0.00    +0.000 C 
ATOM      4  C   UNL     1       7.490   6.729  18.495  0.00  0.00    +0.000 C 
ATOM      5  C   UNL     1       6.915   7.623  17.409  0.00  0.00    +0.000 C 
ATOM      6  C   UNL     1       6.059   6.696  16.589  0.00  0.00    +0.000 C 
ATOM      7  O   UNL     1       5.557   7.030  15.521  0.00  0.00    +0.000 OA
BRANCH   2   8
ATOM      8  C   UNL     1       6.659   4.328  16.306  0.00  0.00    +0.000 C 
ATOM      9  O   UNL     1       7.846   4.048  16.382  0.00  0.00    +0.000 OA
BRANCH   8  10
ATOM     10  O   UNL     1       5.826   3.817  15.348  0.00  0.00    +0.000 OA
BRANCH  10  12
ATOM     11  C   UNL     1       5.154   3.696  13.011  0.00  0.00    +0.000 C 
ATOM     12  C   UNL     1       6.292   3.896  13.990  0.00  0.00    +0.000 C 
ENDBRANCH  10  12
ENDBRANCH   8  10
ENDBRANCH   2   8
ENDBRANCH   1   2
BRANCH   1  13
ATOM     13  C   UNL     1       3.576   5.916  18.129  0.00  0.00    +0.000 A 
ATOM     14  C   UNL     1       3.030   7.155  17.839  0.00  0.00    +0.000 A 
ATOM     15  C   UNL     1       2.354   7.588  19.005  0.00  0.00    +0.000 A 
ATOM     16  C   UNL     1       2.527   6.596  19.937  0.00  0.00    +0.000 A 
ATOM     17  O   UNL     1       3.259   5.582  19.416  0.00  0.00    +0.000 OA
ENDBRANCH   1  13
BRANCH   1  18
ATOM     18  N   UNL     1       4.257   3.632  18.011  0.00  0.00    +0.000 N 
ATOM     19  C   UNL     1       3.241   2.780  17.693  0.00  0.00    +0.000 C 
ATOM     20  O   UNL     1       2.327   3.022  16.921  0.00  0.00    +0.000 OA
ATOM     21  H   UNL     1       4.905   3.316  18.720  0.00  0.00    +0.000 HD
BRANCH  19  22
ATOM     22  O   UNL     1       3.398   1.618  18.377  0.00  0.00    +0.000 OA
ATOM     23  C   UNL     1       4.034   1.791  19.644  0.00  0.00    +0.000 C 
ENDBRANCH  19  22
ENDBRANCH   1  18
TORSDOF 7
ENDMDL
MODEL 3
REMARK VINA RESULT:      -6.7      2.032      4.585
REMARK  Name = 
REMARK  9 active torsions:
REMARK  status: ('A' for Active; 'I' for Inactive)
REMARK    1  A    between atoms: C_1  and  C_2
REMARK    2  A    between atoms: C_2  and  O_3
REMARK    3  A    between atoms: O_3  and  C_4
REMARK    4  A    between atoms: C_4  and  C_6
REMARK    5  A    between atoms: C_6  and  C_7
REMARK    6  A    between atoms: C_7  and  N_8
REMARK    7  A    between atoms: C_7  and  C_13
REMARK    8  A    between atoms: C_9  and  O_11
REMARK    9  A    between atoms: O_11  and  C_12
REMARK                            x       y       z     vdW  Elec       q    Type
REMARK                         _______ _______ _______ _____ _____    ______ ____
ROOT
ATOM      1  C   UNL     1       4.241   6.068  18.149  0.00  0.00    +0.000 C 
ENDROOT
BRANCH   1   2
ATOM      2  C   UNL     1       5.562   5.743  17.397  0.00  0.00    +0.000 C 
ATOM      3  C   UNL     1       6.192   4.405  17.851  0.00  0.00    +0.000 C 
ATOM      4  C   UNL     1       7.694   4.635  17.995  0.00  0.00    +0.000 C 
ATOM      5  C   UNL     1       7.914   6.123  18.212  0.00  0.00    +0.000 C 
ATOM      6  C   UNL     1       6.637   6.754  17.729  0.00  0.00    +0.000 C 
ATOM      7  O   UNL     1       6.506   7.967  17.599  0.00  0.00    +0.000 OA
BRANCH   2   8
ATOM      8  C   UNL     1       5.348   5.767  15.883  0.00  0.00    +0.000 C 
ATOM      9  O   UNL     1       5.098   6.758  15.213  0.00  0.00    +0.000 OA
BRANCH   8  10
ATOM     10  O   UNL     1       5.420   4.504  15.360  0.00  0.00    +0.000 OA
BRANCH  10  12
ATOM     11  C   UNL     1       5.843   3.670  13.112  0.00  0.00    +0.000 C 
ATOM     12  C   UNL     1       6.434   4.283  14.365  0.00  0.00    +0.000 C 
ENDBRANCH  10  12
ENDBRANCH   8  10
ENDBRANCH   2   8
ENDBRANCH   1   2
BRANCH   1  13
ATOM     13  C   UNL     1       3.284   4.898  18.282  0.00  0.00    +0.000 A 
ATOM     14  C   UNL     1       2.475   4.213  17.391  0.00  0.00    +0.000 A 
ATOM     15  C   UNL     1       1.797   3.217  18.136  0.00  0.00    +0.000 A 
ATOM     16  C   UNL     1       2.226   3.351  19.431  0.00  0.00    +0.000 A 
ATOM     17  O   UNL     1       3.127   4.358  19.529  0.00  0.00    +0.000 OA
ENDBRANCH   1  13
BRANCH   1  18
ATOM     18  N   UNL     1       3.488   7.139  17.491  0.00  0.00    +0.000 N 
ATOM     19  C   UNL     1       2.606   7.924  18.173  0.00  0.00    +0.000 C 
ATOM     20  O   UNL     1       2.277   7.774  19.339  0.00  0.00    +0.000 OA
ATOM     21  H   UNL     1       3.610   7.346  16.509  0.00  0.00    +0.000 HD
BRANCH  19  22
ATOM     22  O   UNL     1       2.142   8.899  17.350  0.00  0.00    +0.000 OA
ATOM     23  C   UNL     1       1.634  10.035  18.052  0.00  0.00    +0.000 C 
ENDBRANCH  19  22
ENDBRANCH   1  18
TORSDOF 7
ENDMDL
MODEL 4
REMARK VINA RESULT:      -6.7      1.794      4.628
REMARK  Name = 
REMARK  9 active torsions:
REMARK  status: ('A' for Active; 'I' for Inactive)
REMARK    1  A    between atoms: C_1  and  C_2
REMARK    2  A    between atoms: C_2  and  O_3
REMARK    3  A    between atoms: O_3  and  C_4
REMARK    4  A    between atoms: C_4  and  C_6
REMARK    5  A    between atoms: C_6  and  C_7
REMARK    6  A    between atoms: C_7  and  N_8
REMARK    7  A    between atoms: C_7  and  C_13
REMARK    8  A    between atoms: C_9  and  O_11
REMARK    9  A    between atoms: O_11  and  C_12
REMARK                            x       y       z     vdW  Elec       q    Type
REMARK                         _______ _______ _______ _____ _____    ______ ____
ROOT
ATOM      1  C   UNL     1       5.362   4.458  16.977  0.00  0.00    +0.000 C 
ENDROOT
BRANCH   1   2
ATOM      2  C   UNL     1       5.615   5.792  17.735  0.00  0.00    +0.000 C 
ATOM      3  C   UNL     1       6.165   6.905  16.812  0.00  0.00    +0.000 C 
ATOM      4  C   UNL     1       7.286   7.612  17.570  0.00  0.00    +0.000 C 
ATOM      5  C   UNL     1       7.811   6.648  18.621  0.00  0.00    +0.000 C 
ATOM      6  C   UNL     1       6.713   5.630  18.763  0.00  0.00    +0.000 C 
ATOM      7  O   UNL     1       6.711   4.778  19.645  0.00  0.00    +0.000 OA
BRANCH   2   8
ATOM      8  C   UNL     1       4.354   6.254  18.465  0.00  0.00    +0.000 C 
ATOM      9  O   UNL     1       3.960   5.837  19.545  0.00  0.00    +0.000 OA
BRANCH   8  10
ATOM     10  O   UNL     1       3.669   7.176  17.721  0.00  0.00    +0.000 OA
BRANCH  10  12
ATOM     11  C   UNL     1       2.069   9.010  17.795  0.00  0.00    +0.000 C 
ATOM     12  C   UNL     1       2.399   7.602  18.245  0.00  0.00    +0.000 C 
ENDBRANCH  10  12
ENDBRANCH   8  10
ENDBRANCH   2   8
ENDBRANCH   1   2
BRANCH   1  13
ATOM     13  C   UNL     1       5.911   4.419  15.563  0.00  0.00    +0.000 A 
ATOM     14  C   UNL     1       5.357   4.143  14.325  0.00  0.00    +0.000 A 
ATOM     15  C   UNL     1       6.401   4.254  13.375  0.00  0.00    +0.000 A 
ATOM     16  C   UNL     1       7.528   4.587  14.082  0.00  0.00    +0.000 A 
ATOM     17  O   UNL     1       7.241   4.694  15.403  0.00  0.00    +0.000 OA
ENDBRANCH   1  13
BRANCH   1  18
ATOM     18  N   UNL     1       3.931   4.157  16.868  0.00  0.00    +0.000 N 
ATOM     19  C   UNL     1       3.375   3.072  17.477  0.00  0.00    +0.000 C 
ATOM     20  O   UNL     1       3.987   2.204  18.078  0.00  0.00    +0.000 OA
ATOM     21  H   UNL     1       3.302   4.756  16.351  0.00  0.00    +0.000 HD
BRANCH  19  22
ATOM     22  O   UNL     1       2.028   3.102  17.306  0.00  0.00    +0.000 OA
ATOM     23  C   UNL     1       1.336   3.729  18.387  0.00  0.00    +0.000 C 
ENDBRANCH  19  22
ENDBRANCH   1  18
TORSDOF 7
ENDMDL
MODEL 5
REMARK VINA RESULT:      -6.6      2.054      4.560
REMARK  Name = 
REMARK  9 active torsions:
REMARK  status: ('A' for Active; 'I' for Inactive)
REMARK    1  A    between atoms: C_1  and  C_2
REMARK    2  A    between atoms: C_2  and  O_3
REMARK    3  A    between atoms: O_3  and  C_4
REMARK    4  A    between atoms: C_4  and  C_6
REMARK    5  A    between atoms: C_6  and  C_7
REMARK    6  A    between atoms: C_7  and  N_8
REMARK    7  A    between atoms: C_7  and  C_13
REMARK    8  A    between atoms: C_9  and  O_11
REMARK    9  A    between atoms: O_11  and  C_12
REMARK                            x       y       z     vdW  Elec       q    Type
REMARK                         _______ _______ _______ _____ _____    ______ ____
ROOT
ATOM      1  C   UNL     1       4.138   4.518  19.375  0.00  0.00    +0.000 C 
ENDROOT
BRANCH   1   2
ATOM      2  C   UNL     1       3.179   3.297  19.305  0.00  0.00    +0.000 C 
ATOM      3  C   UNL     1       2.174   3.397  18.133  0.00  0.00    +0.000 C 
ATOM      4  C   UNL     1       0.811   2.962  18.664  0.00  0.00    +0.000 C 
ATOM      5  C   UNL     1       0.819   3.159  20.171  0.00  0.00    +0.000 C 
ATOM      6  C   UNL     1       2.280   3.244  20.520  0.00  0.00    +0.000 C 
ATOM      7  O   UNL     1       2.684   3.243  21.677  0.00  0.00    +0.000 OA
BRANCH   2   8
ATOM      8  C   UNL     1       3.966   1.987  19.247  0.00  0.00    +0.000 C 
ATOM      9  O   UNL     1       3.783   1.079  18.449  0.00  0.00    +0.000 OA
BRANCH   8  10
ATOM     10  O   UNL     1       4.891   1.928  20.254  0.00  0.00    +0.000 OA
BRANCH  10  12
ATOM     11  C   UNL     1       5.868   0.615  22.057  0.00  0.00    +0.000 C 
ATOM     12  C   UNL     1       5.327   0.614  20.642  0.00  0.00    +0.000 C 
ENDBRANCH  10  12
ENDBRANCH   8  10
ENDBRANCH   2   8
ENDBRANCH   1   2
BRANCH   1  13
ATOM     13  C   UNL     1       3.519   5.835  18.946  0.00  0.00    +0.000 A 
ATOM     14  C   UNL     1       3.642   6.634  17.821  0.00  0.00    +0.000 A 
ATOM     15  C   UNL     1       2.809   7.760  18.025  0.00  0.00    +0.000 A 
ATOM     16  C   UNL     1       2.229   7.589  19.255  0.00  0.00    +0.000 A 
ATOM     17  O   UNL     1       2.647   6.428  19.817  0.00  0.00    +0.000 OA
ENDBRANCH   1  13
BRANCH   1  18
ATOM     18  N   UNL     1       5.323   4.330  18.533  0.00  0.00    +0.000 N 
ATOM     19  C   UNL     1       6.553   4.784  18.908  0.00  0.00    +0.000 C 
ATOM     20  O   UNL     1       6.789   5.457  19.898  0.00  0.00    +0.000 OA
ATOM     21  H   UNL     1       5.273   3.840  17.651  0.00  0.00    +0.000 HD
BRANCH  19  22
ATOM     22  O   UNL     1       7.478   4.375  18.003  0.00  0.00    +0.000 OA
ATOM     23  C   UNL     1       7.113   4.668  16.653  0.00  0.00    +0.000 C 
ENDBRANCH  19  22
ENDBRANCH   1  18
TORSDOF 7
ENDMDL
MODEL 6
REMARK VINA RESULT:      -6.4      0.852      1.033
REMARK  Name = 
REMARK  9 active torsions:
REMARK  status: ('A' for Active; 'I' for Inactive)
REMARK    1  A    between atoms: C_1  and  C_2
REMARK    2  A    between atoms: C_2  and  O_3
REMARK    3  A    between atoms: O_3  and  C_4
REMARK    4  A    between atoms: C_4  and  C_6
REMARK    5  A    between atoms: C_6  and  C_7
REMARK    6  A    between atoms: C_7  and  N_8
REMARK    7  A    between atoms: C_7  and  C_13
REMARK    8  A    between atoms: C_9  and  O_11
REMARK    9  A    between atoms: O_11  and  C_12
REMARK                            x       y       z     vdW  Elec       q    Type
REMARK                         _______ _______ _______ _____ _____    ______ ____
ROOT
ATOM      1  C   UNL     1       2.989   5.264  17.961  0.00  0.00    +0.000 C 
ENDROOT
BRANCH   1   2
ATOM      2  C   UNL     1       4.457   5.278  17.448  0.00  0.00    +0.000 C 
ATOM      3  C   UNL     1       4.736   6.450  16.478  0.00  0.00    +0.000 C 
ATOM      4  C   UNL     1       5.566   5.897  15.322  0.00  0.00    +0.000 C 
ATOM      5  C   UNL     1       5.313   4.400  15.249  0.00  0.00    +0.000 C 
ATOM      6  C   UNL     1       4.746   4.059  16.600  0.00  0.00    +0.000 C 
ATOM      7  O   UNL     1       4.568   2.904  16.970  0.00  0.00    +0.000 OA
BRANCH   2   8
ATOM      8  C   UNL     1       5.443   5.281  18.616  0.00  0.00    +0.000 C 
ATOM      9  O   UNL     1       5.151   5.400  19.798  0.00  0.00    +0.000 OA
BRANCH   8  10
ATOM     10  O   UNL     1       6.733   5.187  18.167  0.00  0.00    +0.000 OA
BRANCH  10  12
ATOM     11  C   UNL     1       7.889   7.328  18.077  0.00  0.00    +0.000 C 
ATOM     12  C   UNL     1       7.699   6.025  18.824  0.00  0.00    +0.000 C 
ENDBRANCH  10  12
ENDBRANCH   8  10
ENDBRANCH   2   8
ENDBRANCH   1   2
BRANCH   1  13
ATOM     13  C   UNL     1       2.520   6.569  18.574  0.00  0.00    +0.000 A 
ATOM     14  C   UNL     1       2.250   6.980  19.869  0.00  0.00    +0.000 A 
ATOM     15  C   UNL     1       1.824   8.328  19.791  0.00  0.00    +0.000 A 
ATOM     16  C   UNL     1       1.856   8.663  18.461  0.00  0.00    +0.000 A 
ATOM     17  O   UNL     1       2.279   7.610  17.720  0.00  0.00    +0.000 OA
ENDBRANCH   1  13
BRANCH   1  18
ATOM     18  N   UNL     1       2.779   4.233  18.982  0.00  0.00    +0.000 N 
ATOM     19  C   UNL     1       1.788   3.303  18.873  0.00  0.00    +0.000 C 
ATOM     20  O   UNL     1       0.932   3.276  18.004  0.00  0.00    +0.000 OA
ATOM     21  H   UNL     1       3.374   4.164  19.795  0.00  0.00    +0.000 HD
BRANCH  19  22
ATOM     22  O   UNL     1       1.895   2.412  19.891  0.00  0.00    +0.000 OA
ATOM     23  C   UNL     1       1.320   2.878  21.113  0.00  0.00    +0.000 C 
ENDBRANCH  19  22
ENDBRANCH   1  18
TORSDOF 7
ENDMDL
MODEL 7
REMARK VINA RESULT:      -6.4      1.986      5.407
REMARK  Name = 
REMARK  9 active torsions:
REMARK  status: ('A' for Active; 'I' for Inactive)
REMARK    1  A    between atoms: C_1  and  C_2
REMARK    2  A    between atoms: C_2  and  O_3
REMARK    3  A    between atoms: O_3  and  C_4
REMARK    4  A    between atoms: C_4  and  C_6
REMARK    5  A    between atoms: C_6  and  C_7
REMARK    6  A    between atoms: C_7  and  N_8
REMARK    7  A    between atoms: C_7  and  C_13
REMARK    8  A    between atoms: C_9  and  O_11
REMARK    9  A    between atoms: O_11  and  C_12
REMARK                            x       y       z     vdW  Elec       q    Type
REMARK                         _______ _______ _______ _____ _____    ______ ____
ROOT
ATOM      1  C   UNL     1       5.161   4.332  17.065  0.00  0.00    +0.000 C 
ENDROOT
BRANCH   1   2
ATOM      2  C   UNL     1       3.868   4.269  17.926  0.00  0.00    +0.000 C 
ATOM      3  C   UNL     1       2.944   5.489  17.702  0.00  0.00    +0.000 C 
ATOM      4  C   UNL     1       2.441   5.938  19.072  0.00  0.00    +0.000 C 
ATOM      5  C   UNL     1       3.433   5.442  20.111  0.00  0.00    +0.000 C 
ATOM      6  C   UNL     1       4.195   4.357  19.400  0.00  0.00    +0.000 C 
ATOM      7  O   UNL     1       4.979   3.612  19.978  0.00  0.00    +0.000 OA
BRANCH   2   8
ATOM      8  C   UNL     1       3.118   2.958  17.689  0.00  0.00    +0.000 C 
ATOM      9  O   UNL     1       3.632   1.865  17.501  0.00  0.00    +0.000 OA
BRANCH   8  10
ATOM     10  O   UNL     1       1.766   3.168  17.660  0.00  0.00    +0.000 OA
BRANCH  10  12
ATOM     11  C   UNL     1       0.847   2.906  19.900  0.00  0.00    +0.000 C 
ATOM     12  C   UNL     1       0.971   2.321  18.508  0.00  0.00    +0.000 C 
ENDBRANCH  10  12
ENDBRANCH   8  10
ENDBRANCH   2   8
ENDBRANCH   1   2
BRANCH   1  13
ATOM     13  C   UNL     1       6.029   5.552  17.313  0.00  0.00    +0.000 A 
ATOM     14  C   UNL     1       5.954   6.879  16.925  0.00  0.00    +0.000 A 
ATOM     15  C   UNL     1       7.089   7.529  17.468  0.00  0.00    +0.000 A 
ATOM     16  C   UNL     1       7.789   6.568  18.151  0.00  0.00    +0.000 A 
ATOM     17  O   UNL     1       7.155   5.373  18.068  0.00  0.00    +0.000 OA
ENDBRANCH   1  13
BRANCH   1  18
ATOM     18  N   UNL     1       4.860   4.330  15.630  0.00  0.00    +0.000 N 
ATOM     19  C   UNL     1       5.834   4.162  14.690  0.00  0.00    +0.000 C 
ATOM     20  O   UNL     1       7.032   4.095  14.914  0.00  0.00    +0.000 OA
ATOM     21  H   UNL     1       3.916   4.435  15.286  0.00  0.00    +0.000 HD
BRANCH  19  22
ATOM     22  O   UNL     1       5.264   4.087  13.461  0.00  0.00    +0.000 OA
ATOM     23  C   UNL     1       6.050   3.357  12.518  0.00  0.00    +0.000 C 
ENDBRANCH  19  22
ENDBRANCH   1  18
TORSDOF 7
ENDMDL
MODEL 8
REMARK VINA RESULT:      -6.4      1.739      4.102
REMARK  Name = 
REMARK  9 active torsions:
REMARK  status: ('A' for Active; 'I' for Inactive)
REMARK    1  A    between atoms: C_1  and  C_2
REMARK    2  A    between atoms: C_2  and  O_3
REMARK    3  A    between atoms: O_3  and  C_4
REMARK    4  A    between atoms: C_4  and  C_6
REMARK    5  A    between atoms: C_6  and  C_7
REMARK    6  A    between atoms: C_7  and  N_8
REMARK    7  A    between atoms: C_7  and  C_13
REMARK    8  A    between atoms: C_9  and  O_11
REMARK    9  A    between atoms: O_11  and  C_12
REMARK                            x       y       z     vdW  Elec       q    Type
REMARK                         _______ _______ _______ _____ _____    ______ ____
ROOT
ATOM      1  C   UNL     1       4.268   5.506  18.811  0.00  0.00    +0.000 C 
ENDROOT
BRANCH   1   2
ATOM      2  C   UNL     1       3.723   4.194  18.181  0.00  0.00    +0.000 C 
ATOM      3  C   UNL     1       2.227   4.293  17.801  0.00  0.00    +0.000 C 
ATOM      4  C   UNL     1       1.560   2.990  18.234  0.00  0.00    +0.000 C 
ATOM      5  C   UNL     1       2.414   2.378  19.332  0.00  0.00    +0.000 C 
ATOM      6  C   UNL     1       3.745   3.062  19.183  0.00  0.00    +0.000 C 
ATOM      7  O   UNL     1       4.744   2.707  19.801  0.00  0.00    +0.000 OA
BRANCH   2   8
ATOM      8  C   UNL     1       4.570   3.773  16.979  0.00  0.00    +0.000 C 
ATOM      9  O   UNL     1       5.127   2.693  16.842  0.00  0.00    +0.000 OA
BRANCH   8  10
ATOM     10  O   UNL     1       4.677   4.794  16.075  0.00  0.00    +0.000 OA
BRANCH  10  12
ATOM     11  C   UNL     1       6.808   4.948  14.906  0.00  0.00    +0.000 C 
ATOM     12  C   UNL     1       5.365   4.491  14.848  0.00  0.00    +0.000 C 
ENDBRANCH  10  12
ENDBRANCH   8  10
ENDBRANCH   2   8
ENDBRANCH   1   2
BRANCH   1  13
ATOM     13  C   UNL     1       3.343   6.702  18.682  0.00  0.00    +0.000 A 
ATOM     14  C   UNL     1       3.114   7.637  17.686  0.00  0.00    +0.000 A 
ATOM     15  C   UNL     1       2.129   8.527  18.179  0.00  0.00    +0.000 A 
ATOM     16  C   UNL     1       1.816   8.090  19.441  0.00  0.00    +0.000 A 
ATOM     17  O   UNL     1       2.540   6.987  19.751  0.00  0.00    +0.000 OA
ENDBRANCH   1  13
BRANCH   1  18
ATOM     18  N   UNL     1       5.544   5.910  18.212  0.00  0.00    +0.000 N 
ATOM     19  C   UNL     1       6.731   5.737  18.860  0.00  0.00    +0.000 C 
ATOM     20  O   UNL     1       6.862   5.336  20.005  0.00  0.00    +0.000 OA
ATOM     21  H   UNL     1       5.590   6.314  17.287  0.00  0.00    +0.000 HD
BRANCH  19  22
ATOM     22  O   UNL     1       7.749   6.089  18.034  0.00  0.00    +0.000 OA
ATOM     23  C   UNL     1       7.693   7.456  17.621  0.00  0.00    +0.000 C 
ENDBRANCH  19  22
ENDBRANCH   1  18
TORSDOF 7
ENDMDL
MODEL 9
REMARK VINA RESULT:      -6.3      1.747      4.576
REMARK  Name = 
REMARK  9 active torsions:
REMARK  status: ('A' for Active; 'I' for Inactive)
REMARK    1  A    between atoms: C_1  and  C_2
REMARK    2  A    between atoms: C_2  and  O_3
REMARK    3  A    between atoms: O_3  and  C_4
REMARK    4  A    between atoms: C_4  and  C_6
REMARK    5  A    between atoms: C_6  and  C_7
REMARK    6  A    between atoms: C_7  and  N_8
REMARK    7  A    between atoms: C_7  and  C_13
REMARK    8  A    between atoms: C_9  and  O_11
REMARK    9  A    between atoms: O_11  and  C_12
REMARK                            x       y       z     vdW  Elec       q    Type
REMARK                         _______ _______ _______ _____ _____    ______ ____
ROOT
ATOM      1  C   UNL     1       5.164   4.358  17.000  0.00  0.00    +0.000 C 
ENDROOT
BRANCH   1   2
ATOM      2  C   UNL     1       5.485   5.708  17.700  0.00  0.00    +0.000 C 
ATOM      3  C   UNL     1       6.165   6.723  16.751  0.00  0.00    +0.000 C 
ATOM      4  C   UNL     1       7.300   7.384  17.528  0.00  0.00    +0.000 C 
ATOM      5  C   UNL     1       7.696   6.444  18.654  0.00  0.00    +0.000 C 
ATOM      6  C   UNL     1       6.516   5.521  18.791  0.00  0.00    +0.000 C 
ATOM      7  O   UNL     1       6.404   4.723  19.715  0.00  0.00    +0.000 OA
BRANCH   2   8
ATOM      8  C   UNL     1       4.230   6.305  18.337  0.00  0.00    +0.000 C 
ATOM      9  O   UNL     1       3.590   7.252  17.903  0.00  0.00    +0.000 OA
BRANCH   8  10
ATOM     10  O   UNL     1       3.929   5.670  19.512  0.00  0.00    +0.000 OA
BRANCH  10  12
ATOM     11  C   UNL     1       2.266   4.718  21.014  0.00  0.00    +0.000 C 
ATOM     12  C   UNL     1       2.563   5.757  19.952  0.00  0.00    +0.000 C 
ENDBRANCH  10  12
ENDBRANCH   8  10
ENDBRANCH   2   8
ENDBRANCH   1   2
BRANCH   1  13
ATOM     13  C   UNL     1       5.637   4.262  15.562  0.00  0.00    +0.000 A 
ATOM     14  C   UNL     1       4.993   4.081  14.349  0.00  0.00    +0.000 A 
ATOM     15  C   UNL     1       5.998   4.059  13.351  0.00  0.00    +0.000 A 
ATOM     16  C   UNL     1       7.191   4.225  14.007  0.00  0.00    +0.000 A 
ATOM     17  O   UNL     1       6.983   4.353  15.340  0.00  0.00    +0.000 OA
ENDBRANCH   1  13
BRANCH   1  18
ATOM     18  N   UNL     1       3.724   4.085  16.976  0.00  0.00    +0.000 N 
ATOM     19  C   UNL     1       3.198   2.944  17.505  0.00  0.00    +0.000 C 
ATOM     20  O   UNL     1       3.839   2.008  17.952  0.00  0.00    +0.000 OA
ATOM     21  H   UNL     1       3.067   4.744  16.582  0.00  0.00    +0.000 HD
BRANCH  19  22
ATOM     22  O   UNL     1       1.843   3.006  17.449  0.00  0.00    +0.000 OA
ATOM     23  C   UNL     1       1.202   2.349  18.543  0.00  0.00    +0.000 C 
ENDBRANCH  19  22
ENDBRANCH   1  18
TORSDOF 7
ENDMDL
