MODEL 1
REMARK VINA RESULT:      -6.1      0.000      0.000
REMARK  Name = 
REMARK  7 active torsions:
REMARK  status: ('A' for Active; 'I' for Inactive)
REMARK    1  A    between atoms: C_1  and  O_2
REMARK    2  A    between atoms: O_2  and  C_3
REMARK    3  A    between atoms: C_3  and  C_4
REMARK    4  A    between atoms: C_4  and  N_5
REMARK    5  A    between atoms: N_5  and  S_6
REMARK    6  A    between atoms: S_6  and  C_9
REMARK    7  A    between atoms: C_13  and  C_14
REMARK                            x       y       z     vdW  Elec       q    Type
REMARK                         _______ _______ _______ _____ _____    ______ ____
ROOT
ATOM      1  S   UNL     1       5.720   4.950  18.988  0.00  0.00    +0.000 S 
ATOM      2  O   UNL     1       4.505   5.735  18.947  0.00  0.00    +0.000 OA
ATOM      3  O   UNL     1       6.774   5.220  19.939  0.00  0.00    +0.000 OA
ENDROOT
BRANCH   1   4
ATOM      4  C   UNL     1       6.431   5.152  17.447  0.00  0.00    +0.000 A 
ATOM      5  C   UNL     1       6.364   4.229  16.393  0.00  0.00    +0.000 A 
ATOM      6  N   UNL     1       7.004   4.663  15.303  0.00  0.00    +0.000 NA
ATOM      7  N   UNL     1       7.494   5.860  15.675  0.00  0.00    +0.000 N 
ATOM      8  C   UNL     1       7.153   6.221  16.950  0.00  0.00    +0.000 A 
ATOM      9  C   UNL     1       7.552   7.513  17.550  0.00  0.00    +0.000 C 
ATOM     10  H   UNL     1       8.050   6.379  15.003  0.00  0.00    +0.000 HD
ENDBRANCH   1   4
BRANCH   1  11
ATOM     11  N   UNL     1       5.263   3.342  19.174  0.00  0.00    +0.000 NA
ATOM     12  H   UNL     1       5.816   2.747  18.557  0.00  0.00    +0.000 HD
BRANCH  11  13
ATOM     13  C   UNL     1       3.807   3.073  19.156  0.00  0.00    +0.000 C 
BRANCH  13  14
ATOM     14  C   UNL     1       3.422   2.265  17.914  0.00  0.00    +0.000 C 
BRANCH  14  16
ATOM     15  C   UNL     1       1.434   3.473  18.295  0.00  0.00    +0.000 C 
ATOM     16  O   UNL     1       2.232   2.800  17.332  0.00  0.00    +0.000 OA
ENDBRANCH  14  16
ENDBRANCH  13  14
ENDBRANCH  11  13
ENDBRANCH   1  11
TORSDOF 5
ENDMDL
MODEL 2
REMARK VINA RESULT:      -5.7      2.670      5.434
REMARK  Name = 
REMARK  7 active torsions:
REMARK  status: ('A' for Active; 'I' for Inactive)
REMARK    1  A    between atoms: C_1  and  O_2
REMARK    2  A    between atoms: O_2  and  C_3
REMARK    3  A    between atoms: C_3  and  C_4
REMARK    4  A    between atoms: C_4  and  N_5
REMARK    5  A    between atoms: N_5  and  S_6
REMARK    6  A    between atoms: S_6  and  C_9
REMARK    7  A    between atoms: C_13  and  C_14
REMARK                            x       y       z     vdW  Elec       q    Type
REMARK                         _______ _______ _______ _____ _____    ______ ____
ROOT
ATOM      1  S   UNL     1       4.435   3.516  19.194  0.00  0.00    +0.000 S 
ATOM      2  O   UNL     1       5.045   2.512  20.038  0.00  0.00    +0.000 OA
ATOM      3  O   UNL     1       4.527   4.927  19.496  0.00  0.00    +0.000 OA
ENDROOT
BRANCH   1   4
ATOM      4  C   UNL     1       2.764   3.154  19.209  0.00  0.00    +0.000 A 
ATOM      5  C   UNL     1       2.002   2.791  18.089  0.00  0.00    +0.000 A 
ATOM      6  N   UNL     1       0.725   2.555  18.405  0.00  0.00    +0.000 NA
ATOM      7  N   UNL     1       0.676   2.786  19.730  0.00  0.00    +0.000 N 
ATOM      8  C   UNL     1       1.886   3.121  20.275  0.00  0.00    +0.000 A 
ATOM      9  C   UNL     1       2.069   3.379  21.720  0.00  0.00    +0.000 C 
ATOM     10  H   UNL     1      -0.219   2.690  20.199  0.00  0.00    +0.000 HD
ENDBRANCH   1   4
BRANCH   1  11
ATOM     11  N   UNL     1       5.033   3.286  17.639  0.00  0.00    +0.000 NA
ATOM     12  H   UNL     1       5.658   2.480  17.620  0.00  0.00    +0.000 HD
BRANCH  11  13
ATOM     13  C   UNL     1       5.554   4.493  16.957  0.00  0.00    +0.000 C 
BRANCH  13  14
ATOM     14  C   UNL     1       7.077   4.570  17.084  0.00  0.00    +0.000 C 
BRANCH  14  16
ATOM     15  C   UNL     1       6.711   4.621  14.756  0.00  0.00    +0.000 C 
ATOM     16  O   UNL     1       7.665   4.771  15.797  0.00  0.00    +0.000 OA
ENDBRANCH  14  16
ENDBRANCH  13  14
ENDBRANCH  11  13
ENDBRANCH   1  11
TORSDOF 5
ENDMDL
MODEL 3
REMARK VINA RESULT:      -5.5      2.589      3.103
REMARK  Name = 
REMARK  7 active torsions:
REMARK  status: ('A' for Active; 'I' for Inactive)
REMARK    1  A    between atoms: C_1  and  O_2
REMARK    2  A    between atoms: O_2  and  C_3
REMARK    3  A    between atoms: C_3  and  C_4
REMARK    4  A    between atoms: C_4  and  N_5
REMARK    5  A    between atoms: N_5  and  S_6
REMARK    6  A    between atoms: S_6  and  C_9
REMARK    7  A    between atoms: C_13  and  C_14
REMARK                            x       y       z     vdW  Elec       q    Type
REMARK                         _______ _______ _______ _____ _____    ______ ____
ROOT
ATOM      1  S   UNL     1       6.421   5.605  15.976  0.00  0.00    +0.000 S 
ATOM      2  O   UNL     1       7.465   5.327  15.014  0.00  0.00    +0.000 OA
ATOM      3  O   UNL     1       5.555   6.756  15.853  0.00  0.00    +0.000 OA
ENDROOT
BRANCH   1   4
ATOM      4  C   UNL     1       7.232   5.800  17.468  0.00  0.00    +0.000 A 
ATOM      5  C   UNL     1       7.544   4.768  18.365  0.00  0.00    +0.000 A 
ATOM      6  N   UNL     1       8.191   5.218  19.444  0.00  0.00    +0.000 NA
ATOM      7  N   UNL     1       8.274   6.545  19.237  0.00  0.00    +0.000 N 
ATOM      8  C   UNL     1       7.739   6.950  18.044  0.00  0.00    +0.000 A 
ATOM      9  C   UNL     1       7.757   8.360  17.596  0.00  0.00    +0.000 C 
ATOM     10  H   UNL     1       8.715   7.114  19.952  0.00  0.00    +0.000 HD
ENDBRANCH   1   4
BRANCH   1  11
ATOM     11  N   UNL     1       5.446   4.237  16.057  0.00  0.00    +0.000 NA
ATOM     12  H   UNL     1       5.309   3.849  15.124  0.00  0.00    +0.000 HD
BRANCH  11  13
ATOM     13  C   UNL     1       4.210   4.366  16.863  0.00  0.00    +0.000 C 
BRANCH  13  14
ATOM     14  C   UNL     1       4.102   3.221  17.873  0.00  0.00    +0.000 C 
BRANCH  14  16
ATOM     15  C   UNL     1       3.992   5.107  19.283  0.00  0.00    +0.000 C 
ATOM     16  O   UNL     1       4.287   3.720  19.200  0.00  0.00    +0.000 OA
ENDBRANCH  14  16
ENDBRANCH  13  14
ENDBRANCH  11  13
ENDBRANCH   1  11
TORSDOF 5
ENDMDL
MODEL 4
REMARK VINA RESULT:      -5.5      0.986      1.096
REMARK  Name = 
REMARK  7 active torsions:
REMARK  status: ('A' for Active; 'I' for Inactive)
REMARK    1  A    between atoms: C_1  and  O_2
REMARK    2  A    between atoms: O_2  and  C_3
REMARK    3  A    between atoms: C_3  and  C_4
REMARK    4  A    between atoms: C_4  and  N_5
REMARK    5  A    between atoms: N_5  and  S_6
REMARK    6  A    between atoms: S_6  and  C_9
REMARK    7  A    between atoms: C_13  and  C_14
REMARK                            x       y       z     vdW  Elec       q    Type
REMARK                         _______ _______ _______ _____ _____    ______ ____
ROOT
ATOM      1  S   UNL     1       5.697   4.917  19.072  0.00  0.00    +0.000 S 
ATOM      2  O   UNL     1       4.448   5.641  19.163  0.00  0.00    +0.000 OA
ATOM      3  O   UNL     1       6.832   5.244  19.904  0.00  0.00    +0.000 OA
ENDROOT
BRANCH   1   4
ATOM      4  C   UNL     1       6.227   5.147  17.463  0.00  0.00    +0.000 A 
ATOM      5  C   UNL     1       7.300   4.477  16.857  0.00  0.00    +0.000 A 
ATOM      6  N   UNL     1       7.475   4.854  15.587  0.00  0.00    +0.000 NA
ATOM      7  N   UNL     1       6.518   5.780  15.394  0.00  0.00    +0.000 N 
ATOM      8  C   UNL     1       5.715   5.977  16.484  0.00  0.00    +0.000 A 
ATOM      9  C   UNL     1       4.576   6.921  16.479  0.00  0.00    +0.000 C 
ATOM     10  H   UNL     1       6.470   6.236  14.488  0.00  0.00    +0.000 HD
ENDBRANCH   1   4
BRANCH   1  11
ATOM     11  N   UNL     1       5.343   3.289  19.305  0.00  0.00    +0.000 NA
ATOM     12  H   UNL     1       5.899   2.716  18.670  0.00  0.00    +0.000 HD
BRANCH  11  13
ATOM     13  C   UNL     1       3.906   2.937  19.364  0.00  0.00    +0.000 C 
BRANCH  13  14
ATOM     14  C   UNL     1       3.583   1.817  18.372  0.00  0.00    +0.000 C 
BRANCH  14  16
ATOM     15  C   UNL     1       1.942   3.451  17.934  0.00  0.00    +0.000 C 
ATOM     16  O   UNL     1       2.403   2.142  17.634  0.00  0.00    +0.000 OA
ENDBRANCH  14  16
ENDBRANCH  13  14
ENDBRANCH  11  13
ENDBRANCH   1  11
TORSDOF 5
ENDMDL
MODEL 5
REMARK VINA RESULT:      -5.5      1.588      2.373
REMARK  Name = 
REMARK  7 active torsions:
REMARK  status: ('A' for Active; 'I' for Inactive)
REMARK    1  A    between atoms: C_1  and  O_2
REMARK    2  A    between atoms: O_2  and  C_3
REMARK    3  A    between atoms: C_3  and  C_4
REMARK    4  A    between atoms: C_4  and  N_5
REMARK    5  A    between atoms: N_5  and  S_6
REMARK    6  A    between atoms: S_6  and  C_9
REMARK    7  A    between atoms: C_13  and  C_14
REMARK                            x       y       z     vdW  Elec       q    Type
REMARK                         _______ _______ _______ _____ _____    ______ ____
ROOT
ATOM      1  S   UNL     1       4.506   4.806  18.196  0.00  0.00    +0.000 S 
ATOM      2  O   UNL     1       3.364   4.929  17.317  0.00  0.00    +0.000 OA
ATOM      3  O   UNL     1       4.563   5.478  19.474  0.00  0.00    +0.000 OA
ENDROOT
BRANCH   1   4
ATOM      4  C   UNL     1       5.825   5.420  17.298  0.00  0.00    +0.000 A 
ATOM      5  C   UNL     1       6.627   6.509  17.673  0.00  0.00    +0.000 A 
ATOM      6  N   UNL     1       7.591   6.754  16.780  0.00  0.00    +0.000 NA
ATOM      7  N   UNL     1       7.388   5.825  15.827  0.00  0.00    +0.000 N 
ATOM      8  C   UNL     1       6.354   4.972  16.102  0.00  0.00    +0.000 A 
ATOM      9  C   UNL     1       5.981   3.852  15.211  0.00  0.00    +0.000 C 
ATOM     10  H   UNL     1       7.999   5.830  15.017  0.00  0.00    +0.000 HD
ENDBRANCH   1   4
BRANCH   1  11
ATOM     11  N   UNL     1       4.746   3.164  18.469  0.00  0.00    +0.000 NA
ATOM     12  H   UNL     1       5.634   2.868  18.064  0.00  0.00    +0.000 HD
BRANCH  11  13
ATOM     13  C   UNL     1       3.598   2.279  18.163  0.00  0.00    +0.000 C 
BRANCH  13  14
ATOM     14  C   UNL     1       2.571   2.314  19.298  0.00  0.00    +0.000 C 
BRANCH  14  16
ATOM     15  C   UNL     1       2.335   2.916  21.565  0.00  0.00    +0.000 C 
ATOM     16  O   UNL     1       3.234   2.487  20.552  0.00  0.00    +0.000 OA
ENDBRANCH  14  16
ENDBRANCH  13  14
ENDBRANCH  11  13
ENDBRANCH   1  11
TORSDOF 5
ENDMDL
MODEL 6
REMARK VINA RESULT:      -5.5      2.494      5.801
REMARK  Name = 
REMARK  7 active torsions:
REMARK  status: ('A' for Active; 'I' for Inactive)
REMARK    1  A    between atoms: C_1  and  O_2
REMARK    2  A    between atoms: O_2  and  C_3
REMARK    3  A    between atoms: C_3  and  C_4
REMARK    4  A    between atoms: C_4  and  N_5
REMARK    5  A    between atoms: N_5  and  S_6
REMARK    6  A    between atoms: S_6  and  C_9
REMARK    7  A    between atoms: C_13  and  C_14
REMARK                            x       y       z     vdW  Elec       q    Type
REMARK                         _______ _______ _______ _____ _____    ______ ____
ROOT
ATOM      1  S   UNL     1       3.839   2.995  18.309  0.00  0.00    +0.000 S 
ATOM      2  O   UNL     1       3.257   4.116  17.603  0.00  0.00    +0.000 OA
ATOM      3  O   UNL     1       3.884   1.670  17.736  0.00  0.00    +0.000 OA
ENDROOT
BRANCH   1   4
ATOM      4  C   UNL     1       2.914   2.844  19.739  0.00  0.00    +0.000 A 
ATOM      5  C   UNL     1       3.426   2.872  21.045  0.00  0.00    +0.000 A 
ATOM      6  N   UNL     1       2.465   2.741  21.964  0.00  0.00    +0.000 NA
ATOM      7  N   UNL     1       1.341   2.613  21.236  0.00  0.00    +0.000 N 
ATOM      8  C   UNL     1       1.548   2.698  19.886  0.00  0.00    +0.000 A 
ATOM      9  C   UNL     1       0.447   2.622  18.900  0.00  0.00    +0.000 C 
ATOM     10  H   UNL     1       0.465   2.474  21.729  0.00  0.00    +0.000 HD
ENDBRANCH   1   4
BRANCH   1  11
ATOM     11  N   UNL     1       5.412   3.430  18.717  0.00  0.00    +0.000 NA
ATOM     12  H   UNL     1       5.543   3.363  19.726  0.00  0.00    +0.000 HD
BRANCH  11  13
ATOM     13  C   UNL     1       5.921   4.680  18.106  0.00  0.00    +0.000 C 
BRANCH  13  14
ATOM     14  C   UNL     1       7.389   4.525  17.703  0.00  0.00    +0.000 C 
BRANCH  14  16
ATOM     15  C   UNL     1       6.638   4.446  15.470  0.00  0.00    +0.000 C 
ATOM     16  O   UNL     1       7.584   5.004  16.371  0.00  0.00    +0.000 OA
ENDBRANCH  14  16
ENDBRANCH  13  14
ENDBRANCH  11  13
ENDBRANCH   1  11
TORSDOF 5
ENDMDL
MODEL 7
REMARK VINA RESULT:      -5.4      2.549      5.411
REMARK  Name = 
REMARK  7 active torsions:
REMARK  status: ('A' for Active; 'I' for Inactive)
REMARK    1  A    between atoms: C_1  and  O_2
REMARK    2  A    between atoms: O_2  and  C_3
REMARK    3  A    between atoms: C_3  and  C_4
REMARK    4  A    between atoms: C_4  and  N_5
REMARK    5  A    between atoms: N_5  and  S_6
REMARK    6  A    between atoms: S_6  and  C_9
REMARK    7  A    between atoms: C_13  and  C_14
REMARK                            x       y       z     vdW  Elec       q    Type
REMARK                         _______ _______ _______ _____ _____    ______ ____
ROOT
ATOM      1  S   UNL     1       4.402   3.647  19.165  0.00  0.00    +0.000 S 
ATOM      2  O   UNL     1       5.063   2.621  19.940  0.00  0.00    +0.000 OA
ATOM      3  O   UNL     1       4.457   5.042  19.538  0.00  0.00    +0.000 OA
ENDROOT
BRANCH   1   4
ATOM      4  C   UNL     1       2.745   3.230  19.196  0.00  0.00    +0.000 A 
ATOM      5  C   UNL     1       1.978   2.859  18.082  0.00  0.00    +0.000 A 
ATOM      6  N   UNL     1       0.715   2.577  18.412  0.00  0.00    +0.000 NA
ATOM      7  N   UNL     1       0.677   2.788  19.741  0.00  0.00    +0.000 N 
ATOM      8  C   UNL     1       1.882   3.154  20.274  0.00  0.00    +0.000 A 
ATOM      9  C   UNL     1       2.078   3.398  21.720  0.00  0.00    +0.000 C 
ATOM     10  H   UNL     1      -0.208   2.657  20.220  0.00  0.00    +0.000 HD
ENDBRANCH   1   4
BRANCH   1  11
ATOM     11  N   UNL     1       4.970   3.518  17.587  0.00  0.00    +0.000 NA
ATOM     12  H   UNL     1       5.202   2.547  17.377  0.00  0.00    +0.000 HD
BRANCH  11  13
ATOM     13  C   UNL     1       5.999   4.504  17.182  0.00  0.00    +0.000 C 
BRANCH  13  14
ATOM     14  C   UNL     1       5.416   5.519  16.196  0.00  0.00    +0.000 C 
BRANCH  14  16
ATOM     15  C   UNL     1       7.100   6.743  17.300  0.00  0.00    +0.000 C 
ATOM     16  O   UNL     1       6.202   6.712  16.200  0.00  0.00    +0.000 OA
ENDBRANCH  14  16
ENDBRANCH  13  14
ENDBRANCH  11  13
ENDBRANCH   1  11
TORSDOF 5
ENDMDL
MODEL 8
REMARK VINA RESULT:      -5.4      1.904      2.127
REMARK  Name = 
REMARK  7 active torsions:
REMARK  status: ('A' for Active; 'I' for Inactive)
REMARK    1  A    between atoms: C_1  and  O_2
REMARK    2  A    between atoms: O_2  and  C_3
REMARK    3  A    between atoms: C_3  and  C_4
REMARK    4  A    between atoms: C_4  and  N_5
REMARK    5  A    between atoms: N_5  and  S_6
REMARK    6  A    between atoms: S_6  and  C_9
REMARK    7  A    between atoms: C_13  and  C_14
REMARK                            x       y       z     vdW  Elec       q    Type
REMARK                         _______ _______ _______ _____ _____    ______ ____
ROOT
ATOM      1  S   UNL     1       4.471   4.219  18.423  0.00  0.00    +0.000 S 
ATOM      2  O   UNL     1       4.115   5.574  18.785  0.00  0.00    +0.000 OA
ATOM      3  O   UNL     1       4.934   3.263  19.403  0.00  0.00    +0.000 OA
ENDROOT
BRANCH   1   4
ATOM      4  C   UNL     1       5.751   4.381  17.301  0.00  0.00    +0.000 A 
ATOM      5  C   UNL     1       5.699   4.010  15.950  0.00  0.00    +0.000 A 
ATOM      6  N   UNL     1       6.847   4.265  15.314  0.00  0.00    +0.000 NA
ATOM      7  N   UNL     1       7.635   4.783  16.273  0.00  0.00    +0.000 N 
ATOM      8  C   UNL     1       7.016   4.906  17.488  0.00  0.00    +0.000 A 
ATOM      9  C   UNL     1       7.684   5.489  18.672  0.00  0.00    +0.000 C 
ATOM     10  H   UNL     1       8.586   5.037  16.025  0.00  0.00    +0.000 HD
ENDBRANCH   1   4
BRANCH   1  11
ATOM     11  N   UNL     1       3.140   3.549  17.643  0.00  0.00    +0.000 NA
ATOM     12  H   UNL     1       3.256   3.616  16.632  0.00  0.00    +0.000 HD
BRANCH  11  13
ATOM     13  C   UNL     1       1.811   3.970  18.145  0.00  0.00    +0.000 C 
BRANCH  13  14
ATOM     14  C   UNL     1       1.320   3.019  19.239  0.00  0.00    +0.000 C 
BRANCH  14  16
ATOM     15  C   UNL     1       1.678   2.864  21.563  0.00  0.00    +0.000 C 
ATOM     16  O   UNL     1       1.266   3.702  20.493  0.00  0.00    +0.000 OA
ENDBRANCH  14  16
ENDBRANCH  13  14
ENDBRANCH  11  13
ENDBRANCH   1  11
TORSDOF 5
ENDMDL
MODEL 9
REMARK VINA RESULT:      -5.4      1.671      1.831
REMARK  Name = 
REMARK  7 active torsions:
REMARK  status: ('A' for Active; 'I' for Inactive)
REMARK    1  A    between atoms: C_1  and  O_2
REMARK    2  A    between atoms: O_2  and  C_3
REMARK    3  A    between atoms: C_3  and  C_4
REMARK    4  A    between atoms: C_4  and  N_5
REMARK    5  A    between atoms: N_5  and  S_6
REMARK    6  A    between atoms: S_6  and  C_9
REMARK    7  A    between atoms: C_13  and  C_14
REMARK                            x       y       z     vdW  Elec       q    Type
REMARK                         _______ _______ _______ _____ _____    ______ ____
ROOT
ATOM      1  S   UNL     1       5.674   4.935  19.162  0.00  0.00    +0.000 S 
ATOM      2  O   UNL     1       4.468   5.666  19.482  0.00  0.00    +0.000 OA
ATOM      3  O   UNL     1       6.895   5.107  19.916  0.00  0.00    +0.000 OA
ENDROOT
BRANCH   1   4
ATOM      4  C   UNL     1       6.058   5.389  17.559  0.00  0.00    +0.000 A 
ATOM      5  C   UNL     1       7.136   4.896  16.811  0.00  0.00    +0.000 A 
ATOM      6  N   UNL     1       7.179   5.424  15.584  0.00  0.00    +0.000 NA
ATOM      7  N   UNL     1       6.132   6.268  15.562  0.00  0.00    +0.000 N 
ATOM      8  C   UNL     1       5.399   6.266  16.718  0.00  0.00    +0.000 A 
ATOM      9  C   UNL     1       4.183   7.089  16.897  0.00  0.00    +0.000 C 
ATOM     10  H   UNL     1       5.974   6.812  14.720  0.00  0.00    +0.000 HD
ENDBRANCH   1   4
BRANCH   1  11
ATOM     11  N   UNL     1       5.282   3.299  19.190  0.00  0.00    +0.000 NA
ATOM     12  H   UNL     1       6.094   2.740  18.926  0.00  0.00    +0.000 HD
BRANCH  11  13
ATOM     13  C   UNL     1       4.021   2.921  18.511  0.00  0.00    +0.000 C 
BRANCH  13  14
ATOM     14  C   UNL     1       3.080   2.202  19.482  0.00  0.00    +0.000 C 
BRANCH  14  16
ATOM     15  C   UNL     1       2.203   3.118  21.469  0.00  0.00    +0.000 C 
ATOM     16  O   UNL     1       3.360   2.605  20.824  0.00  0.00    +0.000 OA
ENDBRANCH  14  16
ENDBRANCH  13  14
ENDBRANCH  11  13
ENDBRANCH   1  11
TORSDOF 5
ENDMDL
