MODEL 1
REMARK VINA RESULT:      -7.3      0.000      0.000
REMARK  Name = 
REMARK  4 active torsions:
REMARK  status: ('A' for Active; 'I' for Inactive)
REMARK    1  A    between atoms: C_1  and  C_2
REMARK    2  A    between atoms: C_8  and  N_9
REMARK    3  A    between atoms: C_10  and  S_11
REMARK    4  A    between atoms: C_17  and  O_18
REMARK                            x       y       z     vdW  Elec       q    Type
REMARK                         _______ _______ _______ _____ _____    ______ ____
ROOT
ATOM      1  N   UNL     1       4.576   3.762  17.496  0.00  0.00    +0.000 NA
ATOM      2  C   UNL     1       3.683   4.475  18.103  0.00  0.00    +0.000 C 
ATOM      3  N   UNL     1       2.884   3.902  19.076  0.00  0.00    +0.000 N 
ATOM      4  C   UNL     1       3.552   3.341  20.254  0.00  0.00    +0.000 C 
ATOM      5  C   UNL     1       2.583   3.244  21.427  0.00  0.00    +0.000 C 
ATOM      6  C   UNL     1       1.305   2.505  21.040  0.00  0.00    +0.000 C 
ATOM      7  C   UNL     1       0.668   3.152  19.809  0.00  0.00    +0.000 C 
ATOM      8  C   UNL     1       1.656   3.253  18.647  0.00  0.00    +0.000 C 
ENDROOT
BRANCH   1  16
ATOM      9  C   UNL     1       7.179   5.444  17.964  0.00  0.00    +0.000 C 
ATOM     10  C   UNL     1       6.717   4.835  16.673  0.00  0.00    +0.000 A 
ATOM     11  C   UNL     1       7.508   5.127  15.535  0.00  0.00    +0.000 A 
ATOM     12  C   UNL     1       7.119   4.738  14.259  0.00  0.00    +0.000 A 
ATOM     13  C   UNL     1       5.936   4.039  14.102  0.00  0.00    +0.000 A 
ATOM     14 CL   UNL     1       5.379   3.648  12.521  0.00  0.00    +0.000 Cl
ATOM     15  C   UNL     1       5.188   3.685  15.217  0.00  0.00    +0.000 A 
ATOM     16  C   UNL     1       5.555   4.052  16.533  0.00  0.00    +0.000 A 
ENDBRANCH   1  16
BRANCH   2  17
ATOM     17  S   UNL     1       3.351   6.192  17.945  0.00  0.00    +0.000 S 
ATOM     18  H   UNL     1       3.066   6.218  16.644  0.00  0.00    +0.000 HD
ENDBRANCH   2  17
BRANCH   8  19
ATOM     19  O   UNL     1       1.905   1.954  18.139  0.00  0.00    +0.000 OA
ATOM     20  H   UNL     1       2.830   1.754  18.329  0.00  0.00    +0.000 HD
ENDBRANCH   8  19
TORSDOF 3
ENDMDL
MODEL 2
REMARK VINA RESULT:      -5.9      1.649      1.838
REMARK  Name = 
REMARK  4 active torsions:
REMARK  status: ('A' for Active; 'I' for Inactive)
REMARK    1  A    between atoms: C_1  and  C_2
REMARK    2  A    between atoms: C_8  and  N_9
REMARK    3  A    between atoms: C_10  and  S_11
REMARK    4  A    between atoms: C_17  and  O_18
REMARK                            x       y       z     vdW  Elec       q    Type
REMARK                         _______ _______ _______ _____ _____    ______ ____
ROOT
ATOM      1  N   UNL     1       4.584   4.475  16.882  0.00  0.00    +0.000 NA
ATOM      2  C   UNL     1       4.619   4.366  18.171  0.00  0.00    +0.000 C 
ATOM      3  N   UNL     1       3.442   4.236  18.886  0.00  0.00    +0.000 N 
ATOM      4  C   UNL     1       2.598   3.074  18.592  0.00  0.00    +0.000 C 
ATOM      5  C   UNL     1       1.666   2.776  19.761  0.00  0.00    +0.000 C 
ATOM      6  C   UNL     1       0.878   4.013  20.182  0.00  0.00    +0.000 C 
ATOM      7  C   UNL     1       1.827   5.175  20.474  0.00  0.00    +0.000 C 
ATOM      8  C   UNL     1       2.762   5.454  19.297  0.00  0.00    +0.000 C 
ENDROOT
BRANCH   1  16
ATOM      9  C   UNL     1       7.029   6.437  16.886  0.00  0.00    +0.000 C 
ATOM     10  C   UNL     1       6.667   5.446  15.819  0.00  0.00    +0.000 A 
ATOM     11  C   UNL     1       7.479   5.466  14.659  0.00  0.00    +0.000 A 
ATOM     12  C   UNL     1       7.174   4.696  13.543  0.00  0.00    +0.000 A 
ATOM     13  C   UNL     1       6.055   3.883  13.576  0.00  0.00    +0.000 A 
ATOM     14 CL   UNL     1       5.595   3.008  12.166  0.00  0.00    +0.000 Cl
ATOM     15  C   UNL     1       5.292   3.800  14.733  0.00  0.00    +0.000 A 
ATOM     16  C   UNL     1       5.576   4.560  15.892  0.00  0.00    +0.000 A 
ENDBRANCH   1  16
BRANCH   2  17
ATOM     17  S   UNL     1       6.015   4.263  19.230  0.00  0.00    +0.000 S 
ATOM     18  H   UNL     1       5.663   5.198  20.111  0.00  0.00    +0.000 HD
ENDBRANCH   2  17
BRANCH   8  19
ATOM     19  O   UNL     1       2.011   6.013  18.234  0.00  0.00    +0.000 OA
ATOM     20  H   UNL     1       2.332   5.603  17.421  0.00  0.00    +0.000 HD
ENDBRANCH   8  19
TORSDOF 3
ENDMDL
MODEL 3
REMARK VINA RESULT:      -5.8      1.453      1.549
REMARK  Name = 
REMARK  4 active torsions:
REMARK  status: ('A' for Active; 'I' for Inactive)
REMARK    1  A    between atoms: C_1  and  C_2
REMARK    2  A    between atoms: C_8  and  N_9
REMARK    3  A    between atoms: C_10  and  S_11
REMARK    4  A    between atoms: C_17  and  O_18
REMARK                            x       y       z     vdW  Elec       q    Type
REMARK                         _______ _______ _______ _____ _____    ______ ____
ROOT
ATOM      1  N   UNL     1       5.060   4.177  17.849  0.00  0.00    +0.000 NA
ATOM      2  C   UNL     1       3.821   3.816  17.947  0.00  0.00    +0.000 C 
ATOM      3  N   UNL     1       3.234   3.687  19.193  0.00  0.00    +0.000 N 
ATOM      4  C   UNL     1       3.181   4.881  20.041  0.00  0.00    +0.000 C 
ATOM      5  C   UNL     1       2.087   4.746  21.093  0.00  0.00    +0.000 C 
ATOM      6  C   UNL     1       2.221   3.445  21.879  0.00  0.00    +0.000 C 
ATOM      7  C   UNL     1       2.265   2.250  20.927  0.00  0.00    +0.000 C 
ATOM      8  C   UNL     1       3.359   2.407  19.870  0.00  0.00    +0.000 C 
ENDROOT
BRANCH   1  16
ATOM      9  C   UNL     1       7.369   6.297  17.793  0.00  0.00    +0.000 C 
ATOM     10  C   UNL     1       6.926   5.413  16.665  0.00  0.00    +0.000 A 
ATOM     11  C   UNL     1       7.575   5.625  15.424  0.00  0.00    +0.000 A 
ATOM     12  C   UNL     1       7.168   4.969  14.268  0.00  0.00    +0.000 A 
ATOM     13  C   UNL     1       6.111   4.080  14.338  0.00  0.00    +0.000 A 
ATOM     14 CL   UNL     1       5.519   3.344  12.899  0.00  0.00    +0.000 Cl
ATOM     15  C   UNL     1       5.514   3.809  15.562  0.00  0.00    +0.000 A 
ATOM     16  C   UNL     1       5.906   4.447  16.762  0.00  0.00    +0.000 A 
ENDBRANCH   1  16
BRANCH   2  17
ATOM     17  S   UNL     1       2.655   3.525  16.667  0.00  0.00    +0.000 S 
ATOM     18  H   UNL     1       2.956   2.252  16.414  0.00  0.00    +0.000 HD
ENDBRANCH   2  17
BRANCH   8  19
ATOM     19  O   UNL     1       4.624   2.270  20.493  0.00  0.00    +0.000 OA
ATOM     20  H   UNL     1       5.021   1.463  20.142  0.00  0.00    +0.000 HD
ENDBRANCH   8  19
TORSDOF 3
ENDMDL
MODEL 4
REMARK VINA RESULT:      -5.8      1.612      2.003
REMARK  Name = 
REMARK  4 active torsions:
REMARK  status: ('A' for Active; 'I' for Inactive)
REMARK    1  A    between atoms: C_1  and  C_2
REMARK    2  A    between atoms: C_8  and  N_9
REMARK    3  A    between atoms: C_10  and  S_11
REMARK    4  A    between atoms: C_17  and  O_18
REMARK                            x       y       z     vdW  Elec       q    Type
REMARK                         _______ _______ _______ _____ _____    ______ ____
ROOT
ATOM      1  N   UNL     1       4.430   4.085  17.370  0.00  0.00    +0.000 NA
ATOM      2  C   UNL     1       3.963   3.078  18.036  0.00  0.00    +0.000 C 
ATOM      3  N   UNL     1       2.904   3.257  18.908  0.00  0.00    +0.000 N 
ATOM      4  C   UNL     1       1.643   3.751  18.347  0.00  0.00    +0.000 C 
ATOM      5  C   UNL     1       0.474   3.401  19.259  0.00  0.00    +0.000 C 
ATOM      6  C   UNL     1       0.724   3.857  20.694  0.00  0.00    +0.000 C 
ATOM      7  C   UNL     1       2.051   3.298  21.206  0.00  0.00    +0.000 C 
ATOM      8  C   UNL     1       3.211   3.649  20.274  0.00  0.00    +0.000 C 
ENDROOT
BRANCH   1  16
ATOM      9  C   UNL     1       7.181   5.543  17.732  0.00  0.00    +0.000 C 
ATOM     10  C   UNL     1       6.659   4.896  16.483  0.00  0.00    +0.000 A 
ATOM     11  C   UNL     1       7.470   5.034  15.331  0.00  0.00    +0.000 A 
ATOM     12  C   UNL     1       7.043   4.599  14.082  0.00  0.00    +0.000 A 
ATOM     13  C   UNL     1       5.798   4.006  13.969  0.00  0.00    +0.000 A 
ATOM     14 CL   UNL     1       5.203   3.564  12.416  0.00  0.00    +0.000 Cl
ATOM     15  C   UNL     1       5.024   3.799  15.103  0.00  0.00    +0.000 A 
ATOM     16  C   UNL     1       5.428   4.217  16.392  0.00  0.00    +0.000 A 
ENDBRANCH   1  16
BRANCH   2  17
ATOM     17  S   UNL     1       4.428   1.388  17.947  0.00  0.00    +0.000 S 
ATOM     18  H   UNL     1       3.927   0.985  19.113  0.00  0.00    +0.000 HD
ENDBRANCH   2  17
BRANCH   8  19
ATOM     19  O   UNL     1       3.477   5.037  20.370  0.00  0.00    +0.000 OA
ATOM     20  H   UNL     1       3.440   5.263  21.308  0.00  0.00    +0.000 HD
ENDBRANCH   8  19
TORSDOF 3
ENDMDL
MODEL 5
REMARK VINA RESULT:      -5.6      2.013      2.596
REMARK  Name = 
REMARK  4 active torsions:
REMARK  status: ('A' for Active; 'I' for Inactive)
REMARK    1  A    between atoms: C_1  and  C_2
REMARK    2  A    between atoms: C_8  and  N_9
REMARK    3  A    between atoms: C_10  and  S_11
REMARK    4  A    between atoms: C_17  and  O_18
REMARK                            x       y       z     vdW  Elec       q    Type
REMARK                         _______ _______ _______ _____ _____    ______ ____
ROOT
ATOM      1  N   UNL     1       4.433   4.694  18.047  0.00  0.00    +0.000 NA
ATOM      2  C   UNL     1       3.310   5.136  18.515  0.00  0.00    +0.000 C 
ATOM      3  N   UNL     1       2.563   4.352  19.375  0.00  0.00    +0.000 N 
ATOM      4  C   UNL     1       3.186   3.957  20.642  0.00  0.00    +0.000 C 
ATOM      5  C   UNL     1       2.125   3.583  21.671  0.00  0.00    +0.000 C 
ATOM      6  C   UNL     1       1.150   2.546  21.120  0.00  0.00    +0.000 C 
ATOM      7  C   UNL     1       0.541   3.032  19.805  0.00  0.00    +0.000 C 
ATOM      8  C   UNL     1       1.618   3.415  18.789  0.00  0.00    +0.000 C 
ENDROOT
BRANCH   1  16
ATOM      9  C   UNL     1       5.397   3.553  15.291  0.00  0.00    +0.000 C 
ATOM     10  C   UNL     1       5.927   4.763  16.004  0.00  0.00    +0.000 A 
ATOM     11  C   UNL     1       7.034   5.402  15.394  0.00  0.00    +0.000 A 
ATOM     12  C   UNL     1       7.703   6.449  16.016  0.00  0.00    +0.000 A 
ATOM     13  C   UNL     1       7.267   6.882  17.256  0.00  0.00    +0.000 A 
ATOM     14 CL   UNL     1       8.149   8.099  18.093  0.00  0.00    +0.000 Cl
ATOM     15  C   UNL     1       6.139   6.312  17.830  0.00  0.00    +0.000 A 
ATOM     16  C   UNL     1       5.424   5.252  17.225  0.00  0.00    +0.000 A 
ENDBRANCH   1  16
BRANCH   2  17
ATOM     17  S   UNL     1       2.566   6.709  18.289  0.00  0.00    +0.000 S 
ATOM     18  H   UNL     1       1.350   6.302  17.929  0.00  0.00    +0.000 HD
ENDBRANCH   2  17
BRANCH   8  19
ATOM     19  O   UNL     1       2.265   2.238  18.339  0.00  0.00    +0.000 OA
ATOM     20  H   UNL     1       2.728   2.470  17.524  0.00  0.00    +0.000 HD
ENDBRANCH   8  19
TORSDOF 3
ENDMDL
MODEL 6
REMARK VINA RESULT:      -5.6      7.406      8.330
REMARK  Name = 
REMARK  4 active torsions:
REMARK  status: ('A' for Active; 'I' for Inactive)
REMARK    1  A    between atoms: C_1  and  C_2
REMARK    2  A    between atoms: C_8  and  N_9
REMARK    3  A    between atoms: C_10  and  S_11
REMARK    4  A    between atoms: C_17  and  O_18
REMARK                            x       y       z     vdW  Elec       q    Type
REMARK                         _______ _______ _______ _____ _____    ______ ____
ROOT
ATOM      1  N   UNL     1       1.011   9.552  20.636  0.00  0.00    +0.000 NA
ATOM      2  C   UNL     1      -0.064  10.235  20.405  0.00  0.00    +0.000 C 
ATOM      3  N   UNL     1      -0.392  11.304  21.218  0.00  0.00    +0.000 N 
ATOM      4  C   UNL     1       0.562  12.415  21.290  0.00  0.00    +0.000 C 
ATOM      5  C   UNL     1      -0.131  13.690  21.758  0.00  0.00    +0.000 C 
ATOM      6  C   UNL     1      -0.906  13.465  23.053  0.00  0.00    +0.000 C 
ATOM      7  C   UNL     1      -1.879  12.297  22.896  0.00  0.00    +0.000 C 
ATOM      8  C   UNL     1      -1.170  11.030  22.415  0.00  0.00    +0.000 C 
ENDROOT
BRANCH   1  16
ATOM      9  C   UNL     1       2.096   9.571  17.695  0.00  0.00    +0.000 C 
ATOM     10  C   UNL     1       2.101   8.416  18.652  0.00  0.00    +0.000 A 
ATOM     11  C   UNL     1       2.575   7.187  18.133  0.00  0.00    +0.000 A 
ATOM     12  C   UNL     1       2.508   6.011  18.870  0.00  0.00    +0.000 A 
ATOM     13  C   UNL     1       1.975   6.048  20.146  0.00  0.00    +0.000 A 
ATOM     14 CL   UNL     1       1.779   4.585  21.031  0.00  0.00    +0.000 Cl
ATOM     15  C   UNL     1       1.573   7.259  20.693  0.00  0.00    +0.000 A 
ATOM     16  C   UNL     1       1.635   8.479  19.979  0.00  0.00    +0.000 A 
ENDBRANCH   1  16
BRANCH   2  17
ATOM     17  S   UNL     1      -1.211  10.070  19.087  0.00  0.00    +0.000 S 
ATOM     18  H   UNL     1      -0.784   8.907  18.599  0.00  0.00    +0.000 HD
ENDBRANCH   2  17
BRANCH   8  19
ATOM     19  O   UNL     1      -0.356  10.532  23.462  0.00  0.00    +0.000 OA
ATOM     20  H   UNL     1       0.202   9.845  23.077  0.00  0.00    +0.000 HD
ENDBRANCH   8  19
TORSDOF 3
ENDMDL
MODEL 7
REMARK VINA RESULT:      -5.5      6.099      7.197
REMARK  Name = 
REMARK  4 active torsions:
REMARK  status: ('A' for Active; 'I' for Inactive)
REMARK    1  A    between atoms: C_1  and  C_2
REMARK    2  A    between atoms: C_8  and  N_9
REMARK    3  A    between atoms: C_10  and  S_11
REMARK    4  A    between atoms: C_17  and  O_18
REMARK                            x       y       z     vdW  Elec       q    Type
REMARK                         _______ _______ _______ _____ _____    ______ ____
ROOT
ATOM      1  N   UNL     1       1.811   8.223  19.033  0.00  0.00    +0.000 NA
ATOM      2  C   UNL     1       1.278   9.040  19.884  0.00  0.00    +0.000 C 
ATOM      3  N   UNL     1       0.590  10.153  19.436  0.00  0.00    +0.000 N 
ATOM      4  C   UNL     1      -0.584   9.926  18.588  0.00  0.00    +0.000 C 
ATOM      5  C   UNL     1      -1.513  11.134  18.618  0.00  0.00    +0.000 C 
ATOM      6  C   UNL     1      -0.766  12.425  18.293  0.00  0.00    +0.000 C 
ATOM      7  C   UNL     1       0.438  12.591  19.221  0.00  0.00    +0.000 C 
ATOM      8  C   UNL     1       1.352  11.366  19.188  0.00  0.00    +0.000 C 
ENDROOT
BRANCH   1  16
ATOM      9  C   UNL     1       4.199   7.264  17.242  0.00  0.00    +0.000 C 
ATOM     10  C   UNL     1       3.549   6.508  18.363  0.00  0.00    +0.000 A 
ATOM     11  C   UNL     1       4.021   5.189  18.572  0.00  0.00    +0.000 A 
ATOM     12  C   UNL     1       3.416   4.335  19.487  0.00  0.00    +0.000 A 
ATOM     13  C   UNL     1       2.334   4.793  20.217  0.00  0.00    +0.000 A 
ATOM     14 CL   UNL     1       1.500   3.717  21.270  0.00  0.00    +0.000 Cl
ATOM     15  C   UNL     1       1.907   6.106  20.073  0.00  0.00    +0.000 A 
ATOM     16  C   UNL     1       2.503   7.009  19.161  0.00  0.00    +0.000 A 
ENDBRANCH   1  16
BRANCH   2  17
ATOM     17  S   UNL     1       1.207   8.916  21.633  0.00  0.00    +0.000 S 
ATOM     18  H   UNL     1      -0.113   9.011  21.783  0.00  0.00    +0.000 HD
ENDBRANCH   2  17
BRANCH   8  19
ATOM     19  O   UNL     1       2.013  11.317  17.936  0.00  0.00    +0.000 OA
ATOM     20  H   UNL     1       2.664  10.607  17.993  0.00  0.00    +0.000 HD
ENDBRANCH   8  19
TORSDOF 3
ENDMDL
MODEL 8
REMARK VINA RESULT:      -5.4      5.329      6.233
REMARK  Name = 
REMARK  4 active torsions:
REMARK  status: ('A' for Active; 'I' for Inactive)
REMARK    1  A    between atoms: C_1  and  C_2
REMARK    2  A    between atoms: C_8  and  N_9
REMARK    3  A    between atoms: C_10  and  S_11
REMARK    4  A    between atoms: C_17  and  O_18
REMARK                            x       y       z     vdW  Elec       q    Type
REMARK                         _______ _______ _______ _____ _____    ______ ____
ROOT
ATOM      1  N   UNL     1       2.469   7.918  17.800  0.00  0.00    +0.000 NA
ATOM      2  C   UNL     1       1.842   8.402  18.823  0.00  0.00    +0.000 C 
ATOM      3  N   UNL     1       0.993   9.483  18.667  0.00  0.00    +0.000 N 
ATOM      4  C   UNL     1      -0.152   9.317  17.767  0.00  0.00    +0.000 C 
ATOM      5  C   UNL     1      -1.243  10.330  18.091  0.00  0.00    +0.000 C 
ATOM      6  C   UNL     1      -0.695  11.754  18.126  0.00  0.00    +0.000 C 
ATOM      7  C   UNL     1       0.490  11.845  19.087  0.00  0.00    +0.000 C 
ATOM      8  C   UNL     1       1.570  10.814  18.755  0.00  0.00    +0.000 C 
ENDROOT
BRANCH   1  16
ATOM      9  C   UNL     1       1.666   4.894  17.985  0.00  0.00    +0.000 C 
ATOM     10  C   UNL     1       3.036   5.451  17.736  0.00  0.00    +0.000 A 
ATOM     11  C   UNL     1       4.084   4.501  17.658  0.00  0.00    +0.000 A 
ATOM     12  C   UNL     1       5.415   4.890  17.565  0.00  0.00    +0.000 A 
ATOM     13  C   UNL     1       5.718   6.239  17.536  0.00  0.00    +0.000 A 
ATOM     14 CL   UNL     1       7.364   6.742  17.536  0.00  0.00    +0.000 Cl
ATOM     15  C   UNL     1       4.697   7.179  17.539  0.00  0.00    +0.000 A 
ATOM     16  C   UNL     1       3.330   6.824  17.623  0.00  0.00    +0.000 A 
ENDBRANCH   1  16
BRANCH   2  17
ATOM     17  S   UNL     1       1.823   7.820  20.479  0.00  0.00    +0.000 S 
ATOM     18  H   UNL     1       1.582   8.977  21.091  0.00  0.00    +0.000 HD
ENDBRANCH   2  17
BRANCH   8  19
ATOM     19  O   UNL     1       2.206  11.186  17.546  0.00  0.00    +0.000 OA
ATOM     20  H   UNL     1       1.968  10.520  16.890  0.00  0.00    +0.000 HD
ENDBRANCH   8  19
TORSDOF 3
ENDMDL
MODEL 9
REMARK VINA RESULT:      -5.4      5.568      6.492
REMARK  Name = 
REMARK  4 active torsions:
REMARK  status: ('A' for Active; 'I' for Inactive)
REMARK    1  A    between atoms: C_1  and  C_2
REMARK    2  A    between atoms: C_8  and  N_9
REMARK    3  A    between atoms: C_10  and  S_11
REMARK    4  A    between atoms: C_17  and  O_18
REMARK                            x       y       z     vdW  Elec       q    Type
REMARK                         _______ _______ _______ _____ _____    ______ ____
ROOT
ATOM      1  N   UNL     1       2.021   7.869  18.117  0.00  0.00    +0.000 NA
ATOM      2  C   UNL     1       1.551   8.567  19.100  0.00  0.00    +0.000 C 
ATOM      3  N   UNL     1       0.888   9.755  18.851  0.00  0.00    +0.000 N 
ATOM      4  C   UNL     1      -0.325   9.692  18.029  0.00  0.00    +0.000 C 
ATOM      5  C   UNL     1      -1.206  10.910  18.275  0.00  0.00    +0.000 C 
ATOM      6  C   UNL     1      -0.425  12.211  18.112  0.00  0.00    +0.000 C 
ATOM      7  C   UNL     1       0.818  12.201  19.001  0.00  0.00    +0.000 C 
ATOM      8  C   UNL     1       1.685  10.967  18.751  0.00  0.00    +0.000 C 
ENDROOT
BRANCH   1  16
ATOM      9  C   UNL     1       4.916   7.374  17.020  0.00  0.00    +0.000 C 
ATOM     10  C   UNL     1       3.948   6.340  17.516  0.00  0.00    +0.000 A 
ATOM     11  C   UNL     1       4.369   4.993  17.396  0.00  0.00    +0.000 A 
ATOM     12  C   UNL     1       3.518   3.935  17.692  0.00  0.00    +0.000 A 
ATOM     13  C   UNL     1       2.234   4.209  18.125  0.00  0.00    +0.000 A 
ATOM     14 CL   UNL     1       1.129   2.915  18.388  0.00  0.00    +0.000 Cl
ATOM     15  C   UNL     1       1.833   5.524  18.317  0.00  0.00    +0.000 A 
ATOM     16  C   UNL     1       2.672   6.628  18.037  0.00  0.00    +0.000 A 
ENDBRANCH   1  16
BRANCH   2  17
ATOM     17  S   UNL     1       1.541   8.188  20.814  0.00  0.00    +0.000 S 
ATOM     18  H   UNL     1       0.450   7.424  20.840  0.00  0.00    +0.000 HD
ENDBRANCH   2  17
BRANCH   8  19
ATOM     19  O   UNL     1       2.296  11.083  17.478  0.00  0.00    +0.000 OA
ATOM     20  H   UNL     1       1.816  11.772  17.001  0.00  0.00    +0.000 HD
ENDBRANCH   8  19
TORSDOF 3
ENDMDL
