MODEL 1
REMARK VINA RESULT:      -8.6      0.000      0.000
REMARK  Name = 
REMARK  9 active torsions:
REMARK  status: ('A' for Active; 'I' for Inactive)
REMARK    1  A    between atoms: C_1  and  C_2
REMARK    2  A    between atoms: C_2  and  O_3
REMARK    3  A    between atoms: O_3  and  C_4
REMARK    4  A    between atoms: C_4  and  C_6
REMARK    5  A    between atoms: C_7  and  C_8
REMARK    6  A    between atoms: C_18  and  O_19
REMARK    7  A    between atoms: O_19  and  C_20
REMARK    8  A    between atoms: C_20  and  C_21
REMARK    9  A    between atoms: C_21  and  N_22
REMARK                            x       y       z     vdW  Elec       q    Type
REMARK                         _______ _______ _______ _____ _____    ______ ____
ROOT
ATOM      1  C   UNL     1       0.870   9.097  20.438  0.00  0.00    +0.000 A 
ATOM      2  C   UNL     1       1.089  10.222  19.632  0.00  0.00    +0.000 A 
ATOM      3  O   UNL     1       1.822   9.846  18.533  0.00  0.00    +0.000 OA
ATOM      4  C   UNL     1       2.108   8.513  18.654  0.00  0.00    +0.000 A 
ATOM      5  C   UNL     1       2.824   7.736  17.732  0.00  0.00    +0.000 A 
ATOM      6  C   UNL     1       3.058   6.372  18.033  0.00  0.00    +0.000 A 
ATOM      7  C   UNL     1       2.604   5.808  19.219  0.00  0.00    +0.000 A 
ATOM      8  C   UNL     1       1.836   6.619  20.106  0.00  0.00    +0.000 A 
ATOM      9  C   UNL     1       1.583   8.000  19.834  0.00  0.00    +0.000 A 
ENDROOT
BRANCH   2  10
ATOM     10  C   UNL     1       0.704  11.651  19.732  0.00  0.00    +0.000 A 
ATOM     11  C   UNL     1      -0.500  12.123  19.172  0.00  0.00    +0.000 A 
ATOM     12  C   UNL     1      -0.800  13.492  19.104  0.00  0.00    +0.000 A 
ATOM     13  C   UNL     1       0.087  14.423  19.629  0.00  0.00    +0.000 A 
ATOM     14  C   UNL     1       1.250  13.977  20.254  0.00  0.00    +0.000 A 
ATOM     15  C   UNL     1       1.551  12.606  20.312  0.00  0.00    +0.000 A 
ENDBRANCH   2  10
BRANCH   1  16
ATOM     16  C   UNL     1       0.054   9.159  21.639  0.00  0.00    +0.000 C 
ATOM     17  O   UNL     1      -0.837   8.362  21.897  0.00  0.00    +0.000 OA
BRANCH  16  18
ATOM     18  O   UNL     1       0.292  10.292  22.365  0.00  0.00    +0.000 OA
BRANCH  18  20
ATOM     19  C   UNL     1      -1.200  12.171  22.849  0.00  0.00    +0.000 C 
ATOM     20  C   UNL     1      -0.821  10.737  23.157  0.00  0.00    +0.000 C 
ENDBRANCH  18  20
ENDBRANCH  16  18
ENDBRANCH   1  16
BRANCH   7  21
ATOM     21  O   UNL     1       2.847   4.520  19.640  0.00  0.00    +0.000 OA
BRANCH  21  22
ATOM     22  C   UNL     1       3.681   3.554  18.932  0.00  0.00    +0.000 C 
BRANCH  22  23
ATOM     23  C   UNL     1       5.184   3.648  19.301  0.00  0.00    +0.000 C 
BRANCH  23  24
ATOM     24  N   UNL     1       6.124   4.345  18.399  0.00  0.00    +0.000 N 
ATOM     25  C   UNL     1       6.929   5.364  18.912  0.00  0.00    +0.000 C 
ATOM     26  O   UNL     1       7.256   5.573  20.067  0.00  0.00    +0.000 OA
ATOM     27  C   UNL     1       7.346   6.245  17.725  0.00  0.00    +0.000 C 
ATOM     28  O   UNL     1       7.875   7.338  17.757  0.00  0.00    +0.000 OA
ATOM     29  C   UNL     1       6.913   5.527  16.549  0.00  0.00    +0.000 A 
ATOM     30  C   UNL     1       7.219   5.838  15.231  0.00  0.00    +0.000 A 
ATOM     31  C   UNL     1       6.833   4.911  14.284  0.00  0.00    +0.000 A 
ATOM     32  F   UNL     1       7.197   5.084  13.009  0.00  0.00    +0.000 F 
ATOM     33  C   UNL     1       6.107   3.764  14.653  0.00  0.00    +0.000 A 
ATOM     34  C   UNL     1       5.738   3.519  16.006  0.00  0.00    +0.000 A 
ATOM     35  C   UNL     1       6.177   4.399  16.975  0.00  0.00    +0.000 A 
ENDBRANCH  23  24
ENDBRANCH  22  23
ENDBRANCH  21  22
ENDBRANCH   7  21
TORSDOF 8
ENDMDL
MODEL 2
REMARK VINA RESULT:      -8.3      3.495      9.332
REMARK  Name = 
REMARK  9 active torsions:
REMARK  status: ('A' for Active; 'I' for Inactive)
REMARK    1  A    between atoms: C_1  and  C_2
REMARK    2  A    between atoms: C_2  and  O_3
REMARK    3  A    between atoms: O_3  and  C_4
REMARK    4  A    between atoms: C_4  and  C_6
REMARK    5  A    between atoms: C_7  and  C_8
REMARK    6  A    between atoms: C_18  and  O_19
REMARK    7  A    between atoms: O_19  and  C_20
REMARK    8  A    between atoms: C_20  and  C_21
REMARK    9  A    between atoms: C_21  and  N_22
REMARK                            x       y       z     vdW  Elec       q    Type
REMARK                         _______ _______ _______ _____ _____    ______ ____
ROOT
ATOM      1  C   UNL     1       4.093   5.485  18.328  0.00  0.00    +0.000 A 
ATOM      2  C   UNL     1       4.500   5.839  17.035  0.00  0.00    +0.000 A 
ATOM      3  O   UNL     1       3.984   7.075  16.729  0.00  0.00    +0.000 OA
ATOM      4  C   UNL     1       3.221   7.486  17.788  0.00  0.00    +0.000 A 
ATOM      5  C   UNL     1       2.532   8.703  17.885  0.00  0.00    +0.000 A 
ATOM      6  C   UNL     1       1.760   8.954  19.046  0.00  0.00    +0.000 A 
ATOM      7  C   UNL     1       1.668   8.016  20.067  0.00  0.00    +0.000 A 
ATOM      8  C   UNL     1       2.425   6.812  19.952  0.00  0.00    +0.000 A 
ATOM      9  C   UNL     1       3.213   6.526  18.794  0.00  0.00    +0.000 A 
ENDROOT
BRANCH   2  10
ATOM     10  C   UNL     1       5.330   5.177  15.998  0.00  0.00    +0.000 A 
ATOM     11  C   UNL     1       6.729   5.341  15.971  0.00  0.00    +0.000 A 
ATOM     12  C   UNL     1       7.511   4.868  14.906  0.00  0.00    +0.000 A 
ATOM     13  C   UNL     1       6.911   4.187  13.854  0.00  0.00    +0.000 A 
ATOM     14  C   UNL     1       5.538   3.947  13.894  0.00  0.00    +0.000 A 
ATOM     15  C   UNL     1       4.758   4.430  14.959  0.00  0.00    +0.000 A 
ENDBRANCH   2  10
BRANCH   1  16
ATOM     16  C   UNL     1       4.547   4.261  18.968  0.00  0.00    +0.000 C 
ATOM     17  O   UNL     1       5.690   4.085  19.364  0.00  0.00    +0.000 OA
BRANCH  16  18
ATOM     18  O   UNL     1       3.596   3.280  18.935  0.00  0.00    +0.000 OA
BRANCH  18  20
ATOM     19  C   UNL     1       1.714   3.268  20.499  0.00  0.00    +0.000 C 
ATOM     20  C   UNL     1       3.143   2.845  20.226  0.00  0.00    +0.000 C 
ENDBRANCH  18  20
ENDBRANCH  16  18
ENDBRANCH   1  16
BRANCH   7  21
ATOM     21  O   UNL     1       0.885   8.129  21.193  0.00  0.00    +0.000 OA
BRANCH  21  22
ATOM     22  C   UNL     1      -0.393   8.831  21.254  0.00  0.00    +0.000 C 
BRANCH  22  23
ATOM     23  C   UNL     1      -0.252  10.374  21.217  0.00  0.00    +0.000 C 
BRANCH  23  24
ATOM     24  N   UNL     1      -1.158  11.178  20.371  0.00  0.00    +0.000 N 
ATOM     25  C   UNL     1      -1.826  12.267  20.935  0.00  0.00    +0.000 C 
ATOM     26  O   UNL     1      -1.543  12.904  21.935  0.00  0.00    +0.000 OA
ATOM     27  C   UNL     1      -3.055  12.541  20.057  0.00  0.00    +0.000 C 
ATOM     28  O   UNL     1      -4.001  13.263  20.302  0.00  0.00    +0.000 OA
ATOM     29  C   UNL     1      -2.887  11.699  18.894  0.00  0.00    +0.000 A 
ATOM     30  C   UNL     1      -3.654  11.724  17.738  0.00  0.00    +0.000 A 
ATOM     31  C   UNL     1      -3.201  10.943  16.694  0.00  0.00    +0.000 A 
ATOM     32  F   UNL     1      -3.820  11.007  15.509  0.00  0.00    +0.000 F 
ATOM     33  C   UNL     1      -2.069  10.122  16.846  0.00  0.00    +0.000 A 
ATOM     34  C   UNL     1      -1.355  10.059  18.076  0.00  0.00    +0.000 A 
ATOM     35  C   UNL     1      -1.751  10.886  19.108  0.00  0.00    +0.000 A 
ENDBRANCH  23  24
ENDBRANCH  22  23
ENDBRANCH  21  22
ENDBRANCH   7  21
TORSDOF 8
ENDMDL
MODEL 3
REMARK VINA RESULT:      -8.3      3.172      8.977
REMARK  Name = 
REMARK  9 active torsions:
REMARK  status: ('A' for Active; 'I' for Inactive)
REMARK    1  A    between atoms: C_1  and  C_2
REMARK    2  A    between atoms: C_2  and  O_3
REMARK    3  A    between atoms: O_3  and  C_4
REMARK    4  A    between atoms: C_4  and  C_6
REMARK    5  A    between atoms: C_7  and  C_8
REMARK    6  A    between atoms: C_18  and  O_19
REMARK    7  A    between atoms: O_19  and  C_20
REMARK    8  A    between atoms: C_20  and  C_21
REMARK    9  A    between atoms: C_21  and  N_22
REMARK                            x       y       z     vdW  Elec       q    Type
REMARK                         _______ _______ _______ _____ _____    ______ ____
ROOT
ATOM      1  C   UNL     1       4.260   5.341  18.154  0.00  0.00    +0.000 A 
ATOM      2  C   UNL     1       4.632   5.741  16.863  0.00  0.00    +0.000 A 
ATOM      3  O   UNL     1       4.083   6.973  16.604  0.00  0.00    +0.000 OA
ATOM      4  C   UNL     1       3.335   7.337  17.690  0.00  0.00    +0.000 A 
ATOM      5  C   UNL     1       2.623   8.536  17.837  0.00  0.00    +0.000 A 
ATOM      6  C   UNL     1       1.870   8.737  19.019  0.00  0.00    +0.000 A 
ATOM      7  C   UNL     1       1.820   7.769  20.015  0.00  0.00    +0.000 A 
ATOM      8  C   UNL     1       2.599   6.585  19.850  0.00  0.00    +0.000 A 
ATOM      9  C   UNL     1       3.369   6.350  18.668  0.00  0.00    +0.000 A 
ENDROOT
BRANCH   2  10
ATOM     10  C   UNL     1       5.454   5.127  15.792  0.00  0.00    +0.000 A 
ATOM     11  C   UNL     1       6.827   5.417  15.669  0.00  0.00    +0.000 A 
ATOM     12  C   UNL     1       7.581   4.986  14.567  0.00  0.00    +0.000 A 
ATOM     13  C   UNL     1       6.983   4.221  13.574  0.00  0.00    +0.000 A 
ATOM     14  C   UNL     1       5.643   3.858  13.709  0.00  0.00    +0.000 A 
ATOM     15  C   UNL     1       4.889   4.300  14.810  0.00  0.00    +0.000 A 
ENDBRANCH   2  10
BRANCH   1  16
ATOM     16  C   UNL     1       4.752   4.110  18.749  0.00  0.00    +0.000 C 
ATOM     17  O   UNL     1       5.861   3.994  19.251  0.00  0.00    +0.000 OA
BRANCH  16  18
ATOM     18  O   UNL     1       3.899   3.062  18.544  0.00  0.00    +0.000 OA
BRANCH  18  20
ATOM     19  C   UNL     1       1.800   2.847  19.783  0.00  0.00    +0.000 C 
ATOM     20  C   UNL     1       3.285   2.552  19.737  0.00  0.00    +0.000 C 
ENDBRANCH  18  20
ENDBRANCH  16  18
ENDBRANCH   1  16
BRANCH   7  21
ATOM     21  O   UNL     1       1.059   7.833  21.160  0.00  0.00    +0.000 OA
BRANCH  21  22
ATOM     22  C   UNL     1       0.978   8.990  22.045  0.00  0.00    +0.000 C 
BRANCH  22  23
ATOM     23  C   UNL     1      -0.309   9.831  21.848  0.00  0.00    +0.000 C 
BRANCH  23  24
ATOM     24  N   UNL     1      -0.399  10.794  20.732  0.00  0.00    +0.000 N 
ATOM     25  C   UNL     1      -0.065  12.131  20.958  0.00  0.00    +0.000 C 
ATOM     26  O   UNL     1       0.626  12.607  21.842  0.00  0.00    +0.000 OA
ATOM     27  C   UNL     1      -0.761  12.957  19.867  0.00  0.00    +0.000 C 
ATOM     28  O   UNL     1      -0.895  14.164  19.817  0.00  0.00    +0.000 OA
ATOM     29  C   UNL     1      -1.290  11.988  18.936  0.00  0.00    +0.000 A 
ATOM     30  C   UNL     1      -1.853  12.255  17.696  0.00  0.00    +0.000 A 
ATOM     31  C   UNL     1      -2.135  11.156  16.910  0.00  0.00    +0.000 A 
ATOM     32  F   UNL     1      -2.567  11.338  15.656  0.00  0.00    +0.000 F 
ATOM     33  C   UNL     1      -1.926   9.851  17.392  0.00  0.00    +0.000 A 
ATOM     34  C   UNL     1      -1.425   9.614  18.704  0.00  0.00    +0.000 A 
ATOM     35  C   UNL     1      -1.071  10.701  19.477  0.00  0.00    +0.000 A 
ENDBRANCH  23  24
ENDBRANCH  22  23
ENDBRANCH  21  22
ENDBRANCH   7  21
TORSDOF 8
ENDMDL
MODEL 4
REMARK VINA RESULT:      -8.1      3.252      9.230
REMARK  Name = 
REMARK  9 active torsions:
REMARK  status: ('A' for Active; 'I' for Inactive)
REMARK    1  A    between atoms: C_1  and  C_2
REMARK    2  A    between atoms: C_2  and  O_3
REMARK    3  A    between atoms: O_3  and  C_4
REMARK    4  A    between atoms: C_4  and  C_6
REMARK    5  A    between atoms: C_7  and  C_8
REMARK    6  A    between atoms: C_18  and  O_19
REMARK    7  A    between atoms: O_19  and  C_20
REMARK    8  A    between atoms: C_20  and  C_21
REMARK    9  A    between atoms: C_21  and  N_22
REMARK                            x       y       z     vdW  Elec       q    Type
REMARK                         _______ _______ _______ _____ _____    ______ ____
ROOT
ATOM      1  C   UNL     1       5.251   5.480  16.736  0.00  0.00    +0.000 A 
ATOM      2  C   UNL     1       5.168   4.596  15.652  0.00  0.00    +0.000 A 
ATOM      3  O   UNL     1       4.064   3.794  15.817  0.00  0.00    +0.000 OA
ATOM      4  C   UNL     1       3.478   4.125  17.008  0.00  0.00    +0.000 A 
ATOM      5  C   UNL     1       2.314   3.553  17.541  0.00  0.00    +0.000 A 
ATOM      6  C   UNL     1       1.861   3.994  18.808  0.00  0.00    +0.000 A 
ATOM      7  C   UNL     1       2.554   4.963  19.523  0.00  0.00    +0.000 A 
ATOM      8  C   UNL     1       3.704   5.557  18.924  0.00  0.00    +0.000 A 
ATOM      9  C   UNL     1       4.189   5.134  17.646  0.00  0.00    +0.000 A 
ENDROOT
BRANCH   2  10
ATOM     10  C   UNL     1       5.989   4.376  14.437  0.00  0.00    +0.000 A 
ATOM     11  C   UNL     1       7.167   5.115  14.209  0.00  0.00    +0.000 A 
ATOM     12  C   UNL     1       7.862   5.046  12.992  0.00  0.00    +0.000 A 
ATOM     13  C   UNL     1       7.411   4.206  11.982  0.00  0.00    +0.000 A 
ATOM     14  C   UNL     1       6.291   3.408  12.211  0.00  0.00    +0.000 A 
ATOM     15  C   UNL     1       5.592   3.487  13.428  0.00  0.00    +0.000 A 
ENDBRANCH   2  10
BRANCH   1  16
ATOM     16  C   UNL     1       6.273   6.511  16.810  0.00  0.00    +0.000 C 
ATOM     17  O   UNL     1       6.116   7.652  16.399  0.00  0.00    +0.000 OA
BRANCH  16  18
ATOM     18  O   UNL     1       7.471   6.019  17.245  0.00  0.00    +0.000 OA
BRANCH  18  20
ATOM     19  C   UNL     1       7.684   5.610  19.648  0.00  0.00    +0.000 C 
ATOM     20  C   UNL     1       7.920   6.564  18.495  0.00  0.00    +0.000 C 
ENDBRANCH  18  20
ENDBRANCH  16  18
ENDBRANCH   1  16
BRANCH   7  21
ATOM     21  O   UNL     1       2.243   5.401  20.791  0.00  0.00    +0.000 OA
BRANCH  21  22
ATOM     22  C   UNL     1       1.373   6.532  21.094  0.00  0.00    +0.000 C 
BRANCH  22  23
ATOM     23  C   UNL     1       1.795   7.844  20.385  0.00  0.00    +0.000 C 
BRANCH  23  24
ATOM     24  N   UNL     1       1.096   9.108  20.692  0.00  0.00    +0.000 N 
ATOM     25  C   UNL     1       1.141   9.611  21.994  0.00  0.00    +0.000 C 
ATOM     26  O   UNL     1       1.946   9.375  22.878  0.00  0.00    +0.000 OA
ATOM     27  C   UNL     1      -0.066  10.547  22.154  0.00  0.00    +0.000 C 
ATOM     28  O   UNL     1      -0.507  11.026  23.180  0.00  0.00    +0.000 OA
ATOM     29  C   UNL     1      -0.617  10.686  20.826  0.00  0.00    +0.000 A 
ATOM     30  C   UNL     1      -1.613  11.569  20.433  0.00  0.00    +0.000 A 
ATOM     31  C   UNL     1      -1.859  11.640  19.077  0.00  0.00    +0.000 A 
ATOM     32  F   UNL     1      -2.719  12.554  18.611  0.00  0.00    +0.000 F 
ATOM     33  C   UNL     1      -1.179  10.800  18.176  0.00  0.00    +0.000 A 
ATOM     34  C   UNL     1      -0.223   9.846  18.625  0.00  0.00    +0.000 A 
ATOM     35  C   UNL     1       0.087   9.810  19.969  0.00  0.00    +0.000 A 
ENDBRANCH  23  24
ENDBRANCH  22  23
ENDBRANCH  21  22
ENDBRANCH   7  21
TORSDOF 8
ENDMDL
MODEL 5
REMARK VINA RESULT:      -8.1      3.190      9.287
REMARK  Name = 
REMARK  9 active torsions:
REMARK  status: ('A' for Active; 'I' for Inactive)
REMARK    1  A    between atoms: C_1  and  C_2
REMARK    2  A    between atoms: C_2  and  O_3
REMARK    3  A    between atoms: O_3  and  C_4
REMARK    4  A    between atoms: C_4  and  C_6
REMARK    5  A    between atoms: C_7  and  C_8
REMARK    6  A    between atoms: C_18  and  O_19
REMARK    7  A    between atoms: O_19  and  C_20
REMARK    8  A    between atoms: C_20  and  C_21
REMARK    9  A    between atoms: C_21  and  N_22
REMARK                            x       y       z     vdW  Elec       q    Type
REMARK                         _______ _______ _______ _____ _____    ______ ____
ROOT
ATOM      1  C   UNL     1       4.485   5.642  16.590  0.00  0.00    +0.000 A 
ATOM      2  C   UNL     1       4.723   4.513  15.795  0.00  0.00    +0.000 A 
ATOM      3  O   UNL     1       3.944   3.477  16.250  0.00  0.00    +0.000 OA
ATOM      4  C   UNL     1       3.253   3.920  17.346  0.00  0.00    +0.000 A 
ATOM      5  C   UNL     1       2.333   3.175  18.096  0.00  0.00    +0.000 A 
ATOM      6  C   UNL     1       1.730   3.782  19.226  0.00  0.00    +0.000 A 
ATOM      7  C   UNL     1       2.047   5.083  19.599  0.00  0.00    +0.000 A 
ATOM      8  C   UNL     1       2.950   5.823  18.780  0.00  0.00    +0.000 A 
ATOM      9  C   UNL     1       3.576   5.241  17.634  0.00  0.00    +0.000 A 
ENDROOT
BRANCH   2  10
ATOM     10  C   UNL     1       5.599   4.240  14.630  0.00  0.00    +0.000 A 
ATOM     11  C   UNL     1       6.914   4.742  14.572  0.00  0.00    +0.000 A 
ATOM     12  C   UNL     1       7.696   4.643  13.412  0.00  0.00    +0.000 A 
ATOM     13  C   UNL     1       7.190   4.004  12.287  0.00  0.00    +0.000 A 
ATOM     14  C   UNL     1       5.919   3.433  12.343  0.00  0.00    +0.000 A 
ATOM     15  C   UNL     1       5.135   3.543  13.505  0.00  0.00    +0.000 A 
ENDBRANCH   2  10
BRANCH   1  16
ATOM     16  C   UNL     1       5.106   6.926  16.307  0.00  0.00    +0.000 C 
ATOM     17  O   UNL     1       5.132   7.437  15.197  0.00  0.00    +0.000 OA
BRANCH  16  18
ATOM     18  O   UNL     1       5.787   7.417  17.385  0.00  0.00    +0.000 OA
BRANCH  18  20
ATOM     19  C   UNL     1       7.596   5.981  18.192  0.00  0.00    +0.000 C 
ATOM     20  C   UNL     1       7.203   7.180  17.354  0.00  0.00    +0.000 C 
ENDBRANCH  18  20
ENDBRANCH  16  18
ENDBRANCH   1  16
BRANCH   7  21
ATOM     21  O   UNL     1       1.580   5.733  20.719  0.00  0.00    +0.000 OA
BRANCH  21  22
ATOM     22  C   UNL     1       1.690   7.167  20.959  0.00  0.00    +0.000 C 
BRANCH  22  23
ATOM     23  C   UNL     1       0.398   7.798  21.541  0.00  0.00    +0.000 C 
BRANCH  23  24
ATOM     24  N   UNL     1       0.229   9.265  21.545  0.00  0.00    +0.000 N 
ATOM     25  C   UNL     1       0.079   9.928  22.765  0.00  0.00    +0.000 C 
ATOM     26  O   UNL     1       0.403   9.560  23.881  0.00  0.00    +0.000 OA
ATOM     27  C   UNL     1      -0.617  11.263  22.465  0.00  0.00    +0.000 C 
ATOM     28  O   UNL     1      -1.109  12.042  23.258  0.00  0.00    +0.000 OA
ATOM     29  C   UNL     1      -0.628  11.371  21.025  0.00  0.00    +0.000 A 
ATOM     30  C   UNL     1      -0.996  12.484  20.282  0.00  0.00    +0.000 A 
ATOM     31  C   UNL     1      -0.764  12.410  18.924  0.00  0.00    +0.000 A 
ATOM     32  F   UNL     1      -0.982  13.487  18.160  0.00  0.00    +0.000 F 
ATOM     33  C   UNL     1      -0.255  11.234  18.343  0.00  0.00    +0.000 A 
ATOM     34  C   UNL     1       0.033  10.081  19.126  0.00  0.00    +0.000 A 
ATOM     35  C   UNL     1      -0.126  10.162  20.495  0.00  0.00    +0.000 A 
ENDBRANCH  23  24
ENDBRANCH  22  23
ENDBRANCH  21  22
ENDBRANCH   7  21
TORSDOF 8
ENDMDL
MODEL 6
REMARK VINA RESULT:      -8.0      1.087      1.701
REMARK  Name = 
REMARK  9 active torsions:
REMARK  status: ('A' for Active; 'I' for Inactive)
REMARK    1  A    between atoms: C_1  and  C_2
REMARK    2  A    between atoms: C_2  and  O_3
REMARK    3  A    between atoms: O_3  and  C_4
REMARK    4  A    between atoms: C_4  and  C_6
REMARK    5  A    between atoms: C_7  and  C_8
REMARK    6  A    between atoms: C_18  and  O_19
REMARK    7  A    between atoms: O_19  and  C_20
REMARK    8  A    between atoms: C_20  and  C_21
REMARK    9  A    between atoms: C_21  and  N_22
REMARK                            x       y       z     vdW  Elec       q    Type
REMARK                         _______ _______ _______ _____ _____    ______ ____
ROOT
ATOM      1  C   UNL     1       1.081   9.806  20.606  0.00  0.00    +0.000 A 
ATOM      2  C   UNL     1       1.220  10.876  19.712  0.00  0.00    +0.000 A 
ATOM      3  O   UNL     1       1.695  10.396  18.516  0.00  0.00    +0.000 OA
ATOM      4  C   UNL     1       1.901   9.050  18.654  0.00  0.00    +0.000 A 
ATOM      5  C   UNL     1       2.365   8.180  17.658  0.00  0.00    +0.000 A 
ATOM      6  C   UNL     1       2.554   6.815  17.984  0.00  0.00    +0.000 A 
ATOM      7  C   UNL     1       2.300   6.338  19.265  0.00  0.00    +0.000 A 
ATOM      8  C   UNL     1       1.781   7.246  20.236  0.00  0.00    +0.000 A 
ATOM      9  C   UNL     1       1.580   8.630  19.940  0.00  0.00    +0.000 A 
ENDROOT
BRANCH   2  10
ATOM     10  C   UNL     1       0.967  12.334  19.804  0.00  0.00    +0.000 A 
ATOM     11  C   UNL     1       1.937  13.211  20.330  0.00  0.00    +0.000 A 
ATOM     12  C   UNL     1       1.656  14.562  20.584  0.00  0.00    +0.000 A 
ATOM     13  C   UNL     1       0.401  15.078  20.284  0.00  0.00    +0.000 A 
ATOM     14  C   UNL     1      -0.551  14.249  19.693  0.00  0.00    +0.000 A 
ATOM     15  C   UNL     1      -0.269  12.894  19.449  0.00  0.00    +0.000 A 
ENDBRANCH   2  10
BRANCH   1  16
ATOM     16  C   UNL     1       0.522   9.984  21.936  0.00  0.00    +0.000 C 
ATOM     17  O   UNL     1       1.097   9.655  22.964  0.00  0.00    +0.000 OA
BRANCH  16  18
ATOM     18  O   UNL     1      -0.774  10.415  21.897  0.00  0.00    +0.000 OA
BRANCH  18  20
ATOM     19  C   UNL     1      -1.536  12.432  23.053  0.00  0.00    +0.000 C 
ATOM     20  C   UNL     1      -1.264  10.944  23.138  0.00  0.00    +0.000 C 
ENDBRANCH  18  20
ENDBRANCH  16  18
ENDBRANCH   1  16
BRANCH   7  21
ATOM     21  O   UNL     1       2.526   5.053  19.702  0.00  0.00    +0.000 OA
BRANCH  21  22
ATOM     22  C   UNL     1       1.879   3.861  19.163  0.00  0.00    +0.000 C 
BRANCH  22  23
ATOM     23  C   UNL     1       2.817   2.993  18.286  0.00  0.00    +0.000 C 
BRANCH  23  24
ATOM     24  N   UNL     1       4.231   3.381  18.107  0.00  0.00    +0.000 N 
ATOM     25  C   UNL     1       5.043   3.529  19.233  0.00  0.00    +0.000 C 
ATOM     26  O   UNL     1       4.896   3.063  20.349  0.00  0.00    +0.000 OA
ATOM     27  C   UNL     1       6.210   4.441  18.826  0.00  0.00    +0.000 C 
ATOM     28  O   UNL     1       7.024   4.979  19.550  0.00  0.00    +0.000 OA
ATOM     29  C   UNL     1       6.097   4.586  17.393  0.00  0.00    +0.000 A 
ATOM     30  C   UNL     1       7.023   5.178  16.546  0.00  0.00    +0.000 A 
ATOM     31  C   UNL     1       6.777   5.049  15.194  0.00  0.00    +0.000 A 
ATOM     32  F   UNL     1       7.686   5.489  14.316  0.00  0.00    +0.000 F 
ATOM     33  C   UNL     1       5.609   4.417  14.731  0.00  0.00    +0.000 A 
ATOM     34  C   UNL     1       4.638   3.895  15.632  0.00  0.00    +0.000 A 
ATOM     35  C   UNL     1       4.902   3.952  16.985  0.00  0.00    +0.000 A 
ENDBRANCH  23  24
ENDBRANCH  22  23
ENDBRANCH  21  22
ENDBRANCH   7  21
TORSDOF 8
ENDMDL
MODEL 7
REMARK VINA RESULT:      -8.0      4.542     10.475
REMARK  Name = 
REMARK  9 active torsions:
REMARK  status: ('A' for Active; 'I' for Inactive)
REMARK    1  A    between atoms: C_1  and  C_2
REMARK    2  A    between atoms: C_2  and  O_3
REMARK    3  A    between atoms: O_3  and  C_4
REMARK    4  A    between atoms: C_4  and  C_6
REMARK    5  A    between atoms: C_7  and  C_8
REMARK    6  A    between atoms: C_18  and  O_19
REMARK    7  A    between atoms: O_19  and  C_20
REMARK    8  A    between atoms: C_20  and  C_21
REMARK    9  A    between atoms: C_21  and  N_22
REMARK                            x       y       z     vdW  Elec       q    Type
REMARK                         _______ _______ _______ _____ _____    ______ ____
ROOT
ATOM      1  C   UNL     1       3.360   6.405  18.850  0.00  0.00    +0.000 A 
ATOM      2  C   UNL     1       3.903   6.583  17.570  0.00  0.00    +0.000 A 
ATOM      3  O   UNL     1       3.459   7.779  17.061  0.00  0.00    +0.000 OA
ATOM      4  C   UNL     1       2.610   8.337  17.979  0.00  0.00    +0.000 A 
ATOM      5  C   UNL     1       1.955   9.570  17.852  0.00  0.00    +0.000 A 
ATOM      6  C   UNL     1       1.081   9.982  18.888  0.00  0.00    +0.000 A 
ATOM      7  C   UNL     1       0.860   9.185  20.005  0.00  0.00    +0.000 A 
ATOM      8  C   UNL     1       1.585   7.961  20.119  0.00  0.00    +0.000 A 
ATOM      9  C   UNL     1       2.473   7.515  19.091  0.00  0.00    +0.000 A 
ENDROOT
BRANCH   2  10
ATOM     10  C   UNL     1       4.808   5.778  16.714  0.00  0.00    +0.000 A 
ATOM     11  C   UNL     1       4.422   4.511  16.234  0.00  0.00    +0.000 A 
ATOM     12  C   UNL     1       5.323   3.663  15.570  0.00  0.00    +0.000 A 
ATOM     13  C   UNL     1       6.628   4.080  15.341  0.00  0.00    +0.000 A 
ATOM     14  C   UNL     1       7.013   5.359  15.741  0.00  0.00    +0.000 A 
ATOM     15  C   UNL     1       6.111   6.202  16.413  0.00  0.00    +0.000 A 
ENDBRANCH   2  10
BRANCH   1  16
ATOM     16  C   UNL     1       3.709   5.264  19.681  0.00  0.00    +0.000 C 
ATOM     17  O   UNL     1       4.843   5.036  20.079  0.00  0.00    +0.000 OA
BRANCH  16  18
ATOM     18  O   UNL     1       2.663   4.400  19.834  0.00  0.00    +0.000 OA
BRANCH  18  20
ATOM     19  C   UNL     1       1.352   3.066  21.413  0.00  0.00    +0.000 C 
ATOM     20  C   UNL     1       2.124   4.346  21.164  0.00  0.00    +0.000 C 
ENDBRANCH  18  20
ENDBRANCH  16  18
ENDBRANCH   1  16
BRANCH   7  21
ATOM     21  O   UNL     1      -0.026   9.456  21.023  0.00  0.00    +0.000 OA
BRANCH  21  22
ATOM     22  C   UNL     1       0.049  10.614  21.908  0.00  0.00    +0.000 C 
BRANCH  22  23
ATOM     23  C   UNL     1      -0.604  11.888  21.315  0.00  0.00    +0.000 C 
BRANCH  23  24
ATOM     24  N   UNL     1      -2.075  12.009  21.261  0.00  0.00    +0.000 N 
ATOM     25  C   UNL     1      -2.702  12.138  20.020  0.00  0.00    +0.000 C 
ATOM     26  O   UNL     1      -2.286  11.828  18.917  0.00  0.00    +0.000 OA
ATOM     27  C   UNL     1      -4.069  12.788  20.275  0.00  0.00    +0.000 C 
ATOM     28  O   UNL     1      -4.837  13.255  19.457  0.00  0.00    +0.000 OA
ATOM     29  C   UNL     1      -4.226  12.793  21.711  0.00  0.00    +0.000 A 
ATOM     30  C   UNL     1      -5.374  13.123  22.416  0.00  0.00    +0.000 A 
ATOM     31  C   UNL     1      -5.338  12.892  23.776  0.00  0.00    +0.000 A 
ATOM     32  F   UNL     1      -6.446  13.072  24.504  0.00  0.00    +0.000 F 
ATOM     33  C   UNL     1      -4.166  12.422  24.396  0.00  0.00    +0.000 A 
ATOM     34  C   UNL     1      -2.978  12.174  23.651  0.00  0.00    +0.000 A 
ATOM     35  C   UNL     1      -3.018  12.331  22.281  0.00  0.00    +0.000 A 
ENDBRANCH  23  24
ENDBRANCH  22  23
ENDBRANCH  21  22
ENDBRANCH   7  21
TORSDOF 8
ENDMDL
MODEL 8
REMARK VINA RESULT:      -8.0      2.362      3.796
REMARK  Name = 
REMARK  9 active torsions:
REMARK  status: ('A' for Active; 'I' for Inactive)
REMARK    1  A    between atoms: C_1  and  C_2
REMARK    2  A    between atoms: C_2  and  O_3
REMARK    3  A    between atoms: O_3  and  C_4
REMARK    4  A    between atoms: C_4  and  C_6
REMARK    5  A    between atoms: C_7  and  C_8
REMARK    6  A    between atoms: C_18  and  O_19
REMARK    7  A    between atoms: O_19  and  C_20
REMARK    8  A    between atoms: C_20  and  C_21
REMARK    9  A    between atoms: C_21  and  N_22
REMARK                            x       y       z     vdW  Elec       q    Type
REMARK                         _______ _______ _______ _____ _____    ______ ____
ROOT
ATOM      1  C   UNL     1       0.691  12.790  20.371  0.00  0.00    +0.000 A 
ATOM      2  C   UNL     1       0.988  13.507  19.205  0.00  0.00    +0.000 A 
ATOM      3  O   UNL     1       1.375  12.624  18.226  0.00  0.00    +0.000 OA
ATOM      4  C   UNL     1       1.370  11.367  18.767  0.00  0.00    +0.000 A 
ATOM      5  C   UNL     1       1.686  10.178  18.095  0.00  0.00    +0.000 A 
ATOM      6  C   UNL     1       1.663   8.962  18.821  0.00  0.00    +0.000 A 
ATOM      7  C   UNL     1       1.347   8.937  20.174  0.00  0.00    +0.000 A 
ATOM      8  C   UNL     1       0.982  10.161  20.809  0.00  0.00    +0.000 A 
ATOM      9  C   UNL     1       0.997  11.407  20.106  0.00  0.00    +0.000 A 
ENDROOT
BRANCH   2  10
ATOM     10  C   UNL     1       0.966  14.946  18.847  0.00  0.00    +0.000 A 
ATOM     11  C   UNL     1      -0.250  15.643  18.701  0.00  0.00    +0.000 A 
ATOM     12  C   UNL     1      -0.300  16.951  18.198  0.00  0.00    +0.000 A 
ATOM     13  C   UNL     1       0.875  17.610  17.859  0.00  0.00    +0.000 A 
ATOM     14  C   UNL     1       2.096  16.969  18.065  0.00  0.00    +0.000 A 
ATOM     15  C   UNL     1       2.141  15.655  18.561  0.00  0.00    +0.000 A 
ENDBRANCH   2  10
BRANCH   1  16
ATOM     16  C   UNL     1       0.177  13.441  21.564  0.00  0.00    +0.000 C 
ATOM     17  O   UNL     1       0.873  14.070  22.348  0.00  0.00    +0.000 OA
BRANCH  16  18
ATOM     18  O   UNL     1      -1.137  13.141  21.789  0.00  0.00    +0.000 OA
BRANCH  18  20
ATOM     19  C   UNL     1      -1.618  11.208  23.211  0.00  0.00    +0.000 C 
ATOM     20  C   UNL     1      -1.429  12.709  23.127  0.00  0.00    +0.000 C 
ENDBRANCH  18  20
ENDBRANCH  16  18
ENDBRANCH   1  16
BRANCH   7  21
ATOM     21  O   UNL     1       1.374   7.824  20.984  0.00  0.00    +0.000 OA
BRANCH  21  22
ATOM     22  C   UNL     1       1.142   6.457  20.531  0.00  0.00    +0.000 C 
BRANCH  22  23
ATOM     23  C   UNL     1       2.433   5.600  20.465  0.00  0.00    +0.000 C 
BRANCH  23  24
ATOM     24  N   UNL     1       2.786   4.892  19.218  0.00  0.00    +0.000 N 
ATOM     25  C   UNL     1       2.483   3.534  19.099  0.00  0.00    +0.000 C 
ATOM     26  O   UNL     1       1.659   2.877  19.712  0.00  0.00    +0.000 OA
ATOM     27  C   UNL     1       3.418   2.959  18.026  0.00  0.00    +0.000 C 
ATOM     28  O   UNL     1       3.621   1.791  17.761  0.00  0.00    +0.000 OA
ATOM     29  C   UNL     1       4.068   4.106  17.434  0.00  0.00    +0.000 A 
ATOM     30  C   UNL     1       4.873   4.108  16.304  0.00  0.00    +0.000 A 
ATOM     31  C   UNL     1       5.245   5.349  15.828  0.00  0.00    +0.000 A 
ATOM     32  F   UNL     1       5.921   5.436  14.676  0.00  0.00    +0.000 F 
ATOM     33  C   UNL     1       4.880   6.523  16.512  0.00  0.00    +0.000 A 
ATOM     34  C   UNL     1       4.123   6.477  17.717  0.00  0.00    +0.000 A 
ATOM     35  C   UNL     1       3.682   5.250  18.168  0.00  0.00    +0.000 A 
ENDBRANCH  23  24
ENDBRANCH  22  23
ENDBRANCH  21  22
ENDBRANCH   7  21
TORSDOF 8
ENDMDL
MODEL 9
REMARK VINA RESULT:      -8.0      2.659      4.660
REMARK  Name = 
REMARK  9 active torsions:
REMARK  status: ('A' for Active; 'I' for Inactive)
REMARK    1  A    between atoms: C_1  and  C_2
REMARK    2  A    between atoms: C_2  and  O_3
REMARK    3  A    between atoms: O_3  and  C_4
REMARK    4  A    between atoms: C_4  and  C_6
REMARK    5  A    between atoms: C_7  and  C_8
REMARK    6  A    between atoms: C_18  and  O_19
REMARK    7  A    between atoms: O_19  and  C_20
REMARK    8  A    between atoms: C_20  and  C_21
REMARK    9  A    between atoms: C_21  and  N_22
REMARK                            x       y       z     vdW  Elec       q    Type
REMARK                         _______ _______ _______ _____ _____    ______ ____
ROOT
ATOM      1  C   UNL     1      -1.429  11.709  19.936  0.00  0.00    +0.000 A 
ATOM      2  C   UNL     1      -2.124  12.307  20.996  0.00  0.00    +0.000 A 
ATOM      3  O   UNL     1      -1.690  11.758  22.178  0.00  0.00    +0.000 OA
ATOM      4  C   UNL     1      -0.767  10.793  21.880  0.00  0.00    +0.000 A 
ATOM      5  C   UNL     1      -0.067  10.007  22.806  0.00  0.00    +0.000 A 
ATOM      6  C   UNL     1       0.833   9.027  22.320  0.00  0.00    +0.000 A 
ATOM      7  C   UNL     1       1.018   8.831  20.956  0.00  0.00    +0.000 A 
ATOM      8  C   UNL     1       0.325   9.686  20.048  0.00  0.00    +0.000 A 
ATOM      9  C   UNL     1      -0.592  10.684  20.505  0.00  0.00    +0.000 A 
ENDROOT
BRANCH   2  10
ATOM     10  C   UNL     1      -3.172  13.353  21.081  0.00  0.00    +0.000 A 
ATOM     11  C   UNL     1      -2.843  14.722  21.019  0.00  0.00    +0.000 A 
ATOM     12  C   UNL     1      -3.792  15.725  21.269  0.00  0.00    +0.000 A 
ATOM     13  C   UNL     1      -5.107  15.381  21.554  0.00  0.00    +0.000 A 
ATOM     14  C   UNL     1      -5.474  14.036  21.547  0.00  0.00    +0.000 A 
ATOM     15  C   UNL     1      -4.519  13.034  21.306  0.00  0.00    +0.000 A 
ENDBRANCH   2  10
BRANCH   1  16
ATOM     16  C   UNL     1      -1.613  12.137  18.559  0.00  0.00    +0.000 C 
ATOM     17  O   UNL     1      -0.850  12.895  17.976  0.00  0.00    +0.000 OA
BRANCH  16  18
ATOM     18  O   UNL     1      -2.809  11.722  18.046  0.00  0.00    +0.000 OA
BRANCH  18  20
ATOM     19  C   UNL     1      -2.248   9.869  16.550  0.00  0.00    +0.000 C 
ATOM     20  C   UNL     1      -2.909  10.304  17.841  0.00  0.00    +0.000 C 
ENDBRANCH  18  20
ENDBRANCH  16  18
ENDBRANCH   1  16
BRANCH   7  21
ATOM     21  O   UNL     1       1.804   7.857  20.384  0.00  0.00    +0.000 OA
BRANCH  21  22
ATOM     22  C   UNL     1       1.573   6.422  20.502  0.00  0.00    +0.000 C 
BRANCH  22  23
ATOM     23  C   UNL     1       2.863   5.574  20.356  0.00  0.00    +0.000 C 
BRANCH  23  24
ATOM     24  N   UNL     1       3.125   4.836  19.104  0.00  0.00    +0.000 N 
ATOM     25  C   UNL     1       2.779   3.486  19.025  0.00  0.00    +0.000 C 
ATOM     26  O   UNL     1       1.973   2.862  19.695  0.00  0.00    +0.000 OA
ATOM     27  C   UNL     1       3.635   2.868  17.911  0.00  0.00    +0.000 C 
ATOM     28  O   UNL     1       3.791   1.691  17.655  0.00  0.00    +0.000 OA
ATOM     29  C   UNL     1       4.282   3.987  17.264  0.00  0.00    +0.000 A 
ATOM     30  C   UNL     1       5.021   3.949  16.090  0.00  0.00    +0.000 A 
ATOM     31  C   UNL     1       5.400   5.171  15.573  0.00  0.00    +0.000 A 
ATOM     32  F   UNL     1       6.011   5.221  14.384  0.00  0.00    +0.000 F 
ATOM     33  C   UNL     1       5.107   6.365  16.257  0.00  0.00    +0.000 A 
ATOM     34  C   UNL     1       4.418   6.360  17.503  0.00  0.00    +0.000 A 
ATOM     35  C   UNL     1       3.970   5.153  17.999  0.00  0.00    +0.000 A 
ENDBRANCH  23  24
ENDBRANCH  22  23
ENDBRANCH  21  22
ENDBRANCH   7  21
TORSDOF 8
ENDMDL
