MODEL 1
REMARK VINA RESULT:      -7.1      0.000      0.000
REMARK  Name = 
REMARK  2 active torsions:
REMARK  status: ('A' for Active; 'I' for Inactive)
REMARK    1  A    between atoms: C_2  and  O_3
REMARK    2  A    between atoms: C_2  and  C_4
REMARK                            x       y       z     vdW  Elec       q    Type
REMARK                         _______ _______ _______ _____ _____    ______ ____
ROOT
ATOM      1  C   UNL     1       5.732   3.675  13.185  0.00  0.00    +0.000 A 
ATOM      2  C   UNL     1       6.857   4.355  12.947  0.00  0.00    +0.000 A 
ATOM      3  C   UNL     1       7.446   5.133  14.036  0.00  0.00    +0.000 A 
ATOM      4  O   UNL     1       8.459   5.793  13.840  0.00  0.00    +0.000 OA
ATOM      5  C   UNL     1       6.780   5.087  15.366  0.00  0.00    +0.000 A 
ATOM      6  C   UNL     1       5.656   4.361  15.486  0.00  0.00    +0.000 A 
ATOM      7  O   UNL     1       5.091   3.662  14.416  0.00  0.00    +0.000 OA
ATOM      8  C   UNL     1       4.927   4.245  16.773  0.00  0.00    +0.000 A 
ATOM      9  C   UNL     1       3.747   3.475  16.857  0.00  0.00    +0.000 A 
ATOM     10  C   UNL     1       3.048   3.343  18.062  0.00  0.00    +0.000 A 
ATOM     11 CL   UNL     1       1.619   2.388  18.124  0.00  0.00    +0.000 Cl
ATOM     12  C   UNL     1       3.501   3.972  19.212  0.00  0.00    +0.000 A 
ATOM     13  C   UNL     1       4.662   4.735  19.151  0.00  0.00    +0.000 A 
ATOM     14  C   UNL     1       5.379   4.876  17.946  0.00  0.00    +0.000 A 
ATOM     15  S   UNL     1       6.846   5.872  18.071  0.00  0.00    +0.000 S 
ATOM     16  C   UNL     1       7.501   5.887  16.395  0.00  0.00    +0.000 C 
ENDROOT
BRANCH   1  18
ATOM     17  O   UNL     1       4.154   3.222  11.435  0.00  0.00    +0.000 OA
ATOM     18  C   UNL     1       5.158   2.903  12.051  0.00  0.00    +0.000 C 
BRANCH  18  19
ATOM     19  O   UNL     1       5.870   1.791  11.775  0.00  0.00    +0.000 OA
ATOM     20  H   UNL     1       6.032   1.666  10.822  0.00  0.00    +0.000 HD
ENDBRANCH  18  19
ENDBRANCH   1  18
TORSDOF 2
ENDMDL
MODEL 2
REMARK VINA RESULT:      -6.7      5.765      7.690
REMARK  Name = 
REMARK  2 active torsions:
REMARK  status: ('A' for Active; 'I' for Inactive)
REMARK    1  A    between atoms: C_2  and  O_3
REMARK    2  A    between atoms: C_2  and  C_4
REMARK                            x       y       z     vdW  Elec       q    Type
REMARK                         _______ _______ _______ _____ _____    ______ ____
ROOT
ATOM      1  C   UNL     1       2.083   4.686  20.427  0.00  0.00    +0.000 A 
ATOM      2  C   UNL     1       2.773   4.407  19.317  0.00  0.00    +0.000 A 
ATOM      3  C   UNL     1       3.001   5.480  18.349  0.00  0.00    +0.000 A 
ATOM      4  O   UNL     1       3.602   5.248  17.308  0.00  0.00    +0.000 OA
ATOM      5  C   UNL     1       2.488   6.838  18.678  0.00  0.00    +0.000 A 
ATOM      6  C   UNL     1       1.814   6.998  19.830  0.00  0.00    +0.000 A 
ATOM      7  O   UNL     1       1.573   5.944  20.715  0.00  0.00    +0.000 OA
ATOM      8  C   UNL     1       1.274   8.314  20.250  0.00  0.00    +0.000 A 
ATOM      9  C   UNL     1       0.568   8.440  21.466  0.00  0.00    +0.000 A 
ATOM     10  C   UNL     1       0.059   9.673  21.887  0.00  0.00    +0.000 A 
ATOM     11 CL   UNL     1      -0.788   9.786  23.381  0.00  0.00    +0.000 Cl
ATOM     12  C   UNL     1       0.234  10.810  21.113  0.00  0.00    +0.000 A 
ATOM     13  C   UNL     1       0.927  10.708  19.912  0.00  0.00    +0.000 A 
ATOM     14  C   UNL     1       1.450   9.475  19.474  0.00  0.00    +0.000 A 
ATOM     15  S   UNL     1       2.320   9.547  17.926  0.00  0.00    +0.000 S 
ATOM     16  C   UNL     1       2.821   7.844  17.632  0.00  0.00    +0.000 C 
ENDROOT
BRANCH   1  18
ATOM     17  O   UNL     1       2.606   3.298  22.313  0.00  0.00    +0.000 OA
ATOM     18  C   UNL     1       1.864   3.568  21.383  0.00  0.00    +0.000 C 
BRANCH  18  19
ATOM     19  O   UNL     1       0.745   2.869  21.104  0.00  0.00    +0.000 OA
ATOM     20  H   UNL     1       0.927   1.959  20.803  0.00  0.00    +0.000 HD
ENDBRANCH  18  19
ENDBRANCH   1  18
TORSDOF 2
ENDMDL
MODEL 3
REMARK VINA RESULT:      -6.5      5.169      7.195
REMARK  Name = 
REMARK  2 active torsions:
REMARK  status: ('A' for Active; 'I' for Inactive)
REMARK    1  A    between atoms: C_2  and  O_3
REMARK    2  A    between atoms: C_2  and  C_4
REMARK                            x       y       z     vdW  Elec       q    Type
REMARK                         _______ _______ _______ _____ _____    ______ ____
ROOT
ATOM      1  C   UNL     1       2.646   3.818  20.662  0.00  0.00    +0.000 A 
ATOM      2  C   UNL     1       3.422   3.464  19.635  0.00  0.00    +0.000 A 
ATOM      3  C   UNL     1       3.673   4.444  18.578  0.00  0.00    +0.000 A 
ATOM      4  O   UNL     1       4.354   4.138  17.608  0.00  0.00    +0.000 OA
ATOM      5  C   UNL     1       3.082   5.801  18.731  0.00  0.00    +0.000 A 
ATOM      6  C   UNL     1       2.324   6.043  19.814  0.00  0.00    +0.000 A 
ATOM      7  O   UNL     1       2.065   5.073  20.786  0.00  0.00    +0.000 OA
ATOM      8  C   UNL     1       1.702   7.368  20.060  0.00  0.00    +0.000 A 
ATOM      9  C   UNL     1       0.908   7.580  21.208  0.00  0.00    +0.000 A 
ATOM     10  C   UNL     1       0.320   8.823  21.466  0.00  0.00    +0.000 A 
ATOM     11 CL   UNL     1      -0.633   9.043  22.881  0.00  0.00    +0.000 Cl
ATOM     12  C   UNL     1       0.502   9.884  20.591  0.00  0.00    +0.000 A 
ATOM     13  C   UNL     1       1.280   9.695  19.455  0.00  0.00    +0.000 A 
ATOM     14  C   UNL     1       1.882   8.451  19.181  0.00  0.00    +0.000 A 
ATOM     15  S   UNL     1       2.855   8.411  17.694  0.00  0.00    +0.000 S 
ATOM     16  C   UNL     1       3.445   6.713  17.611  0.00  0.00    +0.000 C 
ENDROOT
BRANCH   1  18
ATOM     17  O   UNL     1       1.356   2.655  22.318  0.00  0.00    +0.000 OA
ATOM     18  C   UNL     1       2.407   2.793  21.712  0.00  0.00    +0.000 C 
BRANCH  18  19
ATOM     19  O   UNL     1       3.492   2.023  21.933  0.00  0.00    +0.000 OA
ATOM     20  H   UNL     1       3.305   1.069  21.868  0.00  0.00    +0.000 HD
ENDBRANCH  18  19
ENDBRANCH   1  18
TORSDOF 2
ENDMDL
MODEL 4
REMARK VINA RESULT:      -6.4      6.292      8.465
REMARK  Name = 
REMARK  2 active torsions:
REMARK  status: ('A' for Active; 'I' for Inactive)
REMARK    1  A    between atoms: C_2  and  O_3
REMARK    2  A    between atoms: C_2  and  C_4
REMARK                            x       y       z     vdW  Elec       q    Type
REMARK                         _______ _______ _______ _____ _____    ______ ____
ROOT
ATOM      1  C   UNL     1       0.520   9.252  21.425  0.00  0.00    +0.000 A 
ATOM      2  C   UNL     1       0.691  10.270  20.578  0.00  0.00    +0.000 A 
ATOM      3  C   UNL     1       1.461  10.039  19.355  0.00  0.00    +0.000 A 
ATOM      4  O   UNL     1       1.661  10.961  18.574  0.00  0.00    +0.000 OA
ATOM      5  C   UNL     1       1.975   8.666  19.103  0.00  0.00    +0.000 A 
ATOM      6  C   UNL     1       1.733   7.720  20.027  0.00  0.00    +0.000 A 
ATOM      7  O   UNL     1       1.032   7.980  21.207  0.00  0.00    +0.000 OA
ATOM      8  C   UNL     1       2.194   6.320  19.860  0.00  0.00    +0.000 A 
ATOM      9  C   UNL     1       1.924   5.357  20.855  0.00  0.00    +0.000 A 
ATOM     10  C   UNL     1       2.340   4.029  20.715  0.00  0.00    +0.000 A 
ATOM     11 CL   UNL     1       1.982   2.883  21.948  0.00  0.00    +0.000 Cl
ATOM     12  C   UNL     1       3.037   3.624  19.586  0.00  0.00    +0.000 A 
ATOM     13  C   UNL     1       3.314   4.557  18.594  0.00  0.00    +0.000 A 
ATOM     14  C   UNL     1       2.899   5.898  18.717  0.00  0.00    +0.000 A 
ATOM     15  S   UNL     1       3.327   6.935  17.339  0.00  0.00    +0.000 S 
ATOM     16  C   UNL     1       2.704   8.557  17.809  0.00  0.00    +0.000 C 
ENDROOT
BRANCH   1  18
ATOM     17  O   UNL     1      -0.194  10.562  23.304  0.00  0.00    +0.000 OA
ATOM     18  C   UNL     1      -0.260   9.527  22.661  0.00  0.00    +0.000 C 
BRANCH  18  19
ATOM     19  O   UNL     1      -1.054   8.493  23.006  0.00  0.00    +0.000 OA
ATOM     20  H   UNL     1      -1.702   8.260  22.316  0.00  0.00    +0.000 HD
ENDBRANCH  18  19
ENDBRANCH   1  18
TORSDOF 2
ENDMDL
MODEL 5
REMARK VINA RESULT:      -6.4      3.643      5.138
REMARK  Name = 
REMARK  2 active torsions:
REMARK  status: ('A' for Active; 'I' for Inactive)
REMARK    1  A    between atoms: C_2  and  O_3
REMARK    2  A    between atoms: C_2  and  C_4
REMARK                            x       y       z     vdW  Elec       q    Type
REMARK                         _______ _______ _______ _____ _____    ______ ____
ROOT
ATOM      1  C   UNL     1       4.762   4.666  16.385  0.00  0.00    +0.000 A 
ATOM      2  C   UNL     1       4.827   3.419  16.860  0.00  0.00    +0.000 A 
ATOM      3  C   UNL     1       4.174   3.122  18.135  0.00  0.00    +0.000 A 
ATOM      4  O   UNL     1       4.243   1.997  18.611  0.00  0.00    +0.000 OA
ATOM      5  C   UNL     1       3.433   4.221  18.811  0.00  0.00    +0.000 A 
ATOM      6  C   UNL     1       3.431   5.434  18.233  0.00  0.00    +0.000 A 
ATOM      7  O   UNL     1       4.102   5.699  17.036  0.00  0.00    +0.000 OA
ATOM      8  C   UNL     1       2.712   6.589  18.825  0.00  0.00    +0.000 A 
ATOM      9  C   UNL     1       2.739   7.848  18.189  0.00  0.00    +0.000 A 
ATOM     10  C   UNL     1       2.060   8.948  18.723  0.00  0.00    +0.000 A 
ATOM     11 CL   UNL     1       2.110  10.464  17.911  0.00  0.00    +0.000 Cl
ATOM     12  C   UNL     1       1.341   8.828  19.903  0.00  0.00    +0.000 A 
ATOM     13  C   UNL     1       1.302   7.595  20.546  0.00  0.00    +0.000 A 
ATOM     14  C   UNL     1       1.977   6.476  20.019  0.00  0.00    +0.000 A 
ATOM     15  S   UNL     1       1.793   4.986  20.971  0.00  0.00    +0.000 S 
ATOM     16  C   UNL     1       2.781   3.778  20.075  0.00  0.00    +0.000 C 
ENDROOT
BRANCH   1  18
ATOM     17  O   UNL     1       5.850   4.066  14.332  0.00  0.00    +0.000 OA
ATOM     18  C   UNL     1       5.446   4.932  15.092  0.00  0.00    +0.000 C 
BRANCH  18  19
ATOM     19  O   UNL     1       5.583   6.251  14.846  0.00  0.00    +0.000 OA
ATOM     20  H   UNL     1       6.464   6.487  14.501  0.00  0.00    +0.000 HD
ENDBRANCH  18  19
ENDBRANCH   1  18
TORSDOF 2
ENDMDL
MODEL 6
REMARK VINA RESULT:      -6.3      5.532      7.566
REMARK  Name = 
REMARK  2 active torsions:
REMARK  status: ('A' for Active; 'I' for Inactive)
REMARK    1  A    between atoms: C_2  and  O_3
REMARK    2  A    between atoms: C_2  and  C_4
REMARK                            x       y       z     vdW  Elec       q    Type
REMARK                         _______ _______ _______ _____ _____    ______ ____
ROOT
ATOM      1  C   UNL     1       0.804   8.775  20.393  0.00  0.00    +0.000 A 
ATOM      2  C   UNL     1       1.137   9.665  19.454  0.00  0.00    +0.000 A 
ATOM      3  C   UNL     1       2.101   9.268  18.427  0.00  0.00    +0.000 A 
ATOM      4  O   UNL     1       2.450  10.072  17.571  0.00  0.00    +0.000 OA
ATOM      5  C   UNL     1       2.624   7.875  18.462  0.00  0.00    +0.000 A 
ATOM      6  C   UNL     1       2.209   7.068  19.453  0.00  0.00    +0.000 A 
ATOM      7  O   UNL     1       1.321   7.488  20.446  0.00  0.00    +0.000 OA
ATOM      8  C   UNL     1       2.666   5.661  19.565  0.00  0.00    +0.000 A 
ATOM      9  C   UNL     1       2.210   4.846  20.624  0.00  0.00    +0.000 A 
ATOM     10  C   UNL     1       2.619   3.514  20.744  0.00  0.00    +0.000 A 
ATOM     11 CL   UNL     1       2.033   2.551  22.044  0.00  0.00    +0.000 Cl
ATOM     12  C   UNL     1       3.491   2.958  19.821  0.00  0.00    +0.000 A 
ATOM     13  C   UNL     1       3.952   3.743  18.770  0.00  0.00    +0.000 A 
ATOM     14  C   UNL     1       3.548   5.086  18.632  0.00  0.00    +0.000 A 
ATOM     15  S   UNL     1       4.226   5.921  17.217  0.00  0.00    +0.000 S 
ATOM     16  C   UNL     1       3.562   7.589  17.341  0.00  0.00    +0.000 C 
ENDROOT
BRANCH   1  18
ATOM     17  O   UNL     1      -0.395  10.383  21.710  0.00  0.00    +0.000 OA
ATOM     18  C   UNL     1      -0.171   9.218  21.425  0.00  0.00    +0.000 C 
BRANCH  18  19
ATOM     19  O   UNL     1      -0.785   8.179  22.027  0.00  0.00    +0.000 OA
ATOM     20  H   UNL     1      -1.758   8.236  21.993  0.00  0.00    +0.000 HD
ENDBRANCH  18  19
ENDBRANCH   1  18
TORSDOF 2
ENDMDL
MODEL 7
REMARK VINA RESULT:      -6.3      4.240      6.626
REMARK  Name = 
REMARK  2 active torsions:
REMARK  status: ('A' for Active; 'I' for Inactive)
REMARK    1  A    between atoms: C_2  and  O_3
REMARK    2  A    between atoms: C_2  and  C_4
REMARK                            x       y       z     vdW  Elec       q    Type
REMARK                         _______ _______ _______ _____ _____    ______ ____
ROOT
ATOM      1  C   UNL     1       4.460   2.198  20.432  0.00  0.00    +0.000 A 
ATOM      2  C   UNL     1       3.406   2.425  21.221  0.00  0.00    +0.000 A 
ATOM      3  C   UNL     1       2.622   3.641  21.006  0.00  0.00    +0.000 A 
ATOM      4  O   UNL     1       1.670   3.893  21.734  0.00  0.00    +0.000 OA
ATOM      5  C   UNL     1       3.018   4.537  19.886  0.00  0.00    +0.000 A 
ATOM      6  C   UNL     1       4.093   4.199  19.155  0.00  0.00    +0.000 A 
ATOM      7  O   UNL     1       4.850   3.054  19.412  0.00  0.00    +0.000 OA
ATOM      8  C   UNL     1       4.558   5.023  18.012  0.00  0.00    +0.000 A 
ATOM      9  C   UNL     1       5.696   4.636  17.271  0.00  0.00    +0.000 A 
ATOM     10  C   UNL     1       6.147   5.391  16.183  0.00  0.00    +0.000 A 
ATOM     11 CL   UNL     1       7.532   4.880  15.300  0.00  0.00    +0.000 Cl
ATOM     12  C   UNL     1       5.484   6.549  15.805  0.00  0.00    +0.000 A 
ATOM     13  C   UNL     1       4.361   6.948  16.522  0.00  0.00    +0.000 A 
ATOM     14  C   UNL     1       3.891   6.197  17.618  0.00  0.00    +0.000 A 
ATOM     15  S   UNL     1       2.434   6.854  18.394  0.00  0.00    +0.000 S 
ATOM     16  C   UNL     1       2.116   5.715  19.750  0.00  0.00    +0.000 C 
ENDROOT
BRANCH   1  18
ATOM     17  O   UNL     1       5.832   0.714  21.726  0.00  0.00    +0.000 OA
ATOM     18  C   UNL     1       5.238   0.956  20.688  0.00  0.00    +0.000 C 
BRANCH  18  19
ATOM     19  O   UNL     1       5.225   0.118  19.631  0.00  0.00    +0.000 OA
ATOM     20  H   UNL     1       4.398  -0.394  19.559  0.00  0.00    +0.000 HD
ENDBRANCH  18  19
ENDBRANCH   1  18
TORSDOF 2
ENDMDL
MODEL 8
REMARK VINA RESULT:      -6.2      3.104      4.974
REMARK  Name = 
REMARK  2 active torsions:
REMARK  status: ('A' for Active; 'I' for Inactive)
REMARK    1  A    between atoms: C_2  and  O_3
REMARK    2  A    between atoms: C_2  and  C_4
REMARK                            x       y       z     vdW  Elec       q    Type
REMARK                         _______ _______ _______ _____ _____    ______ ____
ROOT
ATOM      1  C   UNL     1       6.679   6.376  17.535  0.00  0.00    +0.000 A 
ATOM      2  C   UNL     1       7.095   5.485  16.631  0.00  0.00    +0.000 A 
ATOM      3  C   UNL     1       6.266   4.305  16.382  0.00  0.00    +0.000 A 
ATOM      4  O   UNL     1       6.636   3.454  15.583  0.00  0.00    +0.000 OA
ATOM      5  C   UNL     1       4.979   4.187  17.120  0.00  0.00    +0.000 A 
ATOM      6  C   UNL     1       4.664   5.153  18.000  0.00  0.00    +0.000 A 
ATOM      7  O   UNL     1       5.496   6.246  18.250  0.00  0.00    +0.000 OA
ATOM      8  C   UNL     1       3.399   5.130  18.774  0.00  0.00    +0.000 A 
ATOM      9  C   UNL     1       3.106   6.161  19.693  0.00  0.00    +0.000 A 
ATOM     10  C   UNL     1       1.915   6.165  20.427  0.00  0.00    +0.000 A 
ATOM     11 CL   UNL     1       1.593   7.446  21.529  0.00  0.00    +0.000 Cl
ATOM     12  C   UNL     1       0.988   5.147  20.271  0.00  0.00    +0.000 A 
ATOM     13  C   UNL     1       1.257   4.121  19.371  0.00  0.00    +0.000 A 
ATOM     14  C   UNL     1       2.449   4.103  18.622  0.00  0.00    +0.000 A 
ATOM     15  S   UNL     1       2.604   2.724  17.511  0.00  0.00    +0.000 S 
ATOM     16  C   UNL     1       4.215   2.966  16.745  0.00  0.00    +0.000 C 
ENDROOT
BRANCH   1  18
ATOM     17  O   UNL     1       7.504   8.591  17.122  0.00  0.00    +0.000 OA
ATOM     18  C   UNL     1       7.552   7.557  17.768  0.00  0.00    +0.000 C 
BRANCH  18  19
ATOM     19  O   UNL     1       8.422   7.359  18.779  0.00  0.00    +0.000 OA
ATOM     20  H   UNL     1       9.044   6.626  18.612  0.00  0.00    +0.000 HD
ENDBRANCH  18  19
ENDBRANCH   1  18
TORSDOF 2
ENDMDL
MODEL 9
REMARK VINA RESULT:      -6.1      9.635     10.849
REMARK  Name = 
REMARK  2 active torsions:
REMARK  status: ('A' for Active; 'I' for Inactive)
REMARK    1  A    between atoms: C_2  and  O_3
REMARK    2  A    between atoms: C_2  and  C_4
REMARK                            x       y       z     vdW  Elec       q    Type
REMARK                         _______ _______ _______ _____ _____    ______ ____
ROOT
ATOM      1  C   UNL     1      -3.435  10.556  15.610  0.00  0.00    +0.000 A 
ATOM      2  C   UNL     1      -4.499  11.265  15.996  0.00  0.00    +0.000 A 
ATOM      3  C   UNL     1      -4.519  11.810  17.354  0.00  0.00    +0.000 A 
ATOM      4  O   UNL     1      -5.494  12.437  17.748  0.00  0.00    +0.000 OA
ATOM      5  C   UNL     1      -3.328  11.580  18.216  0.00  0.00    +0.000 A 
ATOM      6  C   UNL     1      -2.313  10.857  17.714  0.00  0.00    +0.000 A 
ATOM      7  O   UNL     1      -2.340  10.311  16.428  0.00  0.00    +0.000 OA
ATOM      8  C   UNL     1      -1.080  10.584  18.492  0.00  0.00    +0.000 A 
ATOM      9  C   UNL     1      -0.038   9.816  17.930  0.00  0.00    +0.000 A 
ATOM     10  C   UNL     1       1.139   9.554  18.641  0.00  0.00    +0.000 A 
ATOM     11 CL   UNL     1       2.389   8.622  17.916  0.00  0.00    +0.000 Cl
ATOM     12  C   UNL     1       1.309  10.045  19.927  0.00  0.00    +0.000 A 
ATOM     13  C   UNL     1       0.294  10.804  20.499  0.00  0.00    +0.000 A 
ATOM     14  C   UNL     1      -0.895  11.080  19.796  0.00  0.00    +0.000 A 
ATOM     15  S   UNL     1      -2.065  12.081  20.684  0.00  0.00    +0.000 S 
ATOM     16  C   UNL     1      -3.459  12.220  19.555  0.00  0.00    +0.000 C 
ENDROOT
BRANCH   1  18
ATOM     17  O   UNL     1      -2.459   9.802  13.552  0.00  0.00    +0.000 OA
ATOM     18  C   UNL     1      -3.454  10.011  14.227  0.00  0.00    +0.000 C 
BRANCH  18  19
ATOM     19  O   UNL     1      -4.707   9.775  13.787  0.00  0.00    +0.000 OA
ATOM     20  H   UNL     1      -4.948   8.830  13.805  0.00  0.00    +0.000 HD
ENDBRANCH  18  19
ENDBRANCH   1  18
TORSDOF 2
ENDMDL
