MODEL 1
REMARK VINA RESULT:      -6.4      0.000      0.000
REMARK  Name = 
REMARK  6 active torsions:
REMARK  status: ('A' for Active; 'I' for Inactive)
REMARK    1  A    between atoms: C_1  and  C_2
REMARK    2  A    between atoms: C_12  and  C_13
REMARK    3  A    between atoms: C_13  and  C_14
REMARK    4  A    between atoms: C_13  and  C_15
REMARK    5  A    between atoms: C_13  and  O_16
REMARK    6  A    between atoms: C_19  and  C_20
REMARK                            x       y       z     vdW  Elec       q    Type
REMARK                         _______ _______ _______ _____ _____    ______ ____
ROOT
ATOM      1  C   UNL     1       1.188   7.305  21.192  0.00  0.00    +0.000 C 
ATOM      2  C   UNL     1       0.879   8.822  21.108  0.00  0.00    +0.000 C 
ATOM      3  C   UNL     1       1.471   9.402  20.021  0.00  0.00    +0.000 C 
ATOM      4  C   UNL     1       1.036   9.152  18.457  0.00  0.00    +0.000 C 
ATOM      5  C   UNL     1      -0.089   9.748  17.496  0.00  0.00    +0.000 C 
ATOM      6  C   UNL     1      -1.183  10.385  18.194  0.00  0.00    +0.000 C 
ATOM      7  C   UNL     1      -1.197  10.741  19.473  0.00  0.00    +0.000 C 
ATOM      8  C   UNL     1      -2.178  11.770  19.747  0.00  0.00    +0.000 C 
ATOM      9  O   UNL     1      -2.923  11.886  18.546  0.00  0.00    +0.000 OA
ATOM     10  C   UNL     1      -2.343  11.020  17.625  0.00  0.00    +0.000 C 
ATOM     11  O   UNL     1      -2.770  10.878  16.486  0.00  0.00    +0.000 OA
ATOM     12  C   UNL     1      -1.414  13.045  20.155  0.00  0.00    +0.000 C 
ATOM     13  C   UNL     1      -2.404  14.003  20.824  0.00  0.00    +0.000 C 
ATOM     14  C   UNL     1      -1.850  14.394  22.212  0.00  0.00    +0.000 C 
ATOM     15  C   UNL     1      -2.116  13.125  23.052  0.00  0.00    +0.000 C 
ATOM     16  C   UNL     1      -3.578  13.235  23.492  0.00  0.00    +0.000 C 
ATOM     17  C   UNL     1      -1.132  12.152  22.997  0.00  0.00    +0.000 C 
ATOM     18  C   UNL     1      -1.076  10.589  23.033  0.00  0.00    +0.000 C 
ATOM     19  C   UNL     1      -0.150   9.332  22.255  0.00  0.00    +0.000 C 
ENDROOT
BRANCH  12  20
ATOM     20  C   UNL     1      -0.399  13.790  19.255  0.00  0.00    +0.000 C 
ATOM     21  C   UNL     1      -0.398  15.315  19.462  0.00  0.00    +0.000 C 
ATOM     22  C   UNL     1       0.987  13.184  19.350  0.00  0.00    +0.000 C 
BRANCH  20  23
ATOM     23  O   UNL     1      -0.850  13.623  17.896  0.00  0.00    +0.000 OA
ATOM     24  H   UNL     1      -1.736  13.226  17.909  0.00  0.00    +0.000 HD
ENDBRANCH  20  23
ENDBRANCH  12  20
TORSDOF 2
ENDMDL
MODEL 2
REMARK VINA RESULT:      -6.3      5.901      9.873
REMARK  Name = 
REMARK  6 active torsions:
REMARK  status: ('A' for Active; 'I' for Inactive)
REMARK    1  A    between atoms: C_1  and  C_2
REMARK    2  A    between atoms: C_12  and  C_13
REMARK    3  A    between atoms: C_13  and  C_14
REMARK    4  A    between atoms: C_13  and  C_15
REMARK    5  A    between atoms: C_13  and  O_16
REMARK    6  A    between atoms: C_19  and  C_20
REMARK                            x       y       z     vdW  Elec       q    Type
REMARK                         _______ _______ _______ _____ _____    ______ ____
ROOT
ATOM      1  C   UNL     1       1.049   9.147  19.455  0.00  0.00    +0.000 C 
ATOM      2  C   UNL     1       2.122   8.048  19.249  0.00  0.00    +0.000 C 
ATOM      3  C   UNL     1       2.203   7.208  20.324  0.00  0.00    +0.000 C 
ATOM      4  C   UNL     1       1.060   6.113  20.762  0.00  0.00    +0.000 C 
ATOM      5  C   UNL     1       0.692   4.629  20.305  0.00  0.00    +0.000 C 
ATOM      6  C   UNL     1       1.228   4.262  19.013  0.00  0.00    +0.000 C 
ATOM      7  C   UNL     1       2.170   4.911  18.341  0.00  0.00    +0.000 C 
ATOM      8  C   UNL     1       2.833   4.066  17.369  0.00  0.00    +0.000 C 
ATOM      9  O   UNL     1       2.074   2.868  17.357  0.00  0.00    +0.000 OA
ATOM     10  C   UNL     1       1.084   3.007  18.323  0.00  0.00    +0.000 C 
ATOM     11  O   UNL     1       0.249   2.139  18.549  0.00  0.00    +0.000 OA
ATOM     12  C   UNL     1       4.296   3.896  17.822  0.00  0.00    +0.000 C 
ATOM     13  C   UNL     1       5.104   3.358  16.636  0.00  0.00    +0.000 C 
ATOM     14  C   UNL     1       6.306   4.299  16.393  0.00  0.00    +0.000 C 
ATOM     15  C   UNL     1       5.646   5.522  15.717  0.00  0.00    +0.000 C 
ATOM     16  C   UNL     1       5.514   5.141  14.241  0.00  0.00    +0.000 C 
ATOM     17  C   UNL     1       5.143   6.483  16.578  0.00  0.00    +0.000 C 
ATOM     18  C   UNL     1       3.931   7.472  16.593  0.00  0.00    +0.000 C 
ATOM     19  C   UNL     1       2.808   8.088  17.778  0.00  0.00    +0.000 C 
ENDROOT
BRANCH  12  20
ATOM     20  C   UNL     1       4.735   3.261  19.163  0.00  0.00    +0.000 C 
ATOM     21  C   UNL     1       4.188   3.997  20.399  0.00  0.00    +0.000 C 
ATOM     22  C   UNL     1       4.458   1.772  19.196  0.00  0.00    +0.000 C 
BRANCH  20  23
ATOM     23  O   UNL     1       6.163   3.436  19.256  0.00  0.00    +0.000 OA
ATOM     24  H   UNL     1       6.511   3.634  18.372  0.00  0.00    +0.000 HD
ENDBRANCH  20  23
ENDBRANCH  12  20
TORSDOF 2
ENDMDL
MODEL 3
REMARK VINA RESULT:      -6.1      6.355      9.681
REMARK  Name = 
REMARK  6 active torsions:
REMARK  status: ('A' for Active; 'I' for Inactive)
REMARK    1  A    between atoms: C_1  and  C_2
REMARK    2  A    between atoms: C_12  and  C_13
REMARK    3  A    between atoms: C_13  and  C_14
REMARK    4  A    between atoms: C_13  and  C_15
REMARK    5  A    between atoms: C_13  and  O_16
REMARK    6  A    between atoms: C_19  and  C_20
REMARK                            x       y       z     vdW  Elec       q    Type
REMARK                         _______ _______ _______ _____ _____    ______ ____
ROOT
ATOM      1  C   UNL     1       2.358   9.661  18.311  0.00  0.00    +0.000 C 
ATOM      2  C   UNL     1       2.347   8.111  18.272  0.00  0.00    +0.000 C 
ATOM      3  C   UNL     1       2.885   7.628  17.112  0.00  0.00    +0.000 C 
ATOM      4  C   UNL     1       4.474   7.700  16.700  0.00  0.00    +0.000 C 
ATOM      5  C   UNL     1       5.762   6.822  17.039  0.00  0.00    +0.000 C 
ATOM      6  C   UNL     1       5.616   5.990  18.212  0.00  0.00    +0.000 C 
ATOM      7  C   UNL     1       4.479   5.701  18.832  0.00  0.00    +0.000 C 
ATOM      8  C   UNL     1       4.576   4.493  19.624  0.00  0.00    +0.000 C 
ATOM      9  O   UNL     1       5.953   4.157  19.600  0.00  0.00    +0.000 OA
ATOM     10  C   UNL     1       6.582   5.086  18.778  0.00  0.00    +0.000 C 
ATOM     11  O   UNL     1       7.788   5.074  18.563  0.00  0.00    +0.000 OA
ATOM     12  C   UNL     1       3.646   3.442  18.985  0.00  0.00    +0.000 C 
ATOM     13  C   UNL     1       3.423   2.319  20.003  0.00  0.00    +0.000 C 
ATOM     14  C   UNL     1       1.903   2.128  20.200  0.00  0.00    +0.000 C 
ATOM     15  C   UNL     1       1.520   3.343  21.074  0.00  0.00    +0.000 C 
ATOM     16  C   UNL     1       1.861   2.929  22.507  0.00  0.00    +0.000 C 
ATOM     17  C   UNL     1       1.226   4.508  20.384  0.00  0.00    +0.000 C 
ATOM     18  C   UNL     1       1.411   6.043  20.618  0.00  0.00    +0.000 C 
ATOM     19  C   UNL     1       1.807   7.438  19.647  0.00  0.00    +0.000 C 
ENDROOT
BRANCH  12  20
ATOM     20  C   UNL     1       3.788   2.902  17.542  0.00  0.00    +0.000 C 
ATOM     21  C   UNL     1       3.604   1.377  17.436  0.00  0.00    +0.000 C 
ATOM     22  C   UNL     1       2.914   3.667  16.568  0.00  0.00    +0.000 C 
BRANCH  20  23
ATOM     23  O   UNL     1       5.159   3.116  17.152  0.00  0.00    +0.000 OA
ATOM     24  H   UNL     1       5.437   3.993  17.461  0.00  0.00    +0.000 HD
ENDBRANCH  20  23
ENDBRANCH  12  20
TORSDOF 2
ENDMDL
MODEL 4
REMARK VINA RESULT:      -5.6      1.003      1.253
REMARK  Name = 
REMARK  6 active torsions:
REMARK  status: ('A' for Active; 'I' for Inactive)
REMARK    1  A    between atoms: C_1  and  C_2
REMARK    2  A    between atoms: C_12  and  C_13
REMARK    3  A    between atoms: C_13  and  C_14
REMARK    4  A    between atoms: C_13  and  C_15
REMARK    5  A    between atoms: C_13  and  O_16
REMARK    6  A    between atoms: C_19  and  C_20
REMARK                            x       y       z     vdW  Elec       q    Type
REMARK                         _______ _______ _______ _____ _____    ______ ____
ROOT
ATOM      1  C   UNL     1       1.455   6.567  20.850  0.00  0.00    +0.000 C 
ATOM      2  C   UNL     1       1.193   8.093  20.934  0.00  0.00    +0.000 C 
ATOM      3  C   UNL     1       1.864   8.778  19.960  0.00  0.00    +0.000 C 
ATOM      4  C   UNL     1       1.517   8.732  18.355  0.00  0.00    +0.000 C 
ATOM      5  C   UNL     1       0.467   9.476  17.412  0.00  0.00    +0.000 C 
ATOM      6  C   UNL     1      -0.649  10.062  18.120  0.00  0.00    +0.000 C 
ATOM      7  C   UNL     1      -0.730  10.262  19.429  0.00  0.00    +0.000 C 
ATOM      8  C   UNL     1      -1.697  11.284  19.771  0.00  0.00    +0.000 C 
ATOM      9  O   UNL     1      -2.366  11.567  18.553  0.00  0.00    +0.000 OA
ATOM     10  C   UNL     1      -1.755  10.799  17.568  0.00  0.00    +0.000 C 
ATOM     11  O   UNL     1      -2.117  10.809  16.398  0.00  0.00    +0.000 OA
ATOM     12  C   UNL     1      -0.925  12.474  20.373  0.00  0.00    +0.000 C 
ATOM     13  C   UNL     1      -1.928  13.379  21.096  0.00  0.00    +0.000 C 
ATOM     14  C   UNL     1      -1.447  13.582  22.551  0.00  0.00    +0.000 C 
ATOM     15  C   UNL     1      -1.798  12.231  23.214  0.00  0.00    +0.000 C 
ATOM     16  C   UNL     1      -3.279  12.338  23.581  0.00  0.00    +0.000 C 
ATOM     17  C   UNL     1      -0.838  11.239  23.097  0.00  0.00    +0.000 C 
ATOM     18  C   UNL     1      -0.826   9.682  22.947  0.00  0.00    +0.000 C 
ATOM     19  C   UNL     1       0.111   8.496  22.074  0.00  0.00    +0.000 C 
ENDROOT
BRANCH  12  20
ATOM     20  C   UNL     1       0.161  13.287  19.628  0.00  0.00    +0.000 C 
ATOM     21  C   UNL     1       1.512  12.555  19.524  0.00  0.00    +0.000 C 
ATOM     22  C   UNL     1      -0.336  13.793  18.289  0.00  0.00    +0.000 C 
BRANCH  20  23
ATOM     23  O   UNL     1       0.450  14.439  20.445  0.00  0.00    +0.000 OA
ATOM     24  H   UNL     1      -0.160  15.153  20.202  0.00  0.00    +0.000 HD
ENDBRANCH  20  23
ENDBRANCH  12  20
TORSDOF 2
ENDMDL
MODEL 5
REMARK VINA RESULT:      -5.5      8.664     11.211
REMARK  Name = 
REMARK  6 active torsions:
REMARK  status: ('A' for Active; 'I' for Inactive)
REMARK    1  A    between atoms: C_1  and  C_2
REMARK    2  A    between atoms: C_12  and  C_13
REMARK    3  A    between atoms: C_13  and  C_14
REMARK    4  A    between atoms: C_13  and  C_15
REMARK    5  A    between atoms: C_13  and  O_16
REMARK    6  A    between atoms: C_19  and  C_20
REMARK                            x       y       z     vdW  Elec       q    Type
REMARK                         _______ _______ _______ _____ _____    ______ ____
ROOT
ATOM      1  C   UNL     1       6.974  11.870  24.542  0.00  0.00    +0.000 C 
ATOM      2  C   UNL     1       7.201  12.312  23.073  0.00  0.00    +0.000 C 
ATOM      3  C   UNL     1       6.393  13.358  22.727  0.00  0.00    +0.000 C 
ATOM      4  C   UNL     1       6.536  14.895  23.289  0.00  0.00    +0.000 C 
ATOM      5  C   UNL     1       7.436  16.154  22.900  0.00  0.00    +0.000 C 
ATOM      6  C   UNL     1       8.616  15.819  22.134  0.00  0.00    +0.000 C 
ATOM      7  C   UNL     1       8.855  14.665  21.526  0.00  0.00    +0.000 C 
ATOM      8  C   UNL     1       9.829  14.794  20.462  0.00  0.00    +0.000 C 
ATOM      9  O   UNL     1      10.330  16.115  20.592  0.00  0.00    +0.000 OA
ATOM     10  C   UNL     1       9.622  16.716  21.627  0.00  0.00    +0.000 C 
ATOM     11  O   UNL     1       9.833  17.864  21.997  0.00  0.00    +0.000 OA
ATOM     12  C   UNL     1       9.105  14.510  19.131  0.00  0.00    +0.000 C 
ATOM     13  C   UNL     1      10.165  14.248  18.056  0.00  0.00    +0.000 C 
ATOM     14  C   UNL     1       9.867  12.886  17.392  0.00  0.00    +0.000 C 
ATOM     15  C   UNL     1      10.337  11.877  18.464  0.00  0.00    +0.000 C 
ATOM     16  C   UNL     1      11.849  11.757  18.265  0.00  0.00    +0.000 C 
ATOM     17  C   UNL     1       9.399  11.547  19.428  0.00  0.00    +0.000 C 
ATOM     18  C   UNL     1       9.412  11.190  20.950  0.00  0.00    +0.000 C 
ATOM     19  C   UNL     1       8.407  11.509  22.340  0.00  0.00    +0.000 C 
ENDROOT
BRANCH  12  20
ATOM     20  C   UNL     1       7.911  15.329  18.585  0.00  0.00    +0.000 C 
ATOM     21  C   UNL     1       6.592  15.065  19.334  0.00  0.00    +0.000 C 
ATOM     22  C   UNL     1       8.243  16.804  18.483  0.00  0.00    +0.000 C 
BRANCH  20  23
ATOM     23  O   UNL     1       7.656  14.850  17.249  0.00  0.00    +0.000 OA
ATOM     24  H   UNL     1       8.452  14.990  16.712  0.00  0.00    +0.000 HD
ENDBRANCH  20  23
ENDBRANCH  12  20
TORSDOF 2
ENDMDL
MODEL 6
REMARK VINA RESULT:      -5.5      6.070      9.607
REMARK  Name = 
REMARK  6 active torsions:
REMARK  status: ('A' for Active; 'I' for Inactive)
REMARK    1  A    between atoms: C_1  and  C_2
REMARK    2  A    between atoms: C_12  and  C_13
REMARK    3  A    between atoms: C_13  and  C_14
REMARK    4  A    between atoms: C_13  and  C_15
REMARK    5  A    between atoms: C_13  and  O_16
REMARK    6  A    between atoms: C_19  and  C_20
REMARK                            x       y       z     vdW  Elec       q    Type
REMARK                         _______ _______ _______ _____ _____    ______ ____
ROOT
ATOM      1  C   UNL     1       2.439   9.693  18.456  0.00  0.00    +0.000 C 
ATOM      2  C   UNL     1       2.364   8.148  18.356  0.00  0.00    +0.000 C 
ATOM      3  C   UNL     1       2.879   7.690  17.175  0.00  0.00    +0.000 C 
ATOM      4  C   UNL     1       4.468   7.715  16.758  0.00  0.00    +0.000 C 
ATOM      5  C   UNL     1       5.721   6.774  17.055  0.00  0.00    +0.000 C 
ATOM      6  C   UNL     1       5.545   5.902  18.195  0.00  0.00    +0.000 C 
ATOM      7  C   UNL     1       4.400   5.634  18.809  0.00  0.00    +0.000 C 
ATOM      8  C   UNL     1       4.451   4.392  19.552  0.00  0.00    +0.000 C 
ATOM      9  O   UNL     1       5.814   4.003  19.508  0.00  0.00    +0.000 OA
ATOM     10  C   UNL     1       6.476   4.938  18.720  0.00  0.00    +0.000 C 
ATOM     11  O   UNL     1       7.680   4.887  18.499  0.00  0.00    +0.000 OA
ATOM     12  C   UNL     1       3.478   3.406  18.877  0.00  0.00    +0.000 C 
ATOM     13  C   UNL     1       3.213   2.253  19.850  0.00  0.00    +0.000 C 
ATOM     14  C   UNL     1       1.687   2.115  20.047  0.00  0.00    +0.000 C 
ATOM     15  C   UNL     1       1.356   3.309  20.970  0.00  0.00    +0.000 C 
ATOM     16  C   UNL     1       1.685   2.825  22.384  0.00  0.00    +0.000 C 
ATOM     17  C   UNL     1       1.107   4.511  20.329  0.00  0.00    +0.000 C 
ATOM     18  C   UNL     1       1.355   6.027  20.622  0.00  0.00    +0.000 C 
ATOM     19  C   UNL     1       1.802   7.443  19.705  0.00  0.00    +0.000 C 
ENDROOT
BRANCH  12  20
ATOM     20  C   UNL     1       3.593   2.918  17.413  0.00  0.00    +0.000 C 
ATOM     21  C   UNL     1       4.380   3.881  16.505  0.00  0.00    +0.000 C 
ATOM     22  C   UNL     1       4.099   1.492  17.335  0.00  0.00    +0.000 C 
BRANCH  20  23
ATOM     23  O   UNL     1       2.259   2.933  16.865  0.00  0.00    +0.000 OA
ATOM     24  H   UNL     1       1.780   3.690  17.236  0.00  0.00    +0.000 HD
ENDBRANCH  20  23
ENDBRANCH  12  20
TORSDOF 2
ENDMDL
MODEL 7
REMARK VINA RESULT:      -5.4      2.442      4.645
REMARK  Name = 
REMARK  6 active torsions:
REMARK  status: ('A' for Active; 'I' for Inactive)
REMARK    1  A    between atoms: C_1  and  C_2
REMARK    2  A    between atoms: C_12  and  C_13
REMARK    3  A    between atoms: C_13  and  C_14
REMARK    4  A    between atoms: C_13  and  C_15
REMARK    5  A    between atoms: C_13  and  O_16
REMARK    6  A    between atoms: C_19  and  C_20
REMARK                            x       y       z     vdW  Elec       q    Type
REMARK                         _______ _______ _______ _____ _____    ______ ____
ROOT
ATOM      1  C   UNL     1      -2.254  10.042  16.452  0.00  0.00    +0.000 C 
ATOM      2  C   UNL     1      -2.635  10.452  17.898  0.00  0.00    +0.000 C 
ATOM      3  C   UNL     1      -1.596  10.271  18.767  0.00  0.00    +0.000 C 
ATOM      4  C   UNL     1      -0.217  11.163  18.799  0.00  0.00    +0.000 C 
ATOM      5  C   UNL     1       0.197  12.569  19.429  0.00  0.00    +0.000 C 
ATOM      6  C   UNL     1      -0.924  13.422  19.753  0.00  0.00    +0.000 C 
ATOM      7  C   UNL     1      -2.196  13.052  19.826  0.00  0.00    +0.000 C 
ATOM      8  C   UNL     1      -2.988  13.956  20.634  0.00  0.00    +0.000 C 
ATOM      9  O   UNL     1      -2.124  15.049  20.901  0.00  0.00    +0.000 OA
ATOM     10  C   UNL     1      -0.892  14.738  20.335  0.00  0.00    +0.000 C 
ATOM     11  O   UNL     1       0.070  15.494  20.381  0.00  0.00    +0.000 OA
ATOM     12  C   UNL     1      -3.448  13.181  21.884  0.00  0.00    +0.000 C 
ATOM     13  C   UNL     1      -4.590  13.965  22.540  0.00  0.00    +0.000 C 
ATOM     14  C   UNL     1      -5.806  13.024  22.698  0.00  0.00    +0.000 C 
ATOM     15  C   UNL     1      -6.354  12.934  21.256  0.00  0.00    +0.000 C 
ATOM     16  C   UNL     1      -7.216  14.185  21.077  0.00  0.00    +0.000 C 
ATOM     17  C   UNL     1      -5.778  11.961  20.457  0.00  0.00    +0.000 C 
ATOM     18  C   UNL     1      -5.417  11.801  18.943  0.00  0.00    +0.000 C 
ATOM     19  C   UNL     1      -4.121  11.095  18.013  0.00  0.00    +0.000 C 
ENDROOT
BRANCH  12  20
ATOM     20  C   UNL     1      -2.498  12.550  22.930  0.00  0.00    +0.000 C 
ATOM     21  C   UNL     1      -1.620  11.422  22.361  0.00  0.00    +0.000 C 
ATOM     22  C   UNL     1      -1.695  13.605  23.666  0.00  0.00    +0.000 C 
BRANCH  20  23
ATOM     23  O   UNL     1      -3.332  11.887  23.901  0.00  0.00    +0.000 OA
ATOM     24  H   UNL     1      -3.555  12.519  24.603  0.00  0.00    +0.000 HD
ENDBRANCH  20  23
ENDBRANCH  12  20
TORSDOF 2
ENDMDL
MODEL 8
REMARK VINA RESULT:      -5.4      3.146      6.453
REMARK  Name = 
REMARK  6 active torsions:
REMARK  status: ('A' for Active; 'I' for Inactive)
REMARK    1  A    between atoms: C_1  and  C_2
REMARK    2  A    between atoms: C_12  and  C_13
REMARK    3  A    between atoms: C_13  and  C_14
REMARK    4  A    between atoms: C_13  and  C_15
REMARK    5  A    between atoms: C_13  and  O_16
REMARK    6  A    between atoms: C_19  and  C_20
REMARK                            x       y       z     vdW  Elec       q    Type
REMARK                         _______ _______ _______ _____ _____    ______ ____
ROOT
ATOM      1  C   UNL     1      -7.600  13.594  19.213  0.00  0.00    +0.000 C 
ATOM      2  C   UNL     1      -6.117  13.736  19.642  0.00  0.00    +0.000 C 
ATOM      3  C   UNL     1      -5.940  14.760  20.529  0.00  0.00    +0.000 C 
ATOM      4  C   UNL     1      -6.467  14.771  22.085  0.00  0.00    +0.000 C 
ATOM      5  C   UNL     1      -5.912  14.188  23.463  0.00  0.00    +0.000 C 
ATOM      6  C   UNL     1      -4.927  13.142  23.305  0.00  0.00    +0.000 C 
ATOM      7  C   UNL     1      -4.280  12.836  22.187  0.00  0.00    +0.000 C 
ATOM      8  C   UNL     1      -3.045  12.124  22.444  0.00  0.00    +0.000 C 
ATOM      9  O   UNL     1      -3.077  11.837  23.832  0.00  0.00    +0.000 OA
ATOM     10  C   UNL     1      -4.233  12.420  24.339  0.00  0.00    +0.000 C 
ATOM     11  O   UNL     1      -4.558  12.337  25.517  0.00  0.00    +0.000 OA
ATOM     12  C   UNL     1      -1.883  13.036  22.003  0.00  0.00    +0.000 C 
ATOM     13  C   UNL     1      -0.619  12.178  21.888  0.00  0.00    +0.000 C 
ATOM     14  C   UNL     1      -0.022  12.367  20.475  0.00  0.00    +0.000 C 
ATOM     15  C   UNL     1      -0.978  11.534  19.591  0.00  0.00    +0.000 C 
ATOM     16  C   UNL     1      -0.484  10.092  19.717  0.00  0.00    +0.000 C 
ATOM     17  C   UNL     1      -2.107  12.197  19.140  0.00  0.00    +0.000 C 
ATOM     18  C   UNL     1      -3.596  11.826  18.836  0.00  0.00    +0.000 C 
ATOM     19  C   UNL     1      -5.158  12.580  19.028  0.00  0.00    +0.000 C 
ENDROOT
BRANCH  12  20
ATOM     20  C   UNL     1      -1.586  14.434  22.596  0.00  0.00    +0.000 C 
ATOM     21  C   UNL     1      -0.109  14.851  22.478  0.00  0.00    +0.000 C 
ATOM     22  C   UNL     1      -2.536  15.485  22.059  0.00  0.00    +0.000 C 
BRANCH  20  23
ATOM     23  O   UNL     1      -1.809  14.337  24.017  0.00  0.00    +0.000 OA
ATOM     24  H   UNL     1      -2.024  15.219  24.359  0.00  0.00    +0.000 HD
ENDBRANCH  20  23
ENDBRANCH  12  20
TORSDOF 2
ENDMDL
MODEL 9
REMARK VINA RESULT:      -5.4      2.049      5.467
REMARK  Name = 
REMARK  6 active torsions:
REMARK  status: ('A' for Active; 'I' for Inactive)
REMARK    1  A    between atoms: C_1  and  C_2
REMARK    2  A    between atoms: C_12  and  C_13
REMARK    3  A    between atoms: C_13  and  C_14
REMARK    4  A    between atoms: C_13  and  C_15
REMARK    5  A    between atoms: C_13  and  O_16
REMARK    6  A    between atoms: C_19  and  C_20
REMARK                            x       y       z     vdW  Elec       q    Type
REMARK                         _______ _______ _______ _____ _____    ______ ____
ROOT
ATOM      1  C   UNL     1      -2.205  17.146  22.377  0.00  0.00    +0.000 C 
ATOM      2  C   UNL     1      -1.944  15.757  21.741  0.00  0.00    +0.000 C 
ATOM      3  C   UNL     1      -1.800  15.837  20.384  0.00  0.00    +0.000 C 
ATOM      4  C   UNL     1      -0.524  16.516  19.603  0.00  0.00    +0.000 C 
ATOM      5  C   UNL     1       0.936  16.019  19.195  0.00  0.00    +0.000 C 
ATOM      6  C   UNL     1       1.395  14.868  19.940  0.00  0.00    +0.000 C 
ATOM      7  C   UNL     1       0.648  14.070  20.691  0.00  0.00    +0.000 C 
ATOM      8  C   UNL     1       1.255  12.770  20.886  0.00  0.00    +0.000 C 
ATOM      9  O   UNL     1       2.560  12.898  20.346  0.00  0.00    +0.000 OA
ATOM     10  C   UNL     1       2.652  14.178  19.811  0.00  0.00    +0.000 C 
ATOM     11  O   UNL     1       3.670  14.604  19.279  0.00  0.00    +0.000 OA
ATOM     12  C   UNL     1       0.366  11.729  20.178  0.00  0.00    +0.000 C 
ATOM     13  C   UNL     1       0.751  10.339  20.695  0.00  0.00    +0.000 C 
ATOM     14  C   UNL     1      -0.522   9.639  21.221  0.00  0.00    +0.000 C 
ATOM     15  C   UNL     1      -0.767  10.353  22.569  0.00  0.00    +0.000 C 
ATOM     16  C   UNL     1       0.156   9.651  23.568  0.00  0.00    +0.000 C 
ATOM     17  C   UNL     1      -1.507  11.522  22.503  0.00  0.00    +0.000 C 
ATOM     18  C   UNL     1      -1.535  12.894  23.254  0.00  0.00    +0.000 C 
ATOM     19  C   UNL     1      -1.796  14.567  22.835  0.00  0.00    +0.000 C 
ENDROOT
BRANCH  12  20
ATOM     20  C   UNL     1       0.054  11.722  18.662  0.00  0.00    +0.000 C 
ATOM     21  C   UNL     1      -0.316  10.330  18.118  0.00  0.00    +0.000 C 
ATOM     22  C   UNL     1      -0.961  12.785  18.293  0.00  0.00    +0.000 C 
BRANCH  20  23
ATOM     23  O   UNL     1       1.285  12.046  17.985  0.00  0.00    +0.000 OA
ATOM     24  H   UNL     1       1.079  12.298  17.071  0.00  0.00    +0.000 HD
ENDBRANCH  20  23
ENDBRANCH  12  20
TORSDOF 2
ENDMDL
