MODEL 1
REMARK VINA RESULT:      -6.3      0.000      0.000
REMARK  Name = 
REMARK  4 active torsions:
REMARK  status: ('A' for Active; 'I' for Inactive)
REMARK    1  A    between atoms: C_1  and  C_2
REMARK    2  A    between atoms: C_2  and  O_3
REMARK    3  A    between atoms: O_3  and  C_4
REMARK    4  A    between atoms: C_14  and  C_15
REMARK                            x       y       z     vdW  Elec       q    Type
REMARK                         _______ _______ _______ _____ _____    ______ ____
ROOT
ATOM      1  C   UNL     1      -1.023  10.880  19.138  0.00  0.00    +0.000 C 
ATOM      2  O   UNL     1      -1.452  11.445  18.141  0.00  0.00    +0.000 OA
ATOM      3  N   UNL     1      -0.112   9.842  19.107  0.00  0.00    +0.000 N 
ATOM      4  C   UNL     1       0.429   9.335  17.844  0.00  0.00    +0.000 C 
ATOM      5  C   UNL     1       1.967   9.133  17.898  0.00  0.00    +0.000 C 
ATOM      6  N   UNL     1       2.400   8.403  19.116  0.00  0.00    +0.000 N 
ATOM      7  C   UNL     1       2.564   7.032  19.141  0.00  0.00    +0.000 C 
ATOM      8  N   UNL     1       2.034   6.342  20.097  0.00  0.00    +0.000 NA
ATOM      9  C   UNL     1       2.246   4.986  20.160  0.00  0.00    +0.000 C 
ATOM     10  O   UNL     1       2.010   4.340  21.181  0.00  0.00    +0.000 OA
ATOM     11  C   UNL     1       2.769   4.292  18.940  0.00  0.00    +0.000 C 
ATOM     12  C   UNL     1       3.925   5.151  18.373  0.00  0.00    +0.000 C 
ATOM     13  C   UNL     1       5.103   5.224  19.394  0.00  0.00    +0.000 C 
ATOM     14  C   UNL     1       6.416   5.743  18.808  0.00  0.00    +0.000 C 
ATOM     15  C   UNL     1       6.854   4.893  17.629  0.00  0.00    +0.000 C 
ATOM     16  C   UNL     1       5.793   4.929  16.541  0.00  0.00    +0.000 C 
ATOM     17  C   UNL     1       4.419   4.496  17.052  0.00  0.00    +0.000 C 
ATOM     18  N   UNL     1       3.377   6.506  18.165  0.00  0.00    +0.000 N 
ATOM     19  C   UNL     1       1.846   9.037  20.349  0.00  0.00    +0.000 C 
ATOM     20  C   UNL     1       0.309   9.095  20.292  0.00  0.00    +0.000 C 
ATOM     21  H   UNL     1       3.976   7.172  17.688  0.00  0.00    +0.000 HD
ENDROOT
BRANCH  11  22
ATOM     22  C   UNL     1       1.652   4.114  18.000  0.00  0.00    +0.000 C 
ATOM     23  N   UNL     1       0.750   4.004  17.277  0.00  0.00    +0.000 NA
ENDBRANCH  11  22
BRANCH   1  24
ATOM     24  O   UNL     1      -1.361  11.228  20.410  0.00  0.00    +0.000 OA
BRANCH  24  26
ATOM     25  C   UNL     1       0.260  12.937  21.019  0.00  0.00    +0.000 C 
ATOM     26  C   UNL     1      -1.202  12.607  20.780  0.00  0.00    +0.000 C 
ENDBRANCH  24  26
ENDBRANCH   1  24
TORSDOF 3
ENDMDL
MODEL 2
REMARK VINA RESULT:      -5.8      8.909     10.648
REMARK  Name = 
REMARK  4 active torsions:
REMARK  status: ('A' for Active; 'I' for Inactive)
REMARK    1  A    between atoms: C_1  and  C_2
REMARK    2  A    between atoms: C_2  and  O_3
REMARK    3  A    between atoms: O_3  and  C_4
REMARK    4  A    between atoms: C_14  and  C_15
REMARK                            x       y       z     vdW  Elec       q    Type
REMARK                         _______ _______ _______ _____ _____    ______ ____
ROOT
ATOM      1  C   UNL     1       4.086  17.413  20.701  0.00  0.00    +0.000 C 
ATOM      2  O   UNL     1       3.728  17.430  21.871  0.00  0.00    +0.000 OA
ATOM      3  N   UNL     1       5.260  16.834  20.260  0.00  0.00    +0.000 N 
ATOM      4  C   UNL     1       6.182  16.170  21.184  0.00  0.00    +0.000 C 
ATOM      5  C   UNL     1       6.675  14.801  20.646  0.00  0.00    +0.000 C 
ATOM      6  N   UNL     1       7.130  14.877  19.235  0.00  0.00    +0.000 N 
ATOM      7  C   UNL     1       8.450  15.097  18.893  0.00  0.00    +0.000 C 
ATOM      8  N   UNL     1       8.739  16.002  18.015  0.00  0.00    +0.000 NA
ATOM      9  C   UNL     1      10.044  16.183  17.626  0.00  0.00    +0.000 C 
ATOM     10  O   UNL     1      10.336  16.816  16.611  0.00  0.00    +0.000 OA
ATOM     11  C   UNL     1      11.128  15.597  18.478  0.00  0.00    +0.000 C 
ATOM     12  C   UNL     1      10.705  14.153  18.843  0.00  0.00    +0.000 C 
ATOM     13  C   UNL     1      10.609  13.271  17.559  0.00  0.00    +0.000 C 
ATOM     14  C   UNL     1      10.544  11.767  17.829  0.00  0.00    +0.000 C 
ATOM     15  C   UNL     1      11.746  11.312  18.637  0.00  0.00    +0.000 C 
ATOM     16  C   UNL     1      11.781  12.040  19.970  0.00  0.00    +0.000 C 
ATOM     17  C   UNL     1      11.772  13.560  19.806  0.00  0.00    +0.000 C 
ATOM     18  N   UNL     1       9.370  14.253  19.466  0.00  0.00    +0.000 N 
ATOM     19  C   UNL     1       6.094  15.511  18.369  0.00  0.00    +0.000 C 
ATOM     20  C   UNL     1       5.738  16.918  18.880  0.00  0.00    +0.000 C 
ATOM     21  H   UNL     1       8.991  13.402  19.870  0.00  0.00    +0.000 HD
ENDROOT
BRANCH  11  22
ATOM     22  C   UNL     1      11.313  16.469  19.647  0.00  0.00    +0.000 C 
ATOM     23  N   UNL     1      11.483  17.130  20.587  0.00  0.00    +0.000 NA
ENDBRANCH  11  22
BRANCH   1  24
ATOM     24  O   UNL     1       3.354  17.932  19.678  0.00  0.00    +0.000 OA
BRANCH  24  26
ATOM     25  C   UNL     1       2.046  16.170  18.627  0.00  0.00    +0.000 C 
ATOM     26  C   UNL     1       2.025  17.418  19.491  0.00  0.00    +0.000 C 
ENDBRANCH  24  26
ENDBRANCH   1  24
TORSDOF 3
ENDMDL
MODEL 3
REMARK VINA RESULT:      -5.8      4.664      7.352
REMARK  Name = 
REMARK  4 active torsions:
REMARK  status: ('A' for Active; 'I' for Inactive)
REMARK    1  A    between atoms: C_1  and  C_2
REMARK    2  A    between atoms: C_2  and  O_3
REMARK    3  A    between atoms: O_3  and  C_4
REMARK    4  A    between atoms: C_14  and  C_15
REMARK                            x       y       z     vdW  Elec       q    Type
REMARK                         _______ _______ _______ _____ _____    ______ ____
ROOT
ATOM      1  C   UNL     1       2.986  17.091  18.274  0.00  0.00    +0.000 C 
ATOM      2  O   UNL     1       4.193  17.288  18.307  0.00  0.00    +0.000 OA
ATOM      3  N   UNL     1       2.380  15.930  18.711  0.00  0.00    +0.000 N 
ATOM      4  C   UNL     1       3.158  14.823  19.272  0.00  0.00    +0.000 C 
ATOM      5  C   UNL     1       2.529  14.256  20.573  0.00  0.00    +0.000 C 
ATOM      6  N   UNL     1       1.072  14.006  20.435  0.00  0.00    +0.000 N 
ATOM      7  C   UNL     1       0.563  12.778  20.062  0.00  0.00    +0.000 C 
ATOM      8  N   UNL     1      -0.325  12.713  19.123  0.00  0.00    +0.000 NA
ATOM      9  C   UNL     1      -0.880  11.500  18.792  0.00  0.00    +0.000 C 
ATOM     10  O   UNL     1      -1.911  11.421  18.123  0.00  0.00    +0.000 OA
ATOM     11  C   UNL     1      -0.193  10.253  19.256  0.00  0.00    +0.000 C 
ATOM     12  C   UNL     1       0.193  10.458  20.741  0.00  0.00    +0.000 C 
ATOM     13  C   UNL     1      -1.087  10.626  21.619  0.00  0.00    +0.000 C 
ATOM     14  C   UNL     1      -0.845  10.485  23.123  0.00  0.00    +0.000 C 
ATOM     15  C   UNL     1      -0.214   9.141  23.443  0.00  0.00    +0.000 C 
ATOM     16  C   UNL     1       1.119   9.010  22.726  0.00  0.00    +0.000 C 
ATOM     17  C   UNL     1       0.991   9.211  21.216  0.00  0.00    +0.000 C 
ATOM     18  N   UNL     1       0.989  11.699  20.800  0.00  0.00    +0.000 N 
ATOM     19  C   UNL     1       0.365  15.214  19.917  0.00  0.00    +0.000 C 
ATOM     20  C   UNL     1       0.951  15.654  18.563  0.00  0.00    +0.000 C 
ATOM     21  H   UNL     1       1.421  11.923  21.691  0.00  0.00    +0.000 HD
ENDROOT
BRANCH  11  22
ATOM     22  C   UNL     1       0.961  10.012  18.377  0.00  0.00    +0.000 C 
ATOM     23  N   UNL     1       1.856   9.847  17.656  0.00  0.00    +0.000 NA
ENDBRANCH  11  22
BRANCH   1  24
ATOM     24  O   UNL     1       2.082  18.008  17.835  0.00  0.00    +0.000 OA
BRANCH  24  26
ATOM     25  C   UNL     1       0.451  18.565  16.117  0.00  0.00    +0.000 C 
ATOM     26  C   UNL     1       1.860  18.089  16.417  0.00  0.00    +0.000 C 
ENDBRANCH  24  26
ENDBRANCH   1  24
TORSDOF 3
ENDMDL
MODEL 4
REMARK VINA RESULT:      -5.7      8.559     10.327
REMARK  Name = 
REMARK  4 active torsions:
REMARK  status: ('A' for Active; 'I' for Inactive)
REMARK    1  A    between atoms: C_1  and  C_2
REMARK    2  A    between atoms: C_2  and  O_3
REMARK    3  A    between atoms: O_3  and  C_4
REMARK    4  A    between atoms: C_14  and  C_15
REMARK                            x       y       z     vdW  Elec       q    Type
REMARK                         _______ _______ _______ _____ _____    ______ ____
ROOT
ATOM      1  C   UNL     1       6.190  12.685  26.912  0.00  0.00    +0.000 C 
ATOM      2  O   UNL     1       6.824  12.487  27.940  0.00  0.00    +0.000 OA
ATOM      3  N   UNL     1       6.764  12.798  25.661  0.00  0.00    +0.000 N 
ATOM      4  C   UNL     1       8.210  12.676  25.466  0.00  0.00    +0.000 C 
ATOM      5  C   UNL     1       8.571  11.763  24.264  0.00  0.00    +0.000 C 
ATOM      6  N   UNL     1       7.789  12.096  23.046  0.00  0.00    +0.000 N 
ATOM      7  C   UNL     1       8.254  12.968  22.082  0.00  0.00    +0.000 C 
ATOM      8  N   UNL     1       7.485  13.915  21.652  0.00  0.00    +0.000 NA
ATOM      9  C   UNL     1       7.920  14.747  20.649  0.00  0.00    +0.000 C 
ATOM     10  O   UNL     1       7.143  15.464  20.019  0.00  0.00    +0.000 OA
ATOM     11  C   UNL     1       9.385  14.775  20.336  0.00  0.00    +0.000 C 
ATOM     12  C   UNL     1       9.882  13.310  20.289  0.00  0.00    +0.000 C 
ATOM     13  C   UNL     1       9.183  12.535  19.128  0.00  0.00    +0.000 C 
ATOM     14  C   UNL     1       9.844  11.203  18.771  0.00  0.00    +0.000 C 
ATOM     15  C   UNL     1      11.303  11.406  18.405  0.00  0.00    +0.000 C 
ATOM     16  C   UNL     1      12.052  12.016  19.577  0.00  0.00    +0.000 C 
ATOM     17  C   UNL     1      11.419  13.322  20.058  0.00  0.00    +0.000 C 
ATOM     18  N   UNL     1       9.505  12.698  21.578  0.00  0.00    +0.000 N 
ATOM     19  C   UNL     1       6.327  12.133  23.339  0.00  0.00    +0.000 C 
ATOM     20  C   UNL     1       6.016  13.148  24.453  0.00  0.00    +0.000 C 
ATOM     21  H   UNL     1       9.857  11.764  21.760  0.00  0.00    +0.000 HD
ENDROOT
BRANCH  11  22
ATOM     22  C   UNL     1      10.056  15.591  21.359  0.00  0.00    +0.000 C 
ATOM     23  N   UNL     1      10.561  16.219  22.195  0.00  0.00    +0.000 NA
ENDBRANCH  11  22
BRANCH   1  24
ATOM     24  O   UNL     1       4.834  12.782  26.866  0.00  0.00    +0.000 OA
BRANCH  24  26
ATOM     25  C   UNL     1       4.147  10.455  27.059  0.00  0.00    +0.000 C 
ATOM     26  C   UNL     1       4.079  11.849  27.657  0.00  0.00    +0.000 C 
ENDBRANCH  24  26
ENDBRANCH   1  24
TORSDOF 3
ENDMDL
MODEL 5
REMARK VINA RESULT:      -5.6      5.386      8.539
REMARK  Name = 
REMARK  4 active torsions:
REMARK  status: ('A' for Active; 'I' for Inactive)
REMARK    1  A    between atoms: C_1  and  C_2
REMARK    2  A    between atoms: C_2  and  O_3
REMARK    3  A    between atoms: O_3  and  C_4
REMARK    4  A    between atoms: C_14  and  C_15
REMARK                            x       y       z     vdW  Elec       q    Type
REMARK                         _______ _______ _______ _____ _____    ______ ____
ROOT
ATOM      1  C   UNL     1       5.462  15.167  19.664  0.00  0.00    +0.000 C 
ATOM      2  O   UNL     1       6.196  15.570  20.557  0.00  0.00    +0.000 OA
ATOM      3  N   UNL     1       4.239  14.564  19.882  0.00  0.00    +0.000 N 
ATOM      4  C   UNL     1       3.711  14.366  21.234  0.00  0.00    +0.000 C 
ATOM      5  C   UNL     1       2.218  14.771  21.352  0.00  0.00    +0.000 C 
ATOM      6  N   UNL     1       1.390  14.208  20.256  0.00  0.00    +0.000 N 
ATOM      7  C   UNL     1       0.718  13.007  20.376  0.00  0.00    +0.000 C 
ATOM      8  N   UNL     1       0.823  12.120  19.440  0.00  0.00    +0.000 NA
ATOM      9  C   UNL     1       0.107  10.950  19.525  0.00  0.00    +0.000 C 
ATOM     10  O   UNL     1      -0.050  10.215  18.551  0.00  0.00    +0.000 OA
ATOM     11  C   UNL     1      -0.479  10.572  20.851  0.00  0.00    +0.000 C 
ATOM     12  C   UNL     1      -1.143  11.836  21.447  0.00  0.00    +0.000 C 
ATOM     13  C   UNL     1      -2.325  12.310  20.544  0.00  0.00    +0.000 C 
ATOM     14  C   UNL     1      -3.259  13.323  21.206  0.00  0.00    +0.000 C 
ATOM     15  C   UNL     1      -3.832  12.766  22.497  0.00  0.00    +0.000 C 
ATOM     16  C   UNL     1      -2.707  12.442  23.466  0.00  0.00    +0.000 C 
ATOM     17  C   UNL     1      -1.675  11.487  22.865  0.00  0.00    +0.000 C 
ATOM     18  N   UNL     1      -0.101  12.883  21.472  0.00  0.00    +0.000 N 
ATOM     19  C   UNL     1       1.981  14.518  18.921  0.00  0.00    +0.000 C 
ATOM     20  C   UNL     1       3.420  13.981  18.819  0.00  0.00    +0.000 C 
ATOM     21  H   UNL     1      -0.339  13.751  21.941  0.00  0.00    +0.000 HD
ENDROOT
BRANCH  11  22
ATOM     22  C   UNL     1       0.598  10.022  21.688  0.00  0.00    +0.000 C 
ATOM     23  N   UNL     1       1.444   9.620  22.373  0.00  0.00    +0.000 NA
ENDBRANCH  11  22
BRANCH   1  24
ATOM     24  O   UNL     1       5.742  15.296  18.339  0.00  0.00    +0.000 OA
BRANCH  24  26
ATOM     25  C   UNL     1       7.318  13.642  17.500  0.00  0.00    +0.000 C 
ATOM     26  C   UNL     1       7.103  15.082  17.929  0.00  0.00    +0.000 C 
ENDBRANCH  24  26
ENDBRANCH   1  24
TORSDOF 3
ENDMDL
MODEL 6
REMARK VINA RESULT:      -5.4      4.934     10.327
REMARK  Name = 
REMARK  4 active torsions:
REMARK  status: ('A' for Active; 'I' for Inactive)
REMARK    1  A    between atoms: C_1  and  C_2
REMARK    2  A    between atoms: C_2  and  O_3
REMARK    3  A    between atoms: O_3  and  C_4
REMARK    4  A    between atoms: C_14  and  C_15
REMARK                            x       y       z     vdW  Elec       q    Type
REMARK                         _______ _______ _______ _____ _____    ______ ____
ROOT
ATOM      1  C   UNL     1       0.322  10.847  20.604  0.00  0.00    +0.000 C 
ATOM      2  O   UNL     1       0.977  11.478  21.422  0.00  0.00    +0.000 OA
ATOM      3  N   UNL     1      -0.955  11.191  20.206  0.00  0.00    +0.000 N 
ATOM      4  C   UNL     1      -1.633  12.374  20.741  0.00  0.00    +0.000 C 
ATOM      5  C   UNL     1      -2.320  13.214  19.632  0.00  0.00    +0.000 C 
ATOM      6  N   UNL     1      -3.129  12.379  18.708  0.00  0.00    +0.000 N 
ATOM      7  C   UNL     1      -4.479  12.158  18.898  0.00  0.00    +0.000 C 
ATOM      8  N   UNL     1      -4.943  10.952  18.836  0.00  0.00    +0.000 NA
ATOM      9  C   UNL     1      -6.294  10.733  18.963  0.00  0.00    +0.000 C 
ATOM     10  O   UNL     1      -6.811   9.665  18.634  0.00  0.00    +0.000 OA
ATOM     11  C   UNL     1      -7.141  11.831  19.528  0.00  0.00    +0.000 C 
ATOM     12  C   UNL     1      -6.713  13.152  18.844  0.00  0.00    +0.000 C 
ATOM     13  C   UNL     1      -7.006  13.093  17.312  0.00  0.00    +0.000 C 
ATOM     14  C   UNL     1      -6.950  14.448  16.605  0.00  0.00    +0.000 C 
ATOM     15  C   UNL     1      -7.916  15.429  17.244  0.00  0.00    +0.000 C 
ATOM     16  C   UNL     1      -7.559  15.633  18.707  0.00  0.00    +0.000 C 
ATOM     17  C   UNL     1      -7.516  14.318  19.485  0.00  0.00    +0.000 C 
ATOM     18  N   UNL     1      -5.257  13.280  19.056  0.00  0.00    +0.000 N 
ATOM     19  C   UNL     1      -2.328  11.239  18.172  0.00  0.00    +0.000 C 
ATOM     20  C   UNL     1      -1.777  10.370  19.316  0.00  0.00    +0.000 C 
ATOM     21  H   UNL     1      -4.829  14.153  18.765  0.00  0.00    +0.000 HD
ENDROOT
BRANCH  11  22
ATOM     22  C   UNL     1      -6.965  11.841  20.988  0.00  0.00    +0.000 C 
ATOM     23  N   UNL     1      -6.823  11.808  22.140  0.00  0.00    +0.000 NA
ENDBRANCH  11  22
BRANCH   1  24
ATOM     24  O   UNL     1       0.783   9.744  19.953  0.00  0.00    +0.000 OA
BRANCH  24  26
ATOM     25  C   UNL     1       0.060   8.220  21.707  0.00  0.00    +0.000 C 
ATOM     26  C   UNL     1       1.175   8.620  20.758  0.00  0.00    +0.000 C 
ENDBRANCH  24  26
ENDBRANCH   1  24
TORSDOF 3
ENDMDL
MODEL 7
REMARK VINA RESULT:      -5.3      5.897      8.190
REMARK  Name = 
REMARK  4 active torsions:
REMARK  status: ('A' for Active; 'I' for Inactive)
REMARK    1  A    between atoms: C_1  and  C_2
REMARK    2  A    between atoms: C_2  and  O_3
REMARK    3  A    between atoms: O_3  and  C_4
REMARK    4  A    between atoms: C_14  and  C_15
REMARK                            x       y       z     vdW  Elec       q    Type
REMARK                         _______ _______ _______ _____ _____    ______ ____
ROOT
ATOM      1  C   UNL     1       3.857  17.081  20.086  0.00  0.00    +0.000 C 
ATOM      2  O   UNL     1       3.509  18.252  20.017  0.00  0.00    +0.000 OA
ATOM      3  N   UNL     1       2.986  16.011  20.017  0.00  0.00    +0.000 N 
ATOM      4  C   UNL     1       1.545  16.205  19.839  0.00  0.00    +0.000 C 
ATOM      5  C   UNL     1       0.949  15.257  18.765  0.00  0.00    +0.000 C 
ATOM      6  N   UNL     1       1.385  13.850  18.946  0.00  0.00    +0.000 N 
ATOM      7  C   UNL     1       0.649  12.932  19.669  0.00  0.00    +0.000 C 
ATOM      8  N   UNL     1       1.236  12.206  20.565  0.00  0.00    +0.000 NA
ATOM      9  C   UNL     1       0.521  11.249  21.243  0.00  0.00    +0.000 C 
ATOM     10  O   UNL     1       1.078  10.358  21.884  0.00  0.00    +0.000 OA
ATOM     11  C   UNL     1      -0.975  11.315  21.199  0.00  0.00    +0.000 C 
ATOM     12  C   UNL     1      -1.387  11.580  19.731  0.00  0.00    +0.000 C 
ATOM     13  C   UNL     1      -0.957  10.388  18.819  0.00  0.00    +0.000 C 
ATOM     14  C   UNL     1      -1.612  10.380  17.438  0.00  0.00    +0.000 C 
ATOM     15  C   UNL     1      -3.125  10.371  17.559  0.00  0.00    +0.000 C 
ATOM     16  C   UNL     1      -3.593  11.609  18.307  0.00  0.00    +0.000 C 
ATOM     17  C   UNL     1      -2.932  11.745  19.679  0.00  0.00    +0.000 C 
ATOM     18  N   UNL     1      -0.670  12.799  19.307  0.00  0.00    +0.000 N 
ATOM     19  C   UNL     1       2.871  13.757  19.053  0.00  0.00    +0.000 C 
ATOM     20  C   UNL     1       3.392  14.619  20.216  0.00  0.00    +0.000 C 
ATOM     21  H   UNL     1      -0.915  13.180  18.399  0.00  0.00    +0.000 HD
ENDROOT
BRANCH  11  22
ATOM     22  C   UNL     1      -1.415  12.363  22.131  0.00  0.00    +0.000 C 
ATOM     23  N   UNL     1      -1.800  13.187  22.854  0.00  0.00    +0.000 NA
ENDBRANCH  11  22
BRANCH   1  24
ATOM     24  O   UNL     1       5.153  16.681  20.204  0.00  0.00    +0.000 OA
BRANCH  24  26
ATOM     25  C   UNL     1       6.784  15.856  18.599  0.00  0.00    +0.000 C 
ATOM     26  C   UNL     1       6.059  17.067  19.158  0.00  0.00    +0.000 C 
ENDBRANCH  24  26
ENDBRANCH   1  24
TORSDOF 3
ENDMDL
MODEL 8
REMARK VINA RESULT:      -5.3      4.877     10.312
REMARK  Name = 
REMARK  4 active torsions:
REMARK  status: ('A' for Active; 'I' for Inactive)
REMARK    1  A    between atoms: C_1  and  C_2
REMARK    2  A    between atoms: C_2  and  O_3
REMARK    3  A    between atoms: O_3  and  C_4
REMARK    4  A    between atoms: C_14  and  C_15
REMARK                            x       y       z     vdW  Elec       q    Type
REMARK                         _______ _______ _______ _____ _____    ______ ____
ROOT
ATOM      1  C   UNL     1       0.303  10.234  20.022  0.00  0.00    +0.000 C 
ATOM      2  O   UNL     1       1.076  10.795  20.787  0.00  0.00    +0.000 OA
ATOM      3  N   UNL     1      -0.964  10.699  19.725  0.00  0.00    +0.000 N 
ATOM      4  C   UNL     1      -1.484  11.936  20.311  0.00  0.00    +0.000 C 
ATOM      5  C   UNL     1      -2.174  12.845  19.259  0.00  0.00    +0.000 C 
ATOM      6  N   UNL     1      -3.126  12.095  18.402  0.00  0.00    +0.000 N 
ATOM      7  C   UNL     1      -4.472  12.000  18.697  0.00  0.00    +0.000 C 
ATOM      8  N   UNL     1      -5.051  10.843  18.672  0.00  0.00    +0.000 NA
ATOM      9  C   UNL     1      -6.402  10.751  18.904  0.00  0.00    +0.000 C 
ATOM     10  O   UNL     1      -7.041   9.739  18.617  0.00  0.00    +0.000 OA
ATOM     11  C   UNL     1      -7.096  11.920  19.533  0.00  0.00    +0.000 C 
ATOM     12  C   UNL     1      -6.600  13.199  18.817  0.00  0.00    +0.000 C 
ATOM     13  C   UNL     1      -7.016  13.179  17.313  0.00  0.00    +0.000 C 
ATOM     14  C   UNL     1      -6.888  14.528  16.604  0.00  0.00    +0.000 C 
ATOM     15  C   UNL     1      -7.706  15.590  17.315  0.00  0.00    +0.000 C 
ATOM     16  C   UNL     1      -7.218  15.750  18.746  0.00  0.00    +0.000 C 
ATOM     17  C   UNL     1      -7.238  14.431  19.519  0.00  0.00    +0.000 C 
ATOM     18  N   UNL     1      -5.127  13.189  18.915  0.00  0.00    +0.000 N 
ATOM     19  C   UNL     1      -2.480  10.890  17.805  0.00  0.00    +0.000 C 
ATOM     20  C   UNL     1      -1.926   9.965  18.903  0.00  0.00    +0.000 C 
ATOM     21  H   UNL     1      -4.643  14.020  18.591  0.00  0.00    +0.000 HD
ENDROOT
BRANCH  11  22
ATOM     22  C   UNL     1      -6.806  11.902  20.975  0.00  0.00    +0.000 C 
ATOM     23  N   UNL     1      -6.610  11.865  22.119  0.00  0.00    +0.000 NA
ENDBRANCH  11  22
BRANCH   1  24
ATOM     24  O   UNL     1       0.606   9.098  19.338  0.00  0.00    +0.000 OA
BRANCH  24  26
ATOM     25  C   UNL     1       2.227   8.232  17.743  0.00  0.00    +0.000 C 
ATOM     26  C   UNL     1       1.998   8.805  19.130  0.00  0.00    +0.000 C 
ENDBRANCH  24  26
ENDBRANCH   1  24
TORSDOF 3
ENDMDL
MODEL 9
REMARK VINA RESULT:      -5.3      3.622      9.894
REMARK  Name = 
REMARK  4 active torsions:
REMARK  status: ('A' for Active; 'I' for Inactive)
REMARK    1  A    between atoms: C_1  and  C_2
REMARK    2  A    between atoms: C_2  and  O_3
REMARK    3  A    between atoms: O_3  and  C_4
REMARK    4  A    between atoms: C_14  and  C_15
REMARK                            x       y       z     vdW  Elec       q    Type
REMARK                         _______ _______ _______ _____ _____    ______ ____
ROOT
ATOM      1  C   UNL     1       1.722  10.317  18.142  0.00  0.00    +0.000 C 
ATOM      2  O   UNL     1       2.691  10.818  17.588  0.00  0.00    +0.000 OA
ATOM      3  N   UNL     1       0.729  11.044  18.769  0.00  0.00    +0.000 N 
ATOM      4  C   UNL     1       0.759  12.508  18.809  0.00  0.00    +0.000 C 
ATOM      5  C   UNL     1      -0.617  13.137  18.465  0.00  0.00    +0.000 C 
ATOM      6  N   UNL     1      -1.733  12.501  19.211  0.00  0.00    +0.000 N 
ATOM      7  C   UNL     1      -2.195  12.993  20.415  0.00  0.00    +0.000 C 
ATOM      8  N   UNL     1      -2.359  12.188  21.414  0.00  0.00    +0.000 NA
ATOM      9  C   UNL     1      -2.877  12.661  22.595  0.00  0.00    +0.000 C 
ATOM     10  O   UNL     1      -3.311  11.902  23.462  0.00  0.00    +0.000 OA
ATOM     11  C   UNL     1      -2.894  14.142  22.820  0.00  0.00    +0.000 C 
ATOM     12  C   UNL     1      -3.409  14.806  21.521  0.00  0.00    +0.000 C 
ATOM     13  C   UNL     1      -4.880  14.372  21.231  0.00  0.00    +0.000 C 
ATOM     14  C   UNL     1      -5.596  15.226  20.185  0.00  0.00    +0.000 C 
ATOM     15  C   UNL     1      -5.596  16.689  20.591  0.00  0.00    +0.000 C 
ATOM     16  C   UNL     1      -4.168  17.190  20.726  0.00  0.00    +0.000 C 
ATOM     17  C   UNL     1      -3.345  16.349  21.702  0.00  0.00    +0.000 C 
ATOM     18  N   UNL     1      -2.537  14.325  20.431  0.00  0.00    +0.000 N 
ATOM     19  C   UNL     1      -1.708  11.018  19.054  0.00  0.00    +0.000 C 
ATOM     20  C   UNL     1      -0.364  10.438  19.529  0.00  0.00    +0.000 C 
ATOM     21  H   UNL     1      -2.666  14.753  19.520  0.00  0.00    +0.000 HD
ENDROOT
BRANCH  11  22
ATOM     22  C   UNL     1      -1.537  14.563  23.199  0.00  0.00    +0.000 C 
ATOM     23  N   UNL     1      -0.482  14.919  23.527  0.00  0.00    +0.000 NA
ENDBRANCH  11  22
BRANCH   1  24
ATOM     24  O   UNL     1       1.480   8.979  18.179  0.00  0.00    +0.000 OA
BRANCH  24  26
ATOM     25  C   UNL     1       2.605   6.887  18.708  0.00  0.00    +0.000 C 
ATOM     26  C   UNL     1       2.556   8.103  17.802  0.00  0.00    +0.000 C 
ENDBRANCH  24  26
ENDBRANCH   1  24
TORSDOF 3
ENDMDL
