MODEL 1
REMARK VINA RESULT:      -7.9      0.000      0.000
REMARK  Name = 
REMARK  12 active torsions:
REMARK  status: ('A' for Active; 'I' for Inactive)
REMARK    1  A    between atoms: C_1  and  C_2
REMARK    2  A    between atoms: C_5  and  N_6
REMARK    3  A    between atoms: N_6  and  S_7
REMARK    4  A    between atoms: S_7  and  C_10
REMARK    5  A    between atoms: C_15  and  C_16
REMARK    6  A    between atoms: C_19  and  C_20
REMARK    7  A    between atoms: C_20  and  C_21
REMARK    8  A    between atoms: C_21  and  C_22
REMARK    9  A    between atoms: C_21  and  C_23
REMARK   10  A    between atoms: C_25  and  C_26
REMARK   11  A    between atoms: C_26  and  O_27
REMARK   12  A    between atoms: C_28  and  C_29
REMARK                            x       y       z     vdW  Elec       q    Type
REMARK                         _______ _______ _______ _____ _____    ______ ____
ROOT
ATOM      1  C   UNL     1       5.268   5.329  16.902  0.00  0.00    +0.000 A 
ATOM      2  C   UNL     1       4.776   4.183  16.235  0.00  0.00    +0.000 A 
ATOM      3  C   UNL     1       5.492   3.582  15.210  0.00  0.00    +0.000 A 
ATOM      4  C   UNL     1       6.682   4.147  14.799  0.00  0.00    +0.000 A 
ATOM      5  C   UNL     1       7.172   5.288  15.446  0.00  0.00    +0.000 A 
ATOM      6  C   UNL     1       6.548   5.871  16.576  0.00  0.00    +0.000 A 
ENDROOT
BRANCH   6   7
ATOM      7  C   UNL     1       7.312   6.928  17.341  0.00  0.00    +0.000 A 
ATOM      8  C   UNL     1       7.417   8.242  16.842  0.00  0.00    +0.000 A 
ATOM      9  C   UNL     1       8.010   9.295  17.553  0.00  0.00    +0.000 A 
ATOM     10  C   UNL     1       8.607   9.065  18.783  0.00  0.00    +0.000 A 
ATOM     11  C   UNL     1       8.590   7.765  19.280  0.00  0.00    +0.000 A 
ATOM     12  C   UNL     1       7.979   6.690  18.588  0.00  0.00    +0.000 A 
BRANCH  10  13
ATOM     13  C   UNL     1       9.307  10.174  19.532  0.00  0.00    +0.000 C 
BRANCH  13  14
ATOM     14  C   UNL     1       9.487  11.464  18.704  0.00  0.00    +0.000 C 
ATOM     15  C   UNL     1       9.210  12.728  19.523  0.00  0.00    +0.000 C 
ATOM     16  C   UNL     1      10.903  11.522  18.128  0.00  0.00    +0.000 C 
ENDBRANCH  13  14
ENDBRANCH  10  13
BRANCH  12  17
ATOM     17  C   UNL     1       8.212   5.307  19.177  0.00  0.00    +0.000 C 
BRANCH  17  18
ATOM     18  O   UNL     1       8.033   5.257  20.592  0.00  0.00    +0.000 OA
ATOM     19  H   UNL     1       8.380   6.091  20.951  0.00  0.00    +0.000 HD
ENDBRANCH  17  18
ENDBRANCH  12  17
ENDBRANCH   6   7
BRANCH   1  20
ATOM     20  S   UNL     1       4.159   6.080  18.087  0.00  0.00    +0.000 S 
ATOM     21  O   UNL     1       4.010   7.486  17.759  0.00  0.00    +0.000 OA
ATOM     22  O   UNL     1       4.564   5.649  19.409  0.00  0.00    +0.000 OA
BRANCH  20  23
ATOM     23  N   UNL     1       2.622   5.358  17.871  0.00  0.00    +0.000 N 
ATOM     24  H   UNL     1       2.583   5.093  16.887  0.00  0.00    +0.000 HD
BRANCH  23  29
ATOM     25  C   UNL     1       1.409   2.545  21.862  0.00  0.00    +0.000 C 
ATOM     26  C   UNL     1       1.872   3.063  20.555  0.00  0.00    +0.000 A 
ATOM     27  N   UNL     1       2.327   2.218  19.622  0.00  0.00    +0.000 NA
ATOM     28  O   UNL     1       2.618   2.996  18.524  0.00  0.00    +0.000 OA
ATOM     29  C   UNL     1       2.377   4.306  18.804  0.00  0.00    +0.000 A 
ATOM     30  C   UNL     1       1.898   4.413  20.092  0.00  0.00    +0.000 A 
ATOM     31  C   UNL     1       1.413   5.608  20.819  0.00  0.00    +0.000 C 
ENDBRANCH  23  29
ENDBRANCH  20  23
ENDBRANCH   1  20
TORSDOF 8
ENDMDL
MODEL 2
REMARK VINA RESULT:      -7.8      0.939      1.157
REMARK  Name = 
REMARK  12 active torsions:
REMARK  status: ('A' for Active; 'I' for Inactive)
REMARK    1  A    between atoms: C_1  and  C_2
REMARK    2  A    between atoms: C_5  and  N_6
REMARK    3  A    between atoms: N_6  and  S_7
REMARK    4  A    between atoms: S_7  and  C_10
REMARK    5  A    between atoms: C_15  and  C_16
REMARK    6  A    between atoms: C_19  and  C_20
REMARK    7  A    between atoms: C_20  and  C_21
REMARK    8  A    between atoms: C_21  and  C_22
REMARK    9  A    between atoms: C_21  and  C_23
REMARK   10  A    between atoms: C_25  and  C_26
REMARK   11  A    between atoms: C_26  and  O_27
REMARK   12  A    between atoms: C_28  and  C_29
REMARK                            x       y       z     vdW  Elec       q    Type
REMARK                         _______ _______ _______ _____ _____    ______ ____
ROOT
ATOM      1  C   UNL     1       5.308   5.320  16.833  0.00  0.00    +0.000 A 
ATOM      2  C   UNL     1       4.825   4.167  16.172  0.00  0.00    +0.000 A 
ATOM      3  C   UNL     1       5.563   3.543  15.177  0.00  0.00    +0.000 A 
ATOM      4  C   UNL     1       6.769   4.093  14.789  0.00  0.00    +0.000 A 
ATOM      5  C   UNL     1       7.251   5.240  15.431  0.00  0.00    +0.000 A 
ATOM      6  C   UNL     1       6.601   5.846  16.533  0.00  0.00    +0.000 A 
ENDROOT
BRANCH   6   7
ATOM      7  C   UNL     1       7.352   6.911  17.302  0.00  0.00    +0.000 A 
ATOM      8  C   UNL     1       7.482   8.215  16.783  0.00  0.00    +0.000 A 
ATOM      9  C   UNL     1       8.064   9.275  17.493  0.00  0.00    +0.000 A 
ATOM     10  C   UNL     1       8.624   9.062  18.743  0.00  0.00    +0.000 A 
ATOM     11  C   UNL     1       8.582   7.771  19.261  0.00  0.00    +0.000 A 
ATOM     12  C   UNL     1       7.981   6.689  18.570  0.00  0.00    +0.000 A 
BRANCH  10  13
ATOM     13  C   UNL     1       9.312  10.177  19.492  0.00  0.00    +0.000 C 
BRANCH  13  14
ATOM     14  C   UNL     1       9.578  11.430  18.631  0.00  0.00    +0.000 C 
ATOM     15  C   UNL     1       9.162  12.724  19.337  0.00  0.00    +0.000 C 
ATOM     16  C   UNL     1      11.059  11.501  18.255  0.00  0.00    +0.000 C 
ENDBRANCH  13  14
ENDBRANCH  10  13
BRANCH  12  17
ATOM     17  C   UNL     1       8.187   5.314  19.189  0.00  0.00    +0.000 C 
BRANCH  17  18
ATOM     18  O   UNL     1       8.099   5.317  20.614  0.00  0.00    +0.000 OA
ATOM     19  H   UNL     1       9.005   5.217  20.953  0.00  0.00    +0.000 HD
ENDBRANCH  17  18
ENDBRANCH  12  17
ENDBRANCH   6   7
BRANCH   1  20
ATOM     20  S   UNL     1       4.172   6.099  17.974  0.00  0.00    +0.000 S 
ATOM     21  O   UNL     1       3.936   7.462  17.537  0.00  0.00    +0.000 OA
ATOM     22  O   UNL     1       4.622   5.802  19.319  0.00  0.00    +0.000 OA
BRANCH  20  23
ATOM     23  N   UNL     1       2.679   5.273  17.847  0.00  0.00    +0.000 N 
ATOM     24  H   UNL     1       2.807   4.595  17.096  0.00  0.00    +0.000 HD
BRANCH  23  29
ATOM     25  C   UNL     1       1.447   2.345  21.747  0.00  0.00    +0.000 C 
ATOM     26  C   UNL     1       1.676   3.462  20.805  0.00  0.00    +0.000 A 
ATOM     27  N   UNL     1       1.384   4.716  21.167  0.00  0.00    +0.000 NA
ATOM     28  O   UNL     1       1.761   5.509  20.107  0.00  0.00    +0.000 OA
ATOM     29  C   UNL     1       2.244   4.737  19.095  0.00  0.00    +0.000 A 
ATOM     30  C   UNL     1       2.214   3.414  19.483  0.00  0.00    +0.000 A 
ATOM     31  C   UNL     1       2.711   2.214  18.772  0.00  0.00    +0.000 C 
ENDBRANCH  23  29
ENDBRANCH  20  23
ENDBRANCH   1  20
TORSDOF 8
ENDMDL
MODEL 3
REMARK VINA RESULT:      -7.5      3.782      6.513
REMARK  Name = 
REMARK  12 active torsions:
REMARK  status: ('A' for Active; 'I' for Inactive)
REMARK    1  A    between atoms: C_1  and  C_2
REMARK    2  A    between atoms: C_5  and  N_6
REMARK    3  A    between atoms: N_6  and  S_7
REMARK    4  A    between atoms: S_7  and  C_10
REMARK    5  A    between atoms: C_15  and  C_16
REMARK    6  A    between atoms: C_19  and  C_20
REMARK    7  A    between atoms: C_20  and  C_21
REMARK    8  A    between atoms: C_21  and  C_22
REMARK    9  A    between atoms: C_21  and  C_23
REMARK   10  A    between atoms: C_25  and  C_26
REMARK   11  A    between atoms: C_26  and  O_27
REMARK   12  A    between atoms: C_28  and  C_29
REMARK                            x       y       z     vdW  Elec       q    Type
REMARK                         _______ _______ _______ _____ _____    ______ ____
ROOT
ATOM      1  C   UNL     1       4.001   4.090  18.307  0.00  0.00    +0.000 A 
ATOM      2  C   UNL     1       4.116   2.723  17.966  0.00  0.00    +0.000 A 
ATOM      3  C   UNL     1       2.997   1.912  17.844  0.00  0.00    +0.000 A 
ATOM      4  C   UNL     1       1.750   2.442  18.114  0.00  0.00    +0.000 A 
ATOM      5  C   UNL     1       1.627   3.792  18.462  0.00  0.00    +0.000 A 
ATOM      6  C   UNL     1       2.719   4.694  18.482  0.00  0.00    +0.000 A 
ENDROOT
BRANCH   6   7
ATOM      7  C   UNL     1       2.417   6.171  18.611  0.00  0.00    +0.000 A 
ATOM      8  C   UNL     1       2.725   7.062  17.565  0.00  0.00    +0.000 A 
ATOM      9  C   UNL     1       2.369   8.418  17.573  0.00  0.00    +0.000 A 
ATOM     10  C   UNL     1       1.748   8.976  18.679  0.00  0.00    +0.000 A 
ATOM     11  C   UNL     1       1.490   8.146  19.767  0.00  0.00    +0.000 A 
ATOM     12  C   UNL     1       1.823   6.768  19.772  0.00  0.00    +0.000 A 
BRANCH  10  13
ATOM     13  C   UNL     1       1.416  10.448  18.731  0.00  0.00    +0.000 C 
BRANCH  13  14
ATOM     14  C   UNL     1       0.003  10.746  19.275  0.00  0.00    +0.000 C 
ATOM     15  C   UNL     1      -0.152  12.197  19.739  0.00  0.00    +0.000 C 
ATOM     16  C   UNL     1      -1.045  10.431  18.205  0.00  0.00    +0.000 C 
ENDBRANCH  13  14
ENDBRANCH  10  13
BRANCH  12  17
ATOM     17  C   UNL     1       1.646   6.050  21.102  0.00  0.00    +0.000 C 
BRANCH  17  18
ATOM     18  O   UNL     1       2.728   5.173  21.419  0.00  0.00    +0.000 OA
ATOM     19  H   UNL     1       3.444   5.725  21.776  0.00  0.00    +0.000 HD
ENDBRANCH  17  18
ENDBRANCH  12  17
ENDBRANCH   6   7
BRANCH   1  20
ATOM     20  S   UNL     1       5.540   4.960  18.583  0.00  0.00    +0.000 S 
ATOM     21  O   UNL     1       6.640   4.045  18.344  0.00  0.00    +0.000 OA
ATOM     22  O   UNL     1       5.418   5.690  19.828  0.00  0.00    +0.000 OA
BRANCH  20  23
ATOM     23  N   UNL     1       5.649   6.186  17.394  0.00  0.00    +0.000 N 
ATOM     24  H   UNL     1       6.107   6.971  17.856  0.00  0.00    +0.000 HD
BRANCH  23  29
ATOM     25  C   UNL     1       6.792   4.026  12.997  0.00  0.00    +0.000 C 
ATOM     26  C   UNL     1       6.793   4.768  14.278  0.00  0.00    +0.000 A 
ATOM     27  N   UNL     1       7.883   5.441  14.662  0.00  0.00    +0.000 NA
ATOM     28  O   UNL     1       7.543   6.057  15.846  0.00  0.00    +0.000 OA
ATOM     29  C   UNL     1       6.270   5.729  16.194  0.00  0.00    +0.000 A 
ATOM     30  C   UNL     1       5.736   4.903  15.228  0.00  0.00    +0.000 A 
ATOM     31  C   UNL     1       4.365   4.356  15.111  0.00  0.00    +0.000 C 
ENDBRANCH  23  29
ENDBRANCH  20  23
ENDBRANCH   1  20
TORSDOF 8
ENDMDL
MODEL 4
REMARK VINA RESULT:      -7.4      0.927      1.050
REMARK  Name = 
REMARK  12 active torsions:
REMARK  status: ('A' for Active; 'I' for Inactive)
REMARK    1  A    between atoms: C_1  and  C_2
REMARK    2  A    between atoms: C_5  and  N_6
REMARK    3  A    between atoms: N_6  and  S_7
REMARK    4  A    between atoms: S_7  and  C_10
REMARK    5  A    between atoms: C_15  and  C_16
REMARK    6  A    between atoms: C_19  and  C_20
REMARK    7  A    between atoms: C_20  and  C_21
REMARK    8  A    between atoms: C_21  and  C_22
REMARK    9  A    between atoms: C_21  and  C_23
REMARK   10  A    between atoms: C_25  and  C_26
REMARK   11  A    between atoms: C_26  and  O_27
REMARK   12  A    between atoms: C_28  and  C_29
REMARK                            x       y       z     vdW  Elec       q    Type
REMARK                         _______ _______ _______ _____ _____    ______ ____
ROOT
ATOM      1  C   UNL     1       5.183   5.420  16.825  0.00  0.00    +0.000 A 
ATOM      2  C   UNL     1       4.674   4.255  16.207  0.00  0.00    +0.000 A 
ATOM      3  C   UNL     1       5.428   3.535  15.291  0.00  0.00    +0.000 A 
ATOM      4  C   UNL     1       6.680   3.998  14.939  0.00  0.00    +0.000 A 
ATOM      5  C   UNL     1       7.189   5.155  15.539  0.00  0.00    +0.000 A 
ATOM      6  C   UNL     1       6.517   5.860  16.568  0.00  0.00    +0.000 A 
ENDROOT
BRANCH   6   7
ATOM      7  C   UNL     1       7.284   6.930  17.314  0.00  0.00    +0.000 A 
ATOM      8  C   UNL     1       7.411   8.227  16.780  0.00  0.00    +0.000 A 
ATOM      9  C   UNL     1       8.008   9.293  17.469  0.00  0.00    +0.000 A 
ATOM     10  C   UNL     1       8.586   9.090  18.713  0.00  0.00    +0.000 A 
ATOM     11  C   UNL     1       8.547   7.804  19.246  0.00  0.00    +0.000 A 
ATOM     12  C   UNL     1       7.932   6.718  18.575  0.00  0.00    +0.000 A 
BRANCH  10  13
ATOM     13  C   UNL     1       9.290  10.210  19.440  0.00  0.00    +0.000 C 
BRANCH  13  14
ATOM     14  C   UNL     1       9.649  11.408  18.535  0.00  0.00    +0.000 C 
ATOM     15  C   UNL     1       9.129  12.737  19.090  0.00  0.00    +0.000 C 
ATOM     16  C   UNL     1      11.165  11.485  18.347  0.00  0.00    +0.000 C 
ENDBRANCH  13  14
ENDBRANCH  10  13
BRANCH  12  17
ATOM     17  C   UNL     1       8.141   5.349  19.205  0.00  0.00    +0.000 C 
BRANCH  17  18
ATOM     18  O   UNL     1       7.085   4.964  20.086  0.00  0.00    +0.000 OA
ATOM     19  H   UNL     1       7.359   4.134  20.510  0.00  0.00    +0.000 HD
ENDBRANCH  17  18
ENDBRANCH  12  17
ENDBRANCH   6   7
BRANCH   1  20
ATOM     20  S   UNL     1       4.034   6.324  17.856  0.00  0.00    +0.000 S 
ATOM     21  O   UNL     1       2.698   5.808  17.626  0.00  0.00    +0.000 OA
ATOM     22  O   UNL     1       4.337   7.734  17.725  0.00  0.00    +0.000 OA
BRANCH  20  23
ATOM     23  N   UNL     1       4.427   5.968  19.484  0.00  0.00    +0.000 N 
ATOM     24  H   UNL     1       4.217   6.819  20.006  0.00  0.00    +0.000 HD
BRANCH  23  29
ATOM     25  C   UNL     1       1.332   2.551  21.498  0.00  0.00    +0.000 C 
ATOM     26  C   UNL     1       2.451   3.275  20.855  0.00  0.00    +0.000 A 
ATOM     27  N   UNL     1       3.510   2.600  20.393  0.00  0.00    +0.000 NA
ATOM     28  O   UNL     1       4.329   3.542  19.811  0.00  0.00    +0.000 OA
ATOM     29  C   UNL     1       3.787   4.782  19.953  0.00  0.00    +0.000 A 
ATOM     30  C   UNL     1       2.582   4.677  20.615  0.00  0.00    +0.000 A 
ATOM     31  C   UNL     1       1.585   5.725  20.926  0.00  0.00    +0.000 C 
ENDBRANCH  23  29
ENDBRANCH  20  23
ENDBRANCH   1  20
TORSDOF 8
ENDMDL
MODEL 5
REMARK VINA RESULT:      -7.4      6.856      9.557
REMARK  Name = 
REMARK  12 active torsions:
REMARK  status: ('A' for Active; 'I' for Inactive)
REMARK    1  A    between atoms: C_1  and  C_2
REMARK    2  A    between atoms: C_5  and  N_6
REMARK    3  A    between atoms: N_6  and  S_7
REMARK    4  A    between atoms: S_7  and  C_10
REMARK    5  A    between atoms: C_15  and  C_16
REMARK    6  A    between atoms: C_19  and  C_20
REMARK    7  A    between atoms: C_20  and  C_21
REMARK    8  A    between atoms: C_21  and  C_22
REMARK    9  A    between atoms: C_21  and  C_23
REMARK   10  A    between atoms: C_25  and  C_26
REMARK   11  A    between atoms: C_26  and  O_27
REMARK   12  A    between atoms: C_28  and  C_29
REMARK                            x       y       z     vdW  Elec       q    Type
REMARK                         _______ _______ _______ _____ _____    ______ ____
ROOT
ATOM      1  C   UNL     1      -0.326  11.901  18.499  0.00  0.00    +0.000 A 
ATOM      2  C   UNL     1      -0.514  13.292  18.323  0.00  0.00    +0.000 A 
ATOM      3  C   UNL     1       0.474  14.202  18.667  0.00  0.00    +0.000 A 
ATOM      4  C   UNL     1       1.643  13.742  19.242  0.00  0.00    +0.000 A 
ATOM      5  C   UNL     1       1.833  12.368  19.429  0.00  0.00    +0.000 A 
ATOM      6  C   UNL     1       0.914  11.387  18.985  0.00  0.00    +0.000 A 
ENDROOT
BRANCH   6   7
ATOM      7  C   UNL     1       1.355   9.940  19.006  0.00  0.00    +0.000 A 
ATOM      8  C   UNL     1       1.898   9.337  17.854  0.00  0.00    +0.000 A 
ATOM      9  C   UNL     1       2.431   8.040  17.837  0.00  0.00    +0.000 A 
ATOM     10  C   UNL     1       2.373   7.241  18.968  0.00  0.00    +0.000 A 
ATOM     11  C   UNL     1       1.777   7.772  20.109  0.00  0.00    +0.000 A 
ATOM     12  C   UNL     1       1.251   9.088  20.154  0.00  0.00    +0.000 A 
BRANCH  10  13
ATOM     13  C   UNL     1       2.882   5.820  18.949  0.00  0.00    +0.000 C 
BRANCH  13  14
ATOM     14  C   UNL     1       1.810   4.783  18.552  0.00  0.00    +0.000 C 
ATOM     15  C   UNL     1       2.332   3.763  17.536  0.00  0.00    +0.000 C 
ATOM     16  C   UNL     1       1.300   4.056  19.797  0.00  0.00    +0.000 C 
ENDBRANCH  13  14
ENDBRANCH  10  13
BRANCH  12  17
ATOM     17  C   UNL     1       0.470   9.444  21.411  0.00  0.00    +0.000 C 
BRANCH  17  18
ATOM     18  O   UNL     1      -0.605   8.545  21.683  0.00  0.00    +0.000 OA
ATOM     19  H   UNL     1      -1.426   9.003  21.436  0.00  0.00    +0.000 HD
ENDBRANCH  17  18
ENDBRANCH  12  17
ENDBRANCH   6   7
BRANCH   1  20
ATOM     20  S   UNL     1      -1.749  10.871  18.160  0.00  0.00    +0.000 S 
ATOM     21  O   UNL     1      -2.096  10.146  19.367  0.00  0.00    +0.000 OA
ATOM     22  O   UNL     1      -1.512  10.187  16.906  0.00  0.00    +0.000 OA
BRANCH  20  23
ATOM     23  N   UNL     1      -3.061  11.917  17.817  0.00  0.00    +0.000 N 
ATOM     24  H   UNL     1      -3.498  11.537  16.978  0.00  0.00    +0.000 HD
BRANCH  23  29
ATOM     25  C   UNL     1      -6.906  12.016  21.059  0.00  0.00    +0.000 C 
ATOM     26  C   UNL     1      -5.610  12.166  20.362  0.00  0.00    +0.000 A 
ATOM     27  N   UNL     1      -4.578  12.750  20.981  0.00  0.00    +0.000 NA
ATOM     28  O   UNL     1      -3.524  12.682  20.098  0.00  0.00    +0.000 OA
ATOM     29  C   UNL     1      -3.925  12.094  18.938  0.00  0.00    +0.000 A 
ATOM     30  C   UNL     1      -5.254  11.741  19.046  0.00  0.00    +0.000 A 
ATOM     31  C   UNL     1      -6.111  11.002  18.092  0.00  0.00    +0.000 C 
ENDBRANCH  23  29
ENDBRANCH  20  23
ENDBRANCH   1  20
TORSDOF 8
ENDMDL
MODEL 6
REMARK VINA RESULT:      -7.1      6.902      9.298
REMARK  Name = 
REMARK  12 active torsions:
REMARK  status: ('A' for Active; 'I' for Inactive)
REMARK    1  A    between atoms: C_1  and  C_2
REMARK    2  A    between atoms: C_5  and  N_6
REMARK    3  A    between atoms: N_6  and  S_7
REMARK    4  A    between atoms: S_7  and  C_10
REMARK    5  A    between atoms: C_15  and  C_16
REMARK    6  A    between atoms: C_19  and  C_20
REMARK    7  A    between atoms: C_20  and  C_21
REMARK    8  A    between atoms: C_21  and  C_22
REMARK    9  A    between atoms: C_21  and  C_23
REMARK   10  A    between atoms: C_25  and  C_26
REMARK   11  A    between atoms: C_26  and  O_27
REMARK   12  A    between atoms: C_28  and  C_29
REMARK                            x       y       z     vdW  Elec       q    Type
REMARK                         _______ _______ _______ _____ _____    ______ ____
ROOT
ATOM      1  C   UNL     1      -0.412  11.934  18.506  0.00  0.00    +0.000 A 
ATOM      2  C   UNL     1      -0.598  13.326  18.338  0.00  0.00    +0.000 A 
ATOM      3  C   UNL     1       0.374  14.236  18.725  0.00  0.00    +0.000 A 
ATOM      4  C   UNL     1       1.524  13.774  19.335  0.00  0.00    +0.000 A 
ATOM      5  C   UNL     1       1.713  12.399  19.514  0.00  0.00    +0.000 A 
ATOM      6  C   UNL     1       0.813  11.419  19.029  0.00  0.00    +0.000 A 
ENDROOT
BRANCH   6   7
ATOM      7  C   UNL     1       1.258   9.973  19.050  0.00  0.00    +0.000 A 
ATOM      8  C   UNL     1       1.796   9.370  17.896  0.00  0.00    +0.000 A 
ATOM      9  C   UNL     1       2.332   8.075  17.878  0.00  0.00    +0.000 A 
ATOM     10  C   UNL     1       2.283   7.277  19.011  0.00  0.00    +0.000 A 
ATOM     11  C   UNL     1       1.693   7.809  20.155  0.00  0.00    +0.000 A 
ATOM     12  C   UNL     1       1.164   9.123  20.200  0.00  0.00    +0.000 A 
BRANCH  10  13
ATOM     13  C   UNL     1       2.797   5.858  18.992  0.00  0.00    +0.000 C 
BRANCH  13  14
ATOM     14  C   UNL     1       4.114   5.686  18.206  0.00  0.00    +0.000 C 
ATOM     15  C   UNL     1       5.303   5.374  19.119  0.00  0.00    +0.000 C 
ATOM     16  C   UNL     1       3.960   4.578  17.163  0.00  0.00    +0.000 C 
ENDBRANCH  13  14
ENDBRANCH  10  13
BRANCH  12  17
ATOM     17  C   UNL     1       0.390   9.480  21.461  0.00  0.00    +0.000 C 
BRANCH  17  18
ATOM     18  O   UNL     1       1.230   9.859  22.552  0.00  0.00    +0.000 OA
ATOM     19  H   UNL     1       2.133   9.932  22.201  0.00  0.00    +0.000 HD
ENDBRANCH  17  18
ENDBRANCH  12  17
ENDBRANCH   6   7
BRANCH   1  20
ATOM     20  S   UNL     1      -1.819  10.903  18.108  0.00  0.00    +0.000 S 
ATOM     21  O   UNL     1      -2.173  10.127  19.281  0.00  0.00    +0.000 OA
ATOM     22  O   UNL     1      -1.558  10.271  16.831  0.00  0.00    +0.000 OA
BRANCH  20  23
ATOM     23  N   UNL     1      -3.138  11.947  17.789  0.00  0.00    +0.000 N 
ATOM     24  H   UNL     1      -3.576  11.580  16.946  0.00  0.00    +0.000 HD
BRANCH  23  29
ATOM     25  C   UNL     1      -6.961  11.941  21.059  0.00  0.00    +0.000 C 
ATOM     26  C   UNL     1      -5.674  12.125  20.353  0.00  0.00    +0.000 A 
ATOM     27  N   UNL     1      -4.653  12.734  20.967  0.00  0.00    +0.000 NA
ATOM     28  O   UNL     1      -3.604  12.694  20.076  0.00  0.00    +0.000 OA
ATOM     29  C   UNL     1      -3.998  12.100  18.917  0.00  0.00    +0.000 A 
ATOM     30  C   UNL     1      -5.316  11.714  19.033  0.00  0.00    +0.000 A 
ATOM     31  C   UNL     1      -6.161  10.956  18.083  0.00  0.00    +0.000 C 
ENDBRANCH  23  29
ENDBRANCH  20  23
ENDBRANCH   1  20
TORSDOF 8
ENDMDL
MODEL 7
REMARK VINA RESULT:      -7.0      4.171      6.832
REMARK  Name = 
REMARK  12 active torsions:
REMARK  status: ('A' for Active; 'I' for Inactive)
REMARK    1  A    between atoms: C_1  and  C_2
REMARK    2  A    between atoms: C_5  and  N_6
REMARK    3  A    between atoms: N_6  and  S_7
REMARK    4  A    between atoms: S_7  and  C_10
REMARK    5  A    between atoms: C_15  and  C_16
REMARK    6  A    between atoms: C_19  and  C_20
REMARK    7  A    between atoms: C_20  and  C_21
REMARK    8  A    between atoms: C_21  and  C_22
REMARK    9  A    between atoms: C_21  and  C_23
REMARK   10  A    between atoms: C_25  and  C_26
REMARK   11  A    between atoms: C_26  and  O_27
REMARK   12  A    between atoms: C_28  and  C_29
REMARK                            x       y       z     vdW  Elec       q    Type
REMARK                         _______ _______ _______ _____ _____    ______ ____
ROOT
ATOM      1  C   UNL     1       3.625   4.422  17.660  0.00  0.00    +0.000 A 
ATOM      2  C   UNL     1       3.641   3.073  17.239  0.00  0.00    +0.000 A 
ATOM      3  C   UNL     1       2.554   2.237  17.452  0.00  0.00    +0.000 A 
ATOM      4  C   UNL     1       1.457   2.722  18.136  0.00  0.00    +0.000 A 
ATOM      5  C   UNL     1       1.436   4.053  18.565  0.00  0.00    +0.000 A 
ATOM      6  C   UNL     1       2.462   4.984  18.269  0.00  0.00    +0.000 A 
ENDROOT
BRANCH   6   7
ATOM      7  C   UNL     1       2.199   6.446  18.556  0.00  0.00    +0.000 A 
ATOM      8  C   UNL     1       2.330   7.413  17.539  0.00  0.00    +0.000 A 
ATOM      9  C   UNL     1       1.991   8.763  17.706  0.00  0.00    +0.000 A 
ATOM     10  C   UNL     1       1.575   9.236  18.941  0.00  0.00    +0.000 A 
ATOM     11  C   UNL     1       1.501   8.327  19.994  0.00  0.00    +0.000 A 
ATOM     12  C   UNL     1       1.819   6.954  19.841  0.00  0.00    +0.000 A 
BRANCH  10  13
ATOM     13  C   UNL     1       1.269  10.698  19.156  0.00  0.00    +0.000 C 
BRANCH  13  14
ATOM     14  C   UNL     1      -0.005  11.178  18.430  0.00  0.00    +0.000 C 
ATOM     15  C   UNL     1      -1.248  10.383  18.842  0.00  0.00    +0.000 C 
ATOM     16  C   UNL     1      -0.232  12.666  18.700  0.00  0.00    +0.000 C 
ENDBRANCH  13  14
ENDBRANCH  10  13
BRANCH  12  17
ATOM     17  C   UNL     1       1.868   6.140  21.126  0.00  0.00    +0.000 C 
BRANCH  17  18
ATOM     18  O   UNL     1       2.944   5.202  21.160  0.00  0.00    +0.000 OA
ATOM     19  H   UNL     1       3.766   5.717  21.210  0.00  0.00    +0.000 HD
ENDBRANCH  17  18
ENDBRANCH  12  17
ENDBRANCH   6   7
BRANCH   1  20
ATOM     20  S   UNL     1       5.158   5.323  17.459  0.00  0.00    +0.000 S 
ATOM     21  O   UNL     1       5.628   5.738  18.766  0.00  0.00    +0.000 OA
ATOM     22  O   UNL     1       4.975   6.273  16.381  0.00  0.00    +0.000 OA
BRANCH  20  23
ATOM     23  N   UNL     1       6.315   4.221  16.844  0.00  0.00    +0.000 N 
ATOM     24  H   UNL     1       5.865   3.307  16.880  0.00  0.00    +0.000 HD
BRANCH  23  29
ATOM     25  C   UNL     1       7.279   4.821  11.944  0.00  0.00    +0.000 C 
ATOM     26  C   UNL     1       7.267   4.868  13.422  0.00  0.00    +0.000 A 
ATOM     27  N   UNL     1       8.115   5.671  14.075  0.00  0.00    +0.000 NA
ATOM     28  O   UNL     1       7.814   5.525  15.411  0.00  0.00    +0.000 OA
ATOM     29  C   UNL     1       6.817   4.612  15.568  0.00  0.00    +0.000 A 
ATOM     30  C   UNL     1       6.425   4.154  14.328  0.00  0.00    +0.000 A 
ATOM     31  C   UNL     1       5.327   3.227  13.972  0.00  0.00    +0.000 C 
ENDBRANCH  23  29
ENDBRANCH  20  23
ENDBRANCH   1  20
TORSDOF 8
ENDMDL
MODEL 8
REMARK VINA RESULT:      -7.0      6.856      9.455
REMARK  Name = 
REMARK  12 active torsions:
REMARK  status: ('A' for Active; 'I' for Inactive)
REMARK    1  A    between atoms: C_1  and  C_2
REMARK    2  A    between atoms: C_5  and  N_6
REMARK    3  A    between atoms: N_6  and  S_7
REMARK    4  A    between atoms: S_7  and  C_10
REMARK    5  A    between atoms: C_15  and  C_16
REMARK    6  A    between atoms: C_19  and  C_20
REMARK    7  A    between atoms: C_20  and  C_21
REMARK    8  A    between atoms: C_21  and  C_22
REMARK    9  A    between atoms: C_21  and  C_23
REMARK   10  A    between atoms: C_25  and  C_26
REMARK   11  A    between atoms: C_26  and  O_27
REMARK   12  A    between atoms: C_28  and  C_29
REMARK                            x       y       z     vdW  Elec       q    Type
REMARK                         _______ _______ _______ _____ _____    ______ ____
ROOT
ATOM      1  C   UNL     1      -0.417  11.929  18.535  0.00  0.00    +0.000 A 
ATOM      2  C   UNL     1      -0.599  13.325  18.402  0.00  0.00    +0.000 A 
ATOM      3  C   UNL     1       0.367  14.223  18.831  0.00  0.00    +0.000 A 
ATOM      4  C   UNL     1       1.505  13.743  19.449  0.00  0.00    +0.000 A 
ATOM      5  C   UNL     1       1.690  12.364  19.594  0.00  0.00    +0.000 A 
ATOM      6  C   UNL     1       0.798  11.398  19.066  0.00  0.00    +0.000 A 
ENDROOT
BRANCH   6   7
ATOM      7  C   UNL     1       1.242   9.952  19.056  0.00  0.00    +0.000 A 
ATOM      8  C   UNL     1       1.788   9.376  17.891  0.00  0.00    +0.000 A 
ATOM      9  C   UNL     1       2.323   8.081  17.846  0.00  0.00    +0.000 A 
ATOM     10  C   UNL     1       2.265   7.257  18.960  0.00  0.00    +0.000 A 
ATOM     11  C   UNL     1       1.667   7.762  20.111  0.00  0.00    +0.000 A 
ATOM     12  C   UNL     1       1.138   9.075  20.184  0.00  0.00    +0.000 A 
BRANCH  10  13
ATOM     13  C   UNL     1       2.777   5.838  18.910  0.00  0.00    +0.000 C 
BRANCH  13  14
ATOM     14  C   UNL     1       2.438   5.012  20.169  0.00  0.00    +0.000 C 
ATOM     15  C   UNL     1       1.041   4.387  20.100  0.00  0.00    +0.000 C 
ATOM     16  C   UNL     1       3.484   3.915  20.372  0.00  0.00    +0.000 C 
ENDBRANCH  13  14
ENDBRANCH  10  13
BRANCH  12  17
ATOM     17  C   UNL     1       0.356   9.402  21.448  0.00  0.00    +0.000 C 
BRANCH  17  18
ATOM     18  O   UNL     1       1.117  10.129  22.412  0.00  0.00    +0.000 OA
ATOM     19  H   UNL     1       0.917  11.071  22.279  0.00  0.00    +0.000 HD
ENDBRANCH  17  18
ENDBRANCH  12  17
ENDBRANCH   6   7
BRANCH   1  20
ATOM     20  S   UNL     1      -1.817  10.911  18.084  0.00  0.00    +0.000 S 
ATOM     21  O   UNL     1      -2.290  10.221  19.269  0.00  0.00    +0.000 OA
ATOM     22  O   UNL     1      -1.471  10.193  16.875  0.00  0.00    +0.000 OA
BRANCH  20  23
ATOM     23  N   UNL     1      -3.072  11.966  17.592  0.00  0.00    +0.000 N 
ATOM     24  H   UNL     1      -3.077  11.925  16.573  0.00  0.00    +0.000 HD
BRANCH  23  29
ATOM     25  C   UNL     1      -7.046  11.677  20.663  0.00  0.00    +0.000 C 
ATOM     26  C   UNL     1      -6.053  11.515  19.578  0.00  0.00    +0.000 A 
ATOM     27  N   UNL     1      -6.308  10.695  18.552  0.00  0.00    +0.000 NA
ATOM     28  O   UNL     1      -5.231  10.813  17.703  0.00  0.00    +0.000 OA
ATOM     29  C   UNL     1      -4.314  11.670  18.228  0.00  0.00    +0.000 A 
ATOM     30  C   UNL     1      -4.785  12.153  19.431  0.00  0.00    +0.000 A 
ATOM     31  C   UNL     1      -4.196  13.171  20.330  0.00  0.00    +0.000 C 
ENDBRANCH  23  29
ENDBRANCH  20  23
ENDBRANCH   1  20
TORSDOF 8
ENDMDL
MODEL 9
REMARK VINA RESULT:      -7.0      6.065      9.902
REMARK  Name = 
REMARK  12 active torsions:
REMARK  status: ('A' for Active; 'I' for Inactive)
REMARK    1  A    between atoms: C_1  and  C_2
REMARK    2  A    between atoms: C_5  and  N_6
REMARK    3  A    between atoms: N_6  and  S_7
REMARK    4  A    between atoms: S_7  and  C_10
REMARK    5  A    between atoms: C_15  and  C_16
REMARK    6  A    between atoms: C_19  and  C_20
REMARK    7  A    between atoms: C_20  and  C_21
REMARK    8  A    between atoms: C_21  and  C_22
REMARK    9  A    between atoms: C_21  and  C_23
REMARK   10  A    between atoms: C_25  and  C_26
REMARK   11  A    between atoms: C_26  and  O_27
REMARK   12  A    between atoms: C_28  and  C_29
REMARK                            x       y       z     vdW  Elec       q    Type
REMARK                         _______ _______ _______ _____ _____    ______ ____
ROOT
ATOM      1  C   UNL     1       0.064  12.321  19.775  0.00  0.00    +0.000 A 
ATOM      2  C   UNL     1      -0.914  13.309  20.036  0.00  0.00    +0.000 A 
ATOM      3  C   UNL     1      -2.256  13.085  19.765  0.00  0.00    +0.000 A 
ATOM      4  C   UNL     1      -2.635  11.893  19.180  0.00  0.00    +0.000 A 
ATOM      5  C   UNL     1      -1.673  10.914  18.909  0.00  0.00    +0.000 A 
ATOM      6  C   UNL     1      -0.311  11.037  19.275  0.00  0.00    +0.000 A 
ENDROOT
BRANCH   6   7
ATOM      7  C   UNL     1       0.566   9.809  19.170  0.00  0.00    +0.000 A 
ATOM      8  C   UNL     1       1.077   9.395  17.923  0.00  0.00    +0.000 A 
ATOM      9  C   UNL     1       1.985   8.338  17.771  0.00  0.00    +0.000 A 
ATOM     10  C   UNL     1       2.372   7.580  18.865  0.00  0.00    +0.000 A 
ATOM     11  C   UNL     1       1.834   7.909  20.106  0.00  0.00    +0.000 A 
ATOM     12  C   UNL     1       0.930   8.986  20.285  0.00  0.00    +0.000 A 
BRANCH  10  13
ATOM     13  C   UNL     1       3.298   6.398  18.709  0.00  0.00    +0.000 C 
BRANCH  13  14
ATOM     14  C   UNL     1       2.664   5.208  17.957  0.00  0.00    +0.000 C 
ATOM     15  C   UNL     1       3.713   4.299  17.312  0.00  0.00    +0.000 C 
ATOM     16  C   UNL     1       1.791   4.392  18.912  0.00  0.00    +0.000 C 
ENDBRANCH  13  14
ENDBRANCH  10  13
BRANCH  12  17
ATOM     17  C   UNL     1       0.294   9.092  21.664  0.00  0.00    +0.000 C 
BRANCH  17  18
ATOM     18  O   UNL     1       1.121   9.756  22.619  0.00  0.00    +0.000 OA
ATOM     19  H   UNL     1       2.038   9.667  22.309  0.00  0.00    +0.000 HD
ENDBRANCH  17  18
ENDBRANCH  12  17
ENDBRANCH   6   7
BRANCH   1  20
ATOM     20  S   UNL     1       1.764  12.818  20.026  0.00  0.00    +0.000 S 
ATOM     21  O   UNL     1       2.479  12.675  18.772  0.00  0.00    +0.000 OA
ATOM     22  O   UNL     1       2.233  12.189  21.243  0.00  0.00    +0.000 OA
BRANCH  20  23
ATOM     23  N   UNL     1       1.753  14.488  20.402  0.00  0.00    +0.000 N 
ATOM     24  H   UNL     1       0.795  14.697  20.681  0.00  0.00    +0.000 HD
BRANCH  23  29
ATOM     25  C   UNL     1       6.011  15.743  22.768  0.00  0.00    +0.000 C 
ATOM     26  C   UNL     1       4.628  15.368  22.400  0.00  0.00    +0.000 A 
ATOM     27  N   UNL     1       3.683  15.282  23.344  0.00  0.00    +0.000 NA
ATOM     28  O   UNL     1       2.517  14.976  22.678  0.00  0.00    +0.000 OA
ATOM     29  C   UNL     1       2.762  14.841  21.346  0.00  0.00    +0.000 A 
ATOM     30  C   UNL     1       4.098  15.080  21.106  0.00  0.00    +0.000 A 
ATOM     31  C   UNL     1       4.827  15.140  19.819  0.00  0.00    +0.000 C 
ENDBRANCH  23  29
ENDBRANCH  20  23
ENDBRANCH   1  20
TORSDOF 8
ENDMDL
