MODEL 1
REMARK VINA RESULT:      -7.5      0.000      0.000
REMARK  Name = 
REMARK  5 active torsions:
REMARK  status: ('A' for Active; 'I' for Inactive)
REMARK    1  A    between atoms: C_1  and  N_2
REMARK    2  A    between atoms: N_5  and  C_6
REMARK    3  A    between atoms: C_6  and  C_7
REMARK    4  A    between atoms: N_9  and  N_10
REMARK    5  A    between atoms: C_11  and  C_12
REMARK                            x       y       z     vdW  Elec       q    Type
REMARK                         _______ _______ _______ _____ _____    ______ ____
ROOT
ATOM      1  C   UNL     1       7.569   5.965  18.700  0.00  0.00    +0.000 C 
ATOM      2  O   UNL     1       8.268   5.602  19.653  0.00  0.00    +0.000 OA
ATOM      3  N   UNL     1       7.600   7.231  18.134  0.00  0.00    +0.000 N 
ATOM      4  H   UNL     1       6.986   7.432  17.346  0.00  0.00    +0.000 HD
ENDROOT
BRANCH   3   5
ATOM      5  N   UNL     1       8.525   8.120  18.573  0.00  0.00    +0.000 NA
ATOM      6  C   UNL     1       8.389   9.358  18.225  0.00  0.00    +0.000 C 
BRANCH   6   7
ATOM      7  C   UNL     1       9.340  10.368  18.742  0.00  0.00    +0.000 A 
ATOM      8  C   UNL     1       9.364  10.681  20.112  0.00  0.00    +0.000 A 
ATOM      9  C   UNL     1      10.221  11.674  20.591  0.00  0.00    +0.000 A 
ATOM     10  C   UNL     1      11.048  12.346  19.698  0.00  0.00    +0.000 A 
ATOM     11  F   UNL     1      11.862  13.308  20.153  0.00  0.00    +0.000 F 
ATOM     12  C   UNL     1      11.027  12.030  18.342  0.00  0.00    +0.000 A 
ATOM     13  F   UNL     1      11.818  12.691  17.487  0.00  0.00    +0.000 F 
ATOM     14  C   UNL     1      10.181  11.037  17.852  0.00  0.00    +0.000 A 
ENDBRANCH   6   7
ENDBRANCH   3   5
BRANCH   1  15
ATOM     15  C   UNL     1       6.551   5.003  18.077  0.00  0.00    +0.000 C 
BRANCH  15  20
ATOM     16  C   UNL     1       2.607   2.095  18.525  0.00  0.00    +0.000 C 
ATOM     17  N   UNL     1       3.105   3.454  18.339  0.00  0.00    +0.000 NA
ATOM     18  C   UNL     1       3.861   3.581  17.083  0.00  0.00    +0.000 C 
ATOM     19  C   UNL     1       4.403   5.016  16.884  0.00  0.00    +0.000 C 
ATOM     20  N   UNL     1       5.191   5.588  18.007  0.00  0.00    +0.000 NA
ATOM     21  C   UNL     1       4.443   5.337  19.265  0.00  0.00    +0.000 C 
ATOM     22  C   UNL     1       3.945   3.883  19.468  0.00  0.00    +0.000 C 
ENDBRANCH  15  20
ENDBRANCH   1  15
TORSDOF 4
ENDMDL
MODEL 2
REMARK VINA RESULT:      -7.2      0.751      1.531
REMARK  Name = 
REMARK  5 active torsions:
REMARK  status: ('A' for Active; 'I' for Inactive)
REMARK    1  A    between atoms: C_1  and  N_2
REMARK    2  A    between atoms: N_5  and  C_6
REMARK    3  A    between atoms: C_6  and  C_7
REMARK    4  A    between atoms: N_9  and  N_10
REMARK    5  A    between atoms: C_11  and  C_12
REMARK                            x       y       z     vdW  Elec       q    Type
REMARK                         _______ _______ _______ _____ _____    ______ ____
ROOT
ATOM      1  C   UNL     1       7.533   6.380  18.287  0.00  0.00    +0.000 C 
ATOM      2  O   UNL     1       8.155   6.078  19.311  0.00  0.00    +0.000 OA
ATOM      3  N   UNL     1       7.670   7.580  17.604  0.00  0.00    +0.000 N 
ATOM      4  H   UNL     1       7.113   7.733  16.764  0.00  0.00    +0.000 HD
ENDROOT
BRANCH   3   5
ATOM      5  N   UNL     1       8.619   8.458  18.010  0.00  0.00    +0.000 NA
ATOM      6  C   UNL     1       8.271   9.692  18.183  0.00  0.00    +0.000 C 
BRANCH   6   7
ATOM      7  C   UNL     1       9.264  10.664  18.691  0.00  0.00    +0.000 A 
ATOM      8  C   UNL     1      10.244  11.190  17.831  0.00  0.00    +0.000 A 
ATOM      9  C   UNL     1      11.216  12.063  18.323  0.00  0.00    +0.000 A 
ATOM     10  C   UNL     1      11.203  12.403  19.671  0.00  0.00    +0.000 A 
ATOM     11  F   UNL     1      12.142  13.231  20.148  0.00  0.00    +0.000 F 
ATOM     12  C   UNL     1      10.228  11.886  20.520  0.00  0.00    +0.000 A 
ATOM     13  F   UNL     1      10.230  12.210  21.820  0.00  0.00    +0.000 F 
ATOM     14  C   UNL     1       9.249  11.018  20.040  0.00  0.00    +0.000 A 
ENDBRANCH   6   7
ENDBRANCH   3   5
BRANCH   1  15
ATOM     15  C   UNL     1       6.496   5.416  17.699  0.00  0.00    +0.000 C 
BRANCH  15  20
ATOM     16  C   UNL     1       3.241   1.775  18.296  0.00  0.00    +0.000 C 
ATOM     17  N   UNL     1       3.496   3.209  18.384  0.00  0.00    +0.000 NA
ATOM     18  C   UNL     1       3.820   3.778  17.066  0.00  0.00    +0.000 C 
ATOM     19  C   UNL     1       4.104   5.296  17.152  0.00  0.00    +0.000 C 
ATOM     20  N   UNL     1       5.118   5.725  18.150  0.00  0.00    +0.000 NA
ATOM     21  C   UNL     1       4.817   5.039  19.432  0.00  0.00    +0.000 C 
ATOM     22  C   UNL     1       4.578   3.510  19.333  0.00  0.00    +0.000 C 
ENDBRANCH  15  20
ENDBRANCH   1  15
TORSDOF 4
ENDMDL
MODEL 3
REMARK VINA RESULT:      -6.9      1.116      1.459
REMARK  Name = 
REMARK  5 active torsions:
REMARK  status: ('A' for Active; 'I' for Inactive)
REMARK    1  A    between atoms: C_1  and  N_2
REMARK    2  A    between atoms: N_5  and  C_6
REMARK    3  A    between atoms: C_6  and  C_7
REMARK    4  A    between atoms: N_9  and  N_10
REMARK    5  A    between atoms: C_11  and  C_12
REMARK                            x       y       z     vdW  Elec       q    Type
REMARK                         _______ _______ _______ _____ _____    ______ ____
ROOT
ATOM      1  C   UNL     1       7.625   6.640  18.089  0.00  0.00    +0.000 C 
ATOM      2  O   UNL     1       8.202   6.345  19.141  0.00  0.00    +0.000 OA
ATOM      3  N   UNL     1       7.612   7.907  17.523  0.00  0.00    +0.000 N 
ATOM      4  H   UNL     1       7.108   8.049  16.648  0.00  0.00    +0.000 HD
ENDROOT
BRANCH   3   5
ATOM      5  N   UNL     1       8.362   8.883  18.089  0.00  0.00    +0.000 NA
ATOM      6  C   UNL     1       8.301  10.069  17.577  0.00  0.00    +0.000 C 
BRANCH   6   7
ATOM      7  C   UNL     1       9.053  11.175  18.212  0.00  0.00    +0.000 A 
ATOM      8  C   UNL     1       8.797  12.507  17.845  0.00  0.00    +0.000 A 
ATOM      9  C   UNL     1       9.546  13.546  18.401  0.00  0.00    +0.000 A 
ATOM     10  C   UNL     1      10.545  13.246  19.320  0.00  0.00    +0.000 A 
ATOM     11  F   UNL     1      11.274  14.241  19.846  0.00  0.00    +0.000 F 
ATOM     12  C   UNL     1      10.793  11.926  19.687  0.00  0.00    +0.000 A 
ATOM     13  F   UNL     1      11.766  11.646  20.564  0.00  0.00    +0.000 F 
ATOM     14  C   UNL     1      10.050  10.881  19.144  0.00  0.00    +0.000 A 
ENDBRANCH   6   7
ENDBRANCH   3   5
BRANCH   1  15
ATOM     15  C   UNL     1       6.817   5.583  17.326  0.00  0.00    +0.000 C 
BRANCH  15  20
ATOM     16  C   UNL     1       3.697   2.069  18.785  0.00  0.00    +0.000 C 
ATOM     17  N   UNL     1       3.854   3.442  18.315  0.00  0.00    +0.000 NA
ATOM     18  C   UNL     1       4.429   3.483  16.962  0.00  0.00    +0.000 C 
ATOM     19  C   UNL     1       4.611   4.935  16.460  0.00  0.00    +0.000 C 
ATOM     20  N   UNL     1       5.360   5.855  17.354  0.00  0.00    +0.000 NA
ATOM     21  C   UNL     1       4.821   5.697  18.729  0.00  0.00    +0.000 C 
ATOM     22  C   UNL     1       4.687   4.237  19.231  0.00  0.00    +0.000 C 
ENDBRANCH  15  20
ENDBRANCH   1  15
TORSDOF 4
ENDMDL
MODEL 4
REMARK VINA RESULT:      -6.9      1.222      1.296
REMARK  Name = 
REMARK  5 active torsions:
REMARK  status: ('A' for Active; 'I' for Inactive)
REMARK    1  A    between atoms: C_1  and  N_2
REMARK    2  A    between atoms: N_5  and  C_6
REMARK    3  A    between atoms: C_6  and  C_7
REMARK    4  A    between atoms: N_9  and  N_10
REMARK    5  A    between atoms: C_11  and  C_12
REMARK                            x       y       z     vdW  Elec       q    Type
REMARK                         _______ _______ _______ _____ _____    ______ ____
ROOT
ATOM      1  C   UNL     1       7.303   7.109  17.762  0.00  0.00    +0.000 C 
ATOM      2  O   UNL     1       7.076   7.641  16.670  0.00  0.00    +0.000 OA
ATOM      3  N   UNL     1       8.218   7.577  18.694  0.00  0.00    +0.000 N 
ATOM      4  H   UNL     1       8.331   7.069  19.570  0.00  0.00    +0.000 HD
ENDROOT
BRANCH   3   5
ATOM      5  N   UNL     1       8.846   8.755  18.458  0.00  0.00    +0.000 NA
ATOM      6  C   UNL     1       9.023   9.559  19.456  0.00  0.00    +0.000 C 
BRANCH   6   7
ATOM      7  C   UNL     1       9.766  10.822  19.249  0.00  0.00    +0.000 A 
ATOM      8  C   UNL     1      10.165  11.597  20.352  0.00  0.00    +0.000 A 
ATOM      9  C   UNL     1      10.815  12.817  20.155  0.00  0.00    +0.000 A 
ATOM     10  C   UNL     1      11.061  13.254  18.859  0.00  0.00    +0.000 A 
ATOM     11  F   UNL     1      11.673  14.431  18.668  0.00  0.00    +0.000 F 
ATOM     12  C   UNL     1      10.670  12.482  17.768  0.00  0.00    +0.000 A 
ATOM     13  F   UNL     1      10.900  12.917  16.522  0.00  0.00    +0.000 F 
ATOM     14  C   UNL     1      10.026  11.261  17.950  0.00  0.00    +0.000 A 
ENDBRANCH   6   7
ENDBRANCH   3   5
BRANCH   1  15
ATOM     15  C   UNL     1       6.580   5.817  18.159  0.00  0.00    +0.000 C 
BRANCH  15  20
ATOM     16  C   UNL     1       3.713   1.818  18.124  0.00  0.00    +0.000 C 
ATOM     17  N   UNL     1       3.772   3.277  18.138  0.00  0.00    +0.000 NA
ATOM     18  C   UNL     1       4.423   3.798  16.927  0.00  0.00    +0.000 C 
ATOM     19  C   UNL     1       4.501   5.343  16.938  0.00  0.00    +0.000 C 
ATOM     20  N   UNL     1       5.106   5.966  18.145  0.00  0.00    +0.000 NA
ATOM     21  C   UNL     1       4.499   5.329  19.342  0.00  0.00    +0.000 C 
ATOM     22  C   UNL     1       4.469   3.780  19.331  0.00  0.00    +0.000 C 
ENDBRANCH  15  20
ENDBRANCH   1  15
TORSDOF 4
ENDMDL
MODEL 5
REMARK VINA RESULT:      -6.9      1.540      1.896
REMARK  Name = 
REMARK  5 active torsions:
REMARK  status: ('A' for Active; 'I' for Inactive)
REMARK    1  A    between atoms: C_1  and  N_2
REMARK    2  A    between atoms: N_5  and  C_6
REMARK    3  A    between atoms: C_6  and  C_7
REMARK    4  A    between atoms: N_9  and  N_10
REMARK    5  A    between atoms: C_11  and  C_12
REMARK                            x       y       z     vdW  Elec       q    Type
REMARK                         _______ _______ _______ _____ _____    ______ ____
ROOT
ATOM      1  C   UNL     1       7.394   6.717  17.354  0.00  0.00    +0.000 C 
ATOM      2  O   UNL     1       7.748   6.733  16.170  0.00  0.00    +0.000 OA
ATOM      3  N   UNL     1       7.630   7.739  18.262  0.00  0.00    +0.000 N 
ATOM      4  H   UNL     1       7.295   7.633  19.219  0.00  0.00    +0.000 HD
ENDROOT
BRANCH   3   5
ATOM      5  N   UNL     1       8.194   8.890  17.820  0.00  0.00    +0.000 NA
ATOM      6  C   UNL     1       8.733   9.676  18.694  0.00  0.00    +0.000 C 
BRANCH   6   7
ATOM      7  C   UNL     1       9.419  10.906  18.239  0.00  0.00    +0.000 A 
ATOM      8  C   UNL     1      10.808  10.903  18.022  0.00  0.00    +0.000 A 
ATOM      9  C   UNL     1      11.464  12.077  17.648  0.00  0.00    +0.000 A 
ATOM     10  C   UNL     1      10.728  13.247  17.496  0.00  0.00    +0.000 A 
ATOM     11  F   UNL     1      11.358  14.379  17.150  0.00  0.00    +0.000 F 
ATOM     12  C   UNL     1       9.352  13.247  17.706  0.00  0.00    +0.000 A 
ATOM     13  F   UNL     1       8.653  14.381  17.569  0.00  0.00    +0.000 F 
ATOM     14  C   UNL     1       8.684  12.081  18.073  0.00  0.00    +0.000 A 
ENDBRANCH   6   7
ENDBRANCH   3   5
BRANCH   1  15
ATOM     15  C   UNL     1       6.672   5.494  17.930  0.00  0.00    +0.000 C 
BRANCH  15  20
ATOM     16  C   UNL     1       3.393   1.831  18.127  0.00  0.00    +0.000 C 
ATOM     17  N   UNL     1       3.635   3.261  18.291  0.00  0.00    +0.000 NA
ATOM     18  C   UNL     1       4.059   3.882  17.026  0.00  0.00    +0.000 C 
ATOM     19  C   UNL     1       4.330   5.396  17.194  0.00  0.00    +0.000 C 
ATOM     20  N   UNL     1       5.262   5.784  18.284  0.00  0.00    +0.000 NA
ATOM     21  C   UNL     1       4.865   5.048  19.511  0.00  0.00    +0.000 C 
ATOM     22  C   UNL     1       4.639   3.525  19.333  0.00  0.00    +0.000 C 
ENDBRANCH  15  20
ENDBRANCH   1  15
TORSDOF 4
ENDMDL
MODEL 6
REMARK VINA RESULT:      -6.8      1.167      1.583
REMARK  Name = 
REMARK  5 active torsions:
REMARK  status: ('A' for Active; 'I' for Inactive)
REMARK    1  A    between atoms: C_1  and  N_2
REMARK    2  A    between atoms: N_5  and  C_6
REMARK    3  A    between atoms: C_6  and  C_7
REMARK    4  A    between atoms: N_9  and  N_10
REMARK    5  A    between atoms: C_11  and  C_12
REMARK                            x       y       z     vdW  Elec       q    Type
REMARK                         _______ _______ _______ _____ _____    ______ ____
ROOT
ATOM      1  C   UNL     1       7.575   6.733  18.011  0.00  0.00    +0.000 C 
ATOM      2  O   UNL     1       8.297   6.246  18.888  0.00  0.00    +0.000 OA
ATOM      3  N   UNL     1       7.551   8.076  17.663  0.00  0.00    +0.000 N 
ATOM      4  H   UNL     1       6.921   8.380  16.922  0.00  0.00    +0.000 HD
ENDROOT
BRANCH   3   5
ATOM      5  N   UNL     1       8.445   8.916  18.240  0.00  0.00    +0.000 NA
ATOM      6  C   UNL     1       8.466  10.146  17.841  0.00  0.00    +0.000 C 
BRANCH   6   7
ATOM      7  C   UNL     1       9.381  11.108  18.496  0.00  0.00    +0.000 A 
ATOM      8  C   UNL     1       9.743  10.934  19.844  0.00  0.00    +0.000 A 
ATOM      9  C   UNL     1      10.560  11.872  20.478  0.00  0.00    +0.000 A 
ATOM     10  C   UNL     1      11.009  12.976  19.762  0.00  0.00    +0.000 A 
ATOM     11  F   UNL     1      11.783  13.884  20.373  0.00  0.00    +0.000 F 
ATOM     12  C   UNL     1      10.654  13.143  18.426  0.00  0.00    +0.000 A 
ATOM     13  F   UNL     1      11.081  14.216  17.748  0.00  0.00    +0.000 F 
ATOM     14  C   UNL     1       9.844  12.212  17.780  0.00  0.00    +0.000 A 
ENDBRANCH   6   7
ENDBRANCH   3   5
BRANCH   1  15
ATOM     15  C   UNL     1       6.588   5.848  17.241  0.00  0.00    +0.000 C 
BRANCH  15  20
ATOM     16  C   UNL     1       1.825   4.792  17.885  0.00  0.00    +0.000 C 
ATOM     17  N   UNL     1       3.207   4.393  18.133  0.00  0.00    +0.000 NA
ATOM     18  C   UNL     1       3.917   5.393  18.945  0.00  0.00    +0.000 C 
ATOM     19  C   UNL     1       5.387   4.984  19.202  0.00  0.00    +0.000 C 
ATOM     20  N   UNL     1       6.197   4.640  18.005  0.00  0.00    +0.000 NA
ATOM     21  C   UNL     1       5.396   3.718  17.159  0.00  0.00    +0.000 C 
ATOM     22  C   UNL     1       3.939   4.166  16.877  0.00  0.00    +0.000 C 
ENDBRANCH  15  20
ENDBRANCH   1  15
TORSDOF 4
ENDMDL
MODEL 7
REMARK VINA RESULT:      -6.7      1.932      2.295
REMARK  Name = 
REMARK  5 active torsions:
REMARK  status: ('A' for Active; 'I' for Inactive)
REMARK    1  A    between atoms: C_1  and  N_2
REMARK    2  A    between atoms: N_5  and  C_6
REMARK    3  A    between atoms: C_6  and  C_7
REMARK    4  A    between atoms: N_9  and  N_10
REMARK    5  A    between atoms: C_11  and  C_12
REMARK                            x       y       z     vdW  Elec       q    Type
REMARK                         _______ _______ _______ _____ _____    ______ ____
ROOT
ATOM      1  C   UNL     1       6.401   6.529  17.019  0.00  0.00    +0.000 C 
ATOM      2  O   UNL     1       5.856   7.043  16.036  0.00  0.00    +0.000 OA
ATOM      3  N   UNL     1       7.393   7.132  17.778  0.00  0.00    +0.000 N 
ATOM      4  H   UNL     1       7.779   6.626  18.573  0.00  0.00    +0.000 HD
ENDROOT
BRANCH   3   5
ATOM      5  N   UNL     1       7.735   8.416  17.506  0.00  0.00    +0.000 NA
ATOM      6  C   UNL     1       8.462   9.046  18.370  0.00  0.00    +0.000 C 
BRANCH   6   7
ATOM      7  C   UNL     1       8.911  10.425  18.074  0.00  0.00    +0.000 A 
ATOM      8  C   UNL     1      10.265  10.775  18.218  0.00  0.00    +0.000 A 
ATOM      9  C   UNL     1      10.679  12.089  17.994  0.00  0.00    +0.000 A 
ATOM     10  C   UNL     1       9.737  13.045  17.630  0.00  0.00    +0.000 A 
ATOM     11  F   UNL     1      10.131  14.310  17.427  0.00  0.00    +0.000 F 
ATOM     12  C   UNL     1       8.398  12.695  17.482  0.00  0.00    +0.000 A 
ATOM     13  F   UNL     1       7.496  13.625  17.143  0.00  0.00    +0.000 F 
ATOM     14  C   UNL     1       7.972  11.386  17.696  0.00  0.00    +0.000 A 
ENDBRANCH   6   7
ENDBRANCH   3   5
BRANCH   1  15
ATOM     15  C   UNL     1       6.023   5.110  17.458  0.00  0.00    +0.000 C 
BRANCH  15  20
ATOM     16  C   UNL     1       1.458   3.380  18.069  0.00  0.00    +0.000 C 
ATOM     17  N   UNL     1       2.645   3.941  18.707  0.00  0.00    +0.000 NA
ATOM     18  C   UNL     1       2.921   5.302  18.222  0.00  0.00    +0.000 C 
ATOM     19  C   UNL     1       4.184   5.901  18.884  0.00  0.00    +0.000 C 
ATOM     20  N   UNL     1       5.421   5.079  18.812  0.00  0.00    +0.000 NA
ATOM     21  C   UNL     1       5.070   3.689  19.202  0.00  0.00    +0.000 C 
ATOM     22  C   UNL     1       3.826   3.091  18.496  0.00  0.00    +0.000 C 
ENDBRANCH  15  20
ENDBRANCH   1  15
TORSDOF 4
ENDMDL
MODEL 8
REMARK VINA RESULT:      -6.6      1.658      1.819
REMARK  Name = 
REMARK  5 active torsions:
REMARK  status: ('A' for Active; 'I' for Inactive)
REMARK    1  A    between atoms: C_1  and  N_2
REMARK    2  A    between atoms: N_5  and  C_6
REMARK    3  A    between atoms: C_6  and  C_7
REMARK    4  A    between atoms: N_9  and  N_10
REMARK    5  A    between atoms: C_11  and  C_12
REMARK                            x       y       z     vdW  Elec       q    Type
REMARK                         _______ _______ _______ _____ _____    ______ ____
ROOT
ATOM      1  C   UNL     1       7.744   7.224  17.808  0.00  0.00    +0.000 C 
ATOM      2  O   UNL     1       8.186   6.866  18.905  0.00  0.00    +0.000 OA
ATOM      3  N   UNL     1       7.603   8.544  17.406  0.00  0.00    +0.000 N 
ATOM      4  H   UNL     1       7.230   8.737  16.477  0.00  0.00    +0.000 HD
ENDROOT
BRANCH   3   5
ATOM      5  N   UNL     1       8.071   9.527  18.213  0.00  0.00    +0.000 NA
ATOM      6  C   UNL     1       9.103  10.198  17.818  0.00  0.00    +0.000 C 
BRANCH   6   7
ATOM      7  C   UNL     1       9.599  11.322  18.642  0.00  0.00    +0.000 A 
ATOM      8  C   UNL     1      10.369  11.072  19.791  0.00  0.00    +0.000 A 
ATOM      9  C   UNL     1      10.789  12.130  20.600  0.00  0.00    +0.000 A 
ATOM     10  C   UNL     1      10.436  13.430  20.255  0.00  0.00    +0.000 A 
ATOM     11  F   UNL     1      10.827  14.446  21.037  0.00  0.00    +0.000 F 
ATOM     12  C   UNL     1       9.678  13.676  19.113  0.00  0.00    +0.000 A 
ATOM     13  F   UNL     1       9.333  14.930  18.795  0.00  0.00    +0.000 F 
ATOM     14  C   UNL     1       9.258  12.630  18.294  0.00  0.00    +0.000 A 
ENDBRANCH   6   7
ENDBRANCH   3   5
BRANCH   1  15
ATOM     15  C   UNL     1       7.266   6.183  16.789  0.00  0.00    +0.000 C 
BRANCH  15  20
ATOM     16  C   UNL     1       3.581   3.035  17.643  0.00  0.00    +0.000 C 
ATOM     17  N   UNL     1       3.990   4.300  17.038  0.00  0.00    +0.000 NA
ATOM     18  C   UNL     1       4.985   4.089  15.976  0.00  0.00    +0.000 C 
ATOM     19  C   UNL     1       5.433   5.425  15.338  0.00  0.00    +0.000 C 
ATOM     20  N   UNL     1       5.908   6.479  16.273  0.00  0.00    +0.000 NA
ATOM     21  C   UNL     1       4.930   6.577  17.387  0.00  0.00    +0.000 C 
ATOM     22  C   UNL     1       4.526   5.231  18.042  0.00  0.00    +0.000 C 
ENDBRANCH  15  20
ENDBRANCH   1  15
TORSDOF 4
ENDMDL
MODEL 9
REMARK VINA RESULT:      -6.6      1.514      1.893
REMARK  Name = 
REMARK  5 active torsions:
REMARK  status: ('A' for Active; 'I' for Inactive)
REMARK    1  A    between atoms: C_1  and  N_2
REMARK    2  A    between atoms: N_5  and  C_6
REMARK    3  A    between atoms: C_6  and  C_7
REMARK    4  A    between atoms: N_9  and  N_10
REMARK    5  A    between atoms: C_11  and  C_12
REMARK                            x       y       z     vdW  Elec       q    Type
REMARK                         _______ _______ _______ _____ _____    ______ ____
ROOT
ATOM      1  C   UNL     1       6.657   6.686  17.387  0.00  0.00    +0.000 C 
ATOM      2  O   UNL     1       6.180   7.221  16.381  0.00  0.00    +0.000 OA
ATOM      3  N   UNL     1       7.707   7.201  18.133  0.00  0.00    +0.000 N 
ATOM      4  H   UNL     1       8.028   6.685  18.952  0.00  0.00    +0.000 HD
ENDROOT
BRANCH   3   5
ATOM      5  N   UNL     1       8.194   8.426  17.817  0.00  0.00    +0.000 NA
ATOM      6  C   UNL     1       8.556   9.204  18.785  0.00  0.00    +0.000 C 
BRANCH   6   7
ATOM      7  C   UNL     1       9.156  10.521  18.474  0.00  0.00    +0.000 A 
ATOM      8  C   UNL     1       8.410  11.493  17.785  0.00  0.00    +0.000 A 
ATOM      9  C   UNL     1       8.994  12.714  17.442  0.00  0.00    +0.000 A 
ATOM     10  C   UNL     1      10.319  12.954  17.789  0.00  0.00    +0.000 A 
ATOM     11  F   UNL     1      10.886  14.120  17.449  0.00  0.00    +0.000 F 
ATOM     12  C   UNL     1      11.054  11.992  18.476  0.00  0.00    +0.000 A 
ATOM     13  F   UNL     1      12.333  12.227  18.795  0.00  0.00    +0.000 F 
ATOM     14  C   UNL     1      10.481  10.772  18.830  0.00  0.00    +0.000 A 
ENDBRANCH   6   7
ENDBRANCH   3   5
BRANCH   1  15
ATOM     15  C   UNL     1       6.118   5.337  17.877  0.00  0.00    +0.000 C 
BRANCH  15  20
ATOM     16  C   UNL     1       2.971   2.931  20.796  0.00  0.00    +0.000 C 
ATOM     17  N   UNL     1       3.178   3.603  19.517  0.00  0.00    +0.000 NA
ATOM     18  C   UNL     1       4.197   2.915  18.709  0.00  0.00    +0.000 C 
ATOM     19  C   UNL     1       4.432   3.627  17.356  0.00  0.00    +0.000 C 
ATOM     20  N   UNL     1       4.732   5.082  17.416  0.00  0.00    +0.000 NA
ATOM     21  C   UNL     1       3.748   5.715  18.331  0.00  0.00    +0.000 C 
ATOM     22  C   UNL     1       3.558   5.012  19.699  0.00  0.00    +0.000 C 
ENDBRANCH  15  20
ENDBRANCH   1  15
TORSDOF 4
ENDMDL
