MODEL 1
REMARK VINA RESULT:      -9.1      0.000      0.000
REMARK  Name = 
REMARK  4 active torsions:
REMARK  status: ('A' for Active; 'I' for Inactive)
REMARK    1  A    between atoms: C_1  and  C_2
REMARK    2  A    between atoms: C_4  and  C_5
REMARK    3  A    between atoms: C_13  and  C_14
REMARK    4  A    between atoms: C_17  and  N_18
REMARK                            x       y       z     vdW  Elec       q    Type
REMARK                         _______ _______ _______ _____ _____    ______ ____
ROOT
ATOM      1  C   UNL     1      -0.067   9.859  22.144  0.00  0.00    +0.000 C 
ATOM      2  C   UNL     1       0.641   9.160  21.043  0.00  0.00    +0.000 A 
ATOM      3  C   UNL     1       1.091   9.677  19.819  0.00  0.00    +0.000 A 
ATOM      4  C   UNL     1       1.731   8.633  19.176  0.00  0.00    +0.000 A 
ATOM      5  C   UNL     1       2.340   8.631  17.828  0.00  0.00    +0.000 C 
ATOM      6  N   UNL     1       1.677   7.545  20.043  0.00  0.00    +0.000 N 
ATOM      7  C   UNL     1       2.239   6.218  20.026  0.00  0.00    +0.000 A 
ATOM      8  N   UNL     1       1.764   5.397  21.051  0.00  0.00    +0.000 NA
ATOM      9  N   UNL     1       2.208   4.251  21.237  0.00  0.00    +0.000 NA
ATOM     10  C   UNL     1       3.169   3.782  20.428  0.00  0.00    +0.000 A 
ATOM     11  N   UNL     1       3.819   2.645  20.465  0.00  0.00    +0.000 NA
ATOM     12  N   UNL     1       4.692   2.641  19.430  0.00  0.00    +0.000 NA
ATOM     13  C   UNL     1       4.578   3.770  18.747  0.00  0.00    +0.000 A 
ATOM     14  N   UNL     1       3.608   4.559  19.374  0.00  0.00    +0.000 N 
ATOM     15  N   UNL     1       3.136   5.849  19.128  0.00  0.00    +0.000 NA
ATOM     16  N   UNL     1       0.937   7.867  21.154  0.00  0.00    +0.000 NA
ENDROOT
BRANCH  13  17
ATOM     17  C   UNL     1       5.388   3.988  17.534  0.00  0.00    +0.000 A 
ATOM     18  C   UNL     1       6.714   4.424  17.535  0.00  0.00    +0.000 A 
ATOM     19  C   UNL     1       7.363   4.727  16.322  0.00  0.00    +0.000 A 
ATOM     20  C   UNL     1       6.689   4.589  15.097  0.00  0.00    +0.000 A 
ATOM     21  C   UNL     1       5.374   4.128  15.070  0.00  0.00    +0.000 A 
ATOM     22  C   UNL     1       4.742   3.832  16.281  0.00  0.00    +0.000 A 
BRANCH  20  23
ATOM     23  N   UNL     1       7.357   4.952  13.841  0.00  0.00    +0.000 N 
ATOM     24  O   UNL     1       6.925   4.450  12.796  0.00  0.00    +0.000 OA
ATOM     25  O   UNL     1       8.317   5.738  13.899  0.00  0.00    +0.000 OA
ENDBRANCH  20  23
ENDBRANCH  13  17
TORSDOF 2
ENDMDL
MODEL 2
REMARK VINA RESULT:      -9.0      0.467      1.239
REMARK  Name = 
REMARK  4 active torsions:
REMARK  status: ('A' for Active; 'I' for Inactive)
REMARK    1  A    between atoms: C_1  and  C_2
REMARK    2  A    between atoms: C_4  and  C_5
REMARK    3  A    between atoms: C_13  and  C_14
REMARK    4  A    between atoms: C_17  and  N_18
REMARK                            x       y       z     vdW  Elec       q    Type
REMARK                         _______ _______ _______ _____ _____    ______ ____
ROOT
ATOM      1  C   UNL     1       0.029   9.774  22.426  0.00  0.00    +0.000 C 
ATOM      2  C   UNL     1       0.651   9.168  21.223  0.00  0.00    +0.000 A 
ATOM      3  C   UNL     1       0.954   9.771  19.993  0.00  0.00    +0.000 A 
ATOM      4  C   UNL     1       1.568   8.794  19.230  0.00  0.00    +0.000 A 
ATOM      5  C   UNL     1       2.038   8.893  17.831  0.00  0.00    +0.000 C 
ATOM      6  N   UNL     1       1.646   7.659  20.033  0.00  0.00    +0.000 N 
ATOM      7  C   UNL     1       2.256   6.362  19.884  0.00  0.00    +0.000 A 
ATOM      8  N   UNL     1       1.921   5.466  20.901  0.00  0.00    +0.000 NA
ATOM      9  N   UNL     1       2.426   4.333  20.975  0.00  0.00    +0.000 NA
ATOM     10  C   UNL     1       3.319   3.954  20.049  0.00  0.00    +0.000 A 
ATOM     11  N   UNL     1       4.016   2.847  19.956  0.00  0.00    +0.000 NA
ATOM     12  N   UNL     1       4.779   2.940  18.842  0.00  0.00    +0.000 NA
ATOM     13  C   UNL     1       4.551   4.097  18.240  0.00  0.00    +0.000 A 
ATOM     14  N   UNL     1       3.619   4.806  19.005  0.00  0.00    +0.000 N 
ATOM     15  N   UNL     1       3.072   6.085  18.882  0.00  0.00    +0.000 NA
ATOM     16  N   UNL     1       1.009   7.887  21.229  0.00  0.00    +0.000 NA
ENDROOT
BRANCH  13  17
ATOM     17  C   UNL     1       5.226   4.417  16.969  0.00  0.00    +0.000 A 
ATOM     18  C   UNL     1       4.652   4.260  15.705  0.00  0.00    +0.000 A 
ATOM     19  C   UNL     1       5.421   4.470  14.544  0.00  0.00    +0.000 A 
ATOM     20  C   UNL     1       6.771   4.846  14.640  0.00  0.00    +0.000 A 
ATOM     21  C   UNL     1       7.357   5.036  15.890  0.00  0.00    +0.000 A 
ATOM     22  C   UNL     1       6.583   4.823  17.034  0.00  0.00    +0.000 A 
BRANCH  20  23
ATOM     23  N   UNL     1       7.579   5.016  13.426  0.00  0.00    +0.000 N 
ATOM     24  O   UNL     1       8.535   5.800  13.478  0.00  0.00    +0.000 OA
ATOM     25  O   UNL     1       7.255   4.369  12.416  0.00  0.00    +0.000 OA
ENDBRANCH  20  23
ENDBRANCH  13  17
TORSDOF 2
ENDMDL
MODEL 3
REMARK VINA RESULT:      -8.0      3.625      6.101
REMARK  Name = 
REMARK  4 active torsions:
REMARK  status: ('A' for Active; 'I' for Inactive)
REMARK    1  A    between atoms: C_1  and  C_2
REMARK    2  A    between atoms: C_4  and  C_5
REMARK    3  A    between atoms: C_13  and  C_14
REMARK    4  A    between atoms: C_17  and  N_18
REMARK                            x       y       z     vdW  Elec       q    Type
REMARK                         _______ _______ _______ _____ _____    ______ ____
ROOT
ATOM      1  C   UNL     1      -2.644  13.744  22.511  0.00  0.00    +0.000 C 
ATOM      2  C   UNL     1      -1.786  12.535  22.445  0.00  0.00    +0.000 A 
ATOM      3  C   UNL     1      -1.706  11.464  23.348  0.00  0.00    +0.000 A 
ATOM      4  C   UNL     1      -0.797  10.574  22.803  0.00  0.00    +0.000 A 
ATOM      5  C   UNL     1      -0.310   9.303  23.382  0.00  0.00    +0.000 C 
ATOM      6  N   UNL     1      -0.397  11.117  21.585  0.00  0.00    +0.000 N 
ATOM      7  C   UNL     1       0.429  10.650  20.499  0.00  0.00    +0.000 A 
ATOM      8  N   UNL     1       0.694  11.628  19.539  0.00  0.00    +0.000 NA
ATOM      9  N   UNL     1       1.317  11.374  18.494  0.00  0.00    +0.000 NA
ATOM     10  C   UNL     1       1.752  10.124  18.279  0.00  0.00    +0.000 A 
ATOM     11  N   UNL     1       2.371   9.615  17.242  0.00  0.00    +0.000 NA
ATOM     12  N   UNL     1       2.600   8.307  17.506  0.00  0.00    +0.000 NA
ATOM     13  C   UNL     1       2.132   8.006  18.708  0.00  0.00    +0.000 A 
ATOM     14  N   UNL     1       1.548   9.159  19.245  0.00  0.00    +0.000 N 
ATOM     15  N   UNL     1       0.857   9.402  20.434  0.00  0.00    +0.000 NA
ATOM     16  N   UNL     1      -0.959  12.359  21.418  0.00  0.00    +0.000 NA
ENDROOT
BRANCH  13  17
ATOM     17  C   UNL     1       2.306   6.648  19.253  0.00  0.00    +0.000 A 
ATOM     18  C   UNL     1       1.725   6.187  20.436  0.00  0.00    +0.000 A 
ATOM     19  C   UNL     1       2.055   4.915  20.942  0.00  0.00    +0.000 A 
ATOM     20  C   UNL     1       2.966   4.090  20.263  0.00  0.00    +0.000 A 
ATOM     21  C   UNL     1       3.537   4.517  19.065  0.00  0.00    +0.000 A 
ATOM     22  C   UNL     1       3.202   5.782  18.575  0.00  0.00    +0.000 A 
BRANCH  20  23
ATOM     23  N   UNL     1       3.342   2.786  20.821  0.00  0.00    +0.000 N 
ATOM     24  O   UNL     1       4.142   2.095  20.178  0.00  0.00    +0.000 OA
ATOM     25  O   UNL     1       2.833   2.448  21.903  0.00  0.00    +0.000 OA
ENDBRANCH  20  23
ENDBRANCH  13  17
TORSDOF 2
ENDMDL
MODEL 4
REMARK VINA RESULT:      -7.9      1.074      1.303
REMARK  Name = 
REMARK  4 active torsions:
REMARK  status: ('A' for Active; 'I' for Inactive)
REMARK    1  A    between atoms: C_1  and  C_2
REMARK    2  A    between atoms: C_4  and  C_5
REMARK    3  A    between atoms: C_13  and  C_14
REMARK    4  A    between atoms: C_17  and  N_18
REMARK                            x       y       z     vdW  Elec       q    Type
REMARK                         _______ _______ _______ _____ _____    ______ ____
ROOT
ATOM      1  C   UNL     1      -0.280  11.287  21.729  0.00  0.00    +0.000 C 
ATOM      2  C   UNL     1       0.427  10.476  20.707  0.00  0.00    +0.000 A 
ATOM      3  C   UNL     1       0.995  10.892  19.493  0.00  0.00    +0.000 A 
ATOM      4  C   UNL     1       1.575   9.766  18.937  0.00  0.00    +0.000 A 
ATOM      5  C   UNL     1       2.261   9.646  17.632  0.00  0.00    +0.000 C 
ATOM      6  N   UNL     1       1.372   8.730  19.845  0.00  0.00    +0.000 N 
ATOM      7  C   UNL     1       1.811   7.360  19.921  0.00  0.00    +0.000 A 
ATOM      8  N   UNL     1       1.204   6.634  20.947  0.00  0.00    +0.000 NA
ATOM      9  N   UNL     1       1.530   5.464  21.210  0.00  0.00    +0.000 NA
ATOM     10  C   UNL     1       2.492   4.875  20.485  0.00  0.00    +0.000 A 
ATOM     11  N   UNL     1       3.034   3.688  20.612  0.00  0.00    +0.000 NA
ATOM     12  N   UNL     1       3.963   3.558  19.636  0.00  0.00    +0.000 NA
ATOM     13  C   UNL     1       3.992   4.658  18.899  0.00  0.00    +0.000 A 
ATOM     14  N   UNL     1       3.062   5.558  19.429  0.00  0.00    +0.000 N 
ATOM     15  N   UNL     1       2.723   6.871  19.098  0.00  0.00    +0.000 NA
ATOM     16  N   UNL     1       0.599   9.169  20.892  0.00  0.00    +0.000 NA
ENDROOT
BRANCH  13  17
ATOM     17  C   UNL     1       4.890   4.745  17.732  0.00  0.00    +0.000 A 
ATOM     18  C   UNL     1       5.701   5.842  17.437  0.00  0.00    +0.000 A 
ATOM     19  C   UNL     1       6.427   5.885  16.230  0.00  0.00    +0.000 A 
ATOM     20  C   UNL     1       6.349   4.825  15.312  0.00  0.00    +0.000 A 
ATOM     21  C   UNL     1       5.567   3.708  15.598  0.00  0.00    +0.000 A 
ATOM     22  C   UNL     1       4.853   3.678  16.799  0.00  0.00    +0.000 A 
BRANCH  20  23
ATOM     23  N   UNL     1       7.070   4.899  14.035  0.00  0.00    +0.000 N 
ATOM     24  O   UNL     1       8.044   5.658  13.969  0.00  0.00    +0.000 OA
ATOM     25  O   UNL     1       6.659   4.199  13.094  0.00  0.00    +0.000 OA
ENDBRANCH  20  23
ENDBRANCH  13  17
TORSDOF 2
ENDMDL
MODEL 5
REMARK VINA RESULT:      -7.8      3.701      6.094
REMARK  Name = 
REMARK  4 active torsions:
REMARK  status: ('A' for Active; 'I' for Inactive)
REMARK    1  A    between atoms: C_1  and  C_2
REMARK    2  A    between atoms: C_4  and  C_5
REMARK    3  A    between atoms: C_13  and  C_14
REMARK    4  A    between atoms: C_17  and  N_18
REMARK                            x       y       z     vdW  Elec       q    Type
REMARK                         _______ _______ _______ _____ _____    ______ ____
ROOT
ATOM      1  C   UNL     1      -3.108  13.248  22.496  0.00  0.00    +0.000 C 
ATOM      2  C   UNL     1      -2.089  12.170  22.450  0.00  0.00    +0.000 A 
ATOM      3  C   UNL     1      -1.800  11.193  23.415  0.00  0.00    +0.000 A 
ATOM      4  C   UNL     1      -0.807  10.399  22.868  0.00  0.00    +0.000 A 
ATOM      5  C   UNL     1      -0.107   9.258  23.495  0.00  0.00    +0.000 C 
ATOM      6  N   UNL     1      -0.563  10.899  21.592  0.00  0.00    +0.000 N 
ATOM      7  C   UNL     1       0.255  10.471  20.485  0.00  0.00    +0.000 A 
ATOM      8  N   UNL     1       0.318  11.401  19.445  0.00  0.00    +0.000 NA
ATOM      9  N   UNL     1       0.907  11.158  18.378  0.00  0.00    +0.000 NA
ATOM     10  C   UNL     1       1.505   9.968  18.218  0.00  0.00    +0.000 A 
ATOM     11  N   UNL     1       2.128   9.473  17.176  0.00  0.00    +0.000 NA
ATOM     12  N   UNL     1       2.559   8.234  17.510  0.00  0.00    +0.000 NA
ATOM     13  C   UNL     1       2.212   7.963  18.759  0.00  0.00    +0.000 A 
ATOM     14  N   UNL     1       1.501   9.060  19.258  0.00  0.00    +0.000 N 
ATOM     15  N   UNL     1       0.855   9.294  20.473  0.00  0.00    +0.000 NA
ATOM     16  N   UNL     1      -1.308  12.034  21.382  0.00  0.00    +0.000 NA
ENDROOT
BRANCH  13  17
ATOM     17  C   UNL     1       2.614   6.688  19.380  0.00  0.00    +0.000 A 
ATOM     18  C   UNL     1       3.740   5.948  19.014  0.00  0.00    +0.000 A 
ATOM     19  C   UNL     1       3.968   4.677  19.577  0.00  0.00    +0.000 A 
ATOM     20  C   UNL     1       3.073   4.140  20.517  0.00  0.00    +0.000 A 
ATOM     21  C   UNL     1       1.958   4.873  20.918  0.00  0.00    +0.000 A 
ATOM     22  C   UNL     1       1.742   6.132  20.351  0.00  0.00    +0.000 A 
BRANCH  20  23
ATOM     23  N   UNL     1       3.293   2.795  21.063  0.00  0.00    +0.000 N 
ATOM     24  O   UNL     1       2.607   2.451  22.033  0.00  0.00    +0.000 OA
ATOM     25  O   UNL     1       4.156   2.082  20.523  0.00  0.00    +0.000 OA
ENDBRANCH  20  23
ENDBRANCH  13  17
TORSDOF 2
ENDMDL
MODEL 6
REMARK VINA RESULT:      -7.4      1.664      2.320
REMARK  Name = 
REMARK  4 active torsions:
REMARK  status: ('A' for Active; 'I' for Inactive)
REMARK    1  A    between atoms: C_1  and  C_2
REMARK    2  A    between atoms: C_4  and  C_5
REMARK    3  A    between atoms: C_13  and  C_14
REMARK    4  A    between atoms: C_17  and  N_18
REMARK                            x       y       z     vdW  Elec       q    Type
REMARK                         _______ _______ _______ _____ _____    ______ ____
ROOT
ATOM      1  C   UNL     1      -0.191  12.667  21.686  0.00  0.00    +0.000 C 
ATOM      2  C   UNL     1       0.429  11.752  20.696  0.00  0.00    +0.000 A 
ATOM      3  C   UNL     1       1.047  12.066  19.477  0.00  0.00    +0.000 A 
ATOM      4  C   UNL     1       1.503  10.866  18.960  0.00  0.00    +0.000 A 
ATOM      5  C   UNL     1       2.181  10.632  17.667  0.00  0.00    +0.000 C 
ATOM      6  N   UNL     1       1.179   9.888  19.896  0.00  0.00    +0.000 N 
ATOM      7  C   UNL     1       1.463   8.480  20.016  0.00  0.00    +0.000 A 
ATOM      8  N   UNL     1       0.772   7.857  21.057  0.00  0.00    +0.000 NA
ATOM      9  N   UNL     1       0.964   6.667  21.357  0.00  0.00    +0.000 NA
ATOM     10  C   UNL     1       1.859   5.953  20.660  0.00  0.00    +0.000 A 
ATOM     11  N   UNL     1       2.265   4.718  20.827  0.00  0.00    +0.000 NA
ATOM     12  N   UNL     1       3.181   4.456  19.866  0.00  0.00    +0.000 NA
ATOM     13  C   UNL     1       3.338   5.523  19.097  0.00  0.00    +0.000 A 
ATOM     14  N   UNL     1       2.509   6.537  19.591  0.00  0.00    +0.000 N 
ATOM     15  N   UNL     1       2.322   7.869  19.218  0.00  0.00    +0.000 NA
ATOM     16  N   UNL     1       0.452  10.441  20.921  0.00  0.00    +0.000 NA
ENDROOT
BRANCH  13  17
ATOM     17  C   UNL     1       4.248   5.475  17.938  0.00  0.00    +0.000 A 
ATOM     18  C   UNL     1       4.487   6.545  17.073  0.00  0.00    +0.000 A 
ATOM     19  C   UNL     1       5.273   6.363  15.918  0.00  0.00    +0.000 A 
ATOM     20  C   UNL     1       5.832   5.108  15.625  0.00  0.00    +0.000 A 
ATOM     21  C   UNL     1       5.631   4.034  16.489  0.00  0.00    +0.000 A 
ATOM     22  C   UNL     1       4.848   4.227  17.630  0.00  0.00    +0.000 A 
BRANCH  20  23
ATOM     23  N   UNL     1       6.610   4.914  14.396  0.00  0.00    +0.000 N 
ATOM     24  O   UNL     1       7.642   5.583  14.258  0.00  0.00    +0.000 OA
ATOM     25  O   UNL     1       6.188   4.095  13.563  0.00  0.00    +0.000 OA
ENDBRANCH  20  23
ENDBRANCH  13  17
TORSDOF 2
ENDMDL
MODEL 7
REMARK VINA RESULT:      -7.1      1.882      2.664
REMARK  Name = 
REMARK  4 active torsions:
REMARK  status: ('A' for Active; 'I' for Inactive)
REMARK    1  A    between atoms: C_1  and  C_2
REMARK    2  A    between atoms: C_4  and  C_5
REMARK    3  A    between atoms: C_13  and  C_14
REMARK    4  A    between atoms: C_17  and  N_18
REMARK                            x       y       z     vdW  Elec       q    Type
REMARK                         _______ _______ _______ _____ _____    ______ ____
ROOT
ATOM      1  C   UNL     1       0.348  13.298  21.471  0.00  0.00    +0.000 C 
ATOM      2  C   UNL     1       0.798  12.264  20.507  0.00  0.00    +0.000 A 
ATOM      3  C   UNL     1       1.373  12.435  19.239  0.00  0.00    +0.000 A 
ATOM      4  C   UNL     1       1.657  11.163  18.774  0.00  0.00    +0.000 A 
ATOM      5  C   UNL     1       2.223  10.780  17.463  0.00  0.00    +0.000 C 
ATOM      6  N   UNL     1       1.281  10.282  19.785  0.00  0.00    +0.000 N 
ATOM      7  C   UNL     1       1.409   8.860  19.976  0.00  0.00    +0.000 A 
ATOM      8  N   UNL     1       0.716   8.381  21.090  0.00  0.00    +0.000 NA
ATOM      9  N   UNL     1       0.789   7.194  21.452  0.00  0.00    +0.000 NA
ATOM     10  C   UNL     1       1.553   6.343  20.753  0.00  0.00    +0.000 A 
ATOM     11  N   UNL     1       1.824   5.080  20.974  0.00  0.00    +0.000 NA
ATOM     12  N   UNL     1       2.644   4.660  19.982  0.00  0.00    +0.000 NA
ATOM     13  C   UNL     1       2.875   5.657  19.142  0.00  0.00    +0.000 A 
ATOM     14  N   UNL     1       2.199   6.787  19.616  0.00  0.00    +0.000 N 
ATOM     15  N   UNL     1       2.142   8.109  19.172  0.00  0.00    +0.000 NA
ATOM     16  N   UNL     1       0.685  10.973  20.811  0.00  0.00    +0.000 NA
ENDROOT
BRANCH  13  17
ATOM     17  C   UNL     1       3.701   5.439  17.940  0.00  0.00    +0.000 A 
ATOM     18  C   UNL     1       3.949   4.191  17.365  0.00  0.00    +0.000 A 
ATOM     19  C   UNL     1       4.857   4.070  16.295  0.00  0.00    +0.000 A 
ATOM     20  C   UNL     1       5.519   5.200  15.788  0.00  0.00    +0.000 A 
ATOM     21  C   UNL     1       5.266   6.459  16.328  0.00  0.00    +0.000 A 
ATOM     22  C   UNL     1       4.364   6.566  17.390  0.00  0.00    +0.000 A 
BRANCH  20  23
ATOM     23  N   UNL     1       6.500   5.059  14.705  0.00  0.00    +0.000 N 
ATOM     24  O   UNL     1       6.167   4.399  13.713  0.00  0.00    +0.000 OA
ATOM     25  O   UNL     1       7.606   5.605  14.847  0.00  0.00    +0.000 OA
ENDBRANCH  20  23
ENDBRANCH  13  17
TORSDOF 2
ENDMDL
MODEL 8
REMARK VINA RESULT:      -7.0      4.860      7.497
REMARK  Name = 
REMARK  4 active torsions:
REMARK  status: ('A' for Active; 'I' for Inactive)
REMARK    1  A    between atoms: C_1  and  C_2
REMARK    2  A    between atoms: C_4  and  C_5
REMARK    3  A    between atoms: C_13  and  C_14
REMARK    4  A    between atoms: C_17  and  N_18
REMARK                            x       y       z     vdW  Elec       q    Type
REMARK                         _______ _______ _______ _____ _____    ______ ____
ROOT
ATOM      1  C   UNL     1      -6.527  13.527  17.135  0.00  0.00    +0.000 C 
ATOM      2  C   UNL     1      -5.468  12.505  17.328  0.00  0.00    +0.000 A 
ATOM      3  C   UNL     1      -5.115  11.436  16.491  0.00  0.00    +0.000 A 
ATOM      4  C   UNL     1      -4.037  10.817  17.098  0.00  0.00    +0.000 A 
ATOM      5  C   UNL     1      -3.317   9.604  16.653  0.00  0.00    +0.000 C 
ATOM      6  N   UNL     1      -3.758  11.551  18.248  0.00  0.00    +0.000 N 
ATOM      7  C   UNL     1      -2.715  11.503  19.241  0.00  0.00    +0.000 A 
ATOM      8  N   UNL     1      -2.944  12.343  20.332  0.00  0.00    +0.000 NA
ATOM      9  N   UNL     1      -2.106  12.491  21.238  0.00  0.00    +0.000 NA
ATOM     10  C   UNL     1      -0.946  11.822  21.172  0.00  0.00    +0.000 A 
ATOM     11  N   UNL     1       0.095  11.862  21.967  0.00  0.00    +0.000 NA
ATOM     12  N   UNL     1       1.016  11.001  21.475  0.00  0.00    +0.000 NA
ATOM     13  C   UNL     1       0.546  10.422  20.381  0.00  0.00    +0.000 A 
ATOM     14  N   UNL     1      -0.728  10.943  20.129  0.00  0.00    +0.000 N 
ATOM     15  N   UNL     1      -1.642  10.745  19.093  0.00  0.00    +0.000 NA
ATOM     16  N   UNL     1      -4.696  12.540  18.412  0.00  0.00    +0.000 NA
ENDROOT
BRANCH  13  17
ATOM     17  C   UNL     1       1.344   9.399  19.682  0.00  0.00    +0.000 A 
ATOM     18  C   UNL     1       1.737   9.476  18.344  0.00  0.00    +0.000 A 
ATOM     19  C   UNL     1       2.388   8.388  17.730  0.00  0.00    +0.000 A 
ATOM     20  C   UNL     1       2.655   7.215  18.454  0.00  0.00    +0.000 A 
ATOM     21  C   UNL     1       2.297   7.125  19.798  0.00  0.00    +0.000 A 
ATOM     22  C   UNL     1       1.652   8.212  20.394  0.00  0.00    +0.000 A 
BRANCH  20  23
ATOM     23  N   UNL     1       3.290   6.067  17.794  0.00  0.00    +0.000 N 
ATOM     24  O   UNL     1       4.204   6.299  16.993  0.00  0.00    +0.000 OA
ATOM     25  O   UNL     1       2.871   4.931  18.073  0.00  0.00    +0.000 OA
ENDBRANCH  20  23
ENDBRANCH  13  17
TORSDOF 2
ENDMDL
MODEL 9
REMARK VINA RESULT:      -6.9      4.198      6.749
REMARK  Name = 
REMARK  4 active torsions:
REMARK  status: ('A' for Active; 'I' for Inactive)
REMARK    1  A    between atoms: C_1  and  C_2
REMARK    2  A    between atoms: C_4  and  C_5
REMARK    3  A    between atoms: C_13  and  C_14
REMARK    4  A    between atoms: C_17  and  N_18
REMARK                            x       y       z     vdW  Elec       q    Type
REMARK                         _______ _______ _______ _____ _____    ______ ____
ROOT
ATOM      1  C   UNL     1       1.724  17.436  20.767  0.00  0.00    +0.000 C 
ATOM      2  C   UNL     1       1.708  16.048  20.241  0.00  0.00    +0.000 A 
ATOM      3  C   UNL     1       2.322  15.539  19.087  0.00  0.00    +0.000 A 
ATOM      4  C   UNL     1       2.046  14.183  19.076  0.00  0.00    +0.000 A 
ATOM      5  C   UNL     1       2.417  13.188  18.047  0.00  0.00    +0.000 C 
ATOM      6  N   UNL     1       1.316  13.921  20.232  0.00  0.00    +0.000 N 
ATOM      7  C   UNL     1       0.825  12.720  20.860  0.00  0.00    +0.000 A 
ATOM      8  N   UNL     1      -0.023  12.961  21.942  0.00  0.00    +0.000 NA
ATOM      9  N   UNL     1      -0.467  12.042  22.650  0.00  0.00    +0.000 NA
ATOM     10  C   UNL     1      -0.125  10.776  22.368  0.00  0.00    +0.000 A 
ATOM     11  N   UNL     1      -0.419   9.665  22.998  0.00  0.00    +0.000 NA
ATOM     12  N   UNL     1       0.160   8.647  22.321  0.00  0.00    +0.000 NA
ATOM     13  C   UNL     1       0.806   9.123  21.267  0.00  0.00    +0.000 A 
ATOM     14  N   UNL     1       0.666  10.515  21.267  0.00  0.00    +0.000 N 
ATOM     15  N   UNL     1       1.183  11.517  20.444  0.00  0.00    +0.000 NA
ATOM     16  N   UNL     1       1.054  15.094  20.897  0.00  0.00    +0.000 NA
ENDROOT
BRANCH  13  17
ATOM     17  C   UNL     1       1.481   8.204  20.332  0.00  0.00    +0.000 A 
ATOM     18  C   UNL     1       1.842   8.529  19.023  0.00  0.00    +0.000 A 
ATOM     19  C   UNL     1       2.365   7.542  18.165  0.00  0.00    +0.000 A 
ATOM     20  C   UNL     1       2.537   6.222  18.614  0.00  0.00    +0.000 A 
ATOM     21  C   UNL     1       2.210   5.882  19.925  0.00  0.00    +0.000 A 
ATOM     22  C   UNL     1       1.691   6.870  20.766  0.00  0.00    +0.000 A 
BRANCH  20  23
ATOM     23  N   UNL     1       3.038   5.189  17.700  0.00  0.00    +0.000 N 
ATOM     24  O   UNL     1       2.357   4.165  17.563  0.00  0.00    +0.000 OA
ATOM     25  O   UNL     1       4.117   5.399  17.120  0.00  0.00    +0.000 OA
ENDBRANCH  20  23
ENDBRANCH  13  17
TORSDOF 2
ENDMDL
