MODEL 1
REMARK VINA RESULT:      -7.3      0.000      0.000
REMARK  Name = 
REMARK  4 active torsions:
REMARK  status: ('A' for Active; 'I' for Inactive)
REMARK    1  A    between atoms: C_1  and  O_2
REMARK    2  A    between atoms: O_2  and  C_3
REMARK    3  A    between atoms: C_6  and  C_7
REMARK    4  A    between atoms: C_25  and  C_27
REMARK                            x       y       z     vdW  Elec       q    Type
REMARK                         _______ _______ _______ _____ _____    ______ ____
ROOT
ATOM      1  C   UNL     1      -3.672  11.949  19.177  0.00  0.00    +0.000 A 
ATOM      2  N   UNL     1      -2.678  12.028  20.115  0.00  0.00    +0.000 NA
ATOM      3  C   UNL     1      -3.142  12.849  21.019  0.00  0.00    +0.000 A 
ATOM      4  N   UNL     1      -4.460  13.118  20.736  0.00  0.00    +0.000 N 
ATOM      5  N   UNL     1      -4.819  12.523  19.566  0.00  0.00    +0.000 NA
ATOM      6  C   UNL     1      -5.263  14.222  21.332  0.00  0.00    +0.000 C 
ATOM      7  C   UNL     1      -5.704  15.114  20.134  0.00  0.00    +0.000 C 
ATOM      8  C   UNL     1      -6.786  16.165  20.362  0.00  0.00    +0.000 C 
ATOM      9  C   UNL     1      -7.912  15.758  21.298  0.00  0.00    +0.000 C 
ATOM     10  C   UNL     1      -7.539  14.789  22.412  0.00  0.00    +0.000 C 
ATOM     11  C   UNL     1      -6.562  13.675  21.996  0.00  0.00    +0.000 C 
ATOM     12  C   UNL     1      -4.407  14.954  22.464  0.00  0.00    +0.000 C 
ATOM     13  C   UNL     1      -3.716  16.259  22.022  0.00  0.00    +0.000 C 
ATOM     14  C   UNL     1      -3.023  16.964  23.189  0.00  0.00    +0.000 C 
ATOM     15  C   UNL     1      -2.020  16.060  23.885  0.00  0.00    +0.000 C 
ATOM     16  C   UNL     1      -2.674  14.751  24.309  0.00  0.00    +0.000 C 
ATOM     17  C   UNL     1      -3.352  14.007  23.140  0.00  0.00    +0.000 C 
ATOM     18  N   UNL     1      -2.476  13.442  22.084  0.00  0.00    +0.000 N 
ATOM     19  C   UNL     1      -1.104  13.184  22.249  0.00  0.00    +0.000 C 
ATOM     20  O   UNL     1      -0.535  13.212  23.341  0.00  0.00    +0.000 OA
ENDROOT
BRANCH  19  21
ATOM     21  C   UNL     1      -0.203  12.933  21.071  0.00  0.00    +0.000 A 
ATOM     22  C   UNL     1       0.330  11.665  20.774  0.00  0.00    +0.000 A 
ATOM     23  C   UNL     1       1.203  11.500  19.702  0.00  0.00    +0.000 A 
ATOM     24  C   UNL     1       1.499  12.585  18.879  0.00  0.00    +0.000 A 
ATOM     25  F   UNL     1       2.351  12.431  17.859  0.00  0.00    +0.000 F 
ATOM     26  C   UNL     1       0.926  13.828  19.111  0.00  0.00    +0.000 A 
ATOM     27  C   UNL     1       0.074  14.003  20.206  0.00  0.00    +0.000 A 
ENDBRANCH  19  21
BRANCH   1  31
ATOM     28  C   UNL     1      -2.966  10.282  15.295  0.00  0.00    +0.000 A 
ATOM     29  C   UNL     1      -4.106  11.038  15.556  0.00  0.00    +0.000 A 
ATOM     30  C   UNL     1      -4.302  11.611  16.814  0.00  0.00    +0.000 A 
ATOM     31  C   UNL     1      -3.369  11.426  17.845  0.00  0.00    +0.000 A 
ATOM     32  C   UNL     1      -2.236  10.641  17.585  0.00  0.00    +0.000 A 
ATOM     33  C   UNL     1      -2.038  10.068  16.317  0.00  0.00    +0.000 A 
BRANCH  28  35
ATOM     34  C   UNL     1      -4.053   9.948  13.225  0.00  0.00    +0.000 C 
ATOM     35  O   UNL     1      -2.897   9.764  14.033  0.00  0.00    +0.000 OA
ENDBRANCH  28  35
ENDBRANCH   1  31
TORSDOF 3
ENDMDL
MODEL 2
REMARK VINA RESULT:      -7.3      0.551      1.288
REMARK  Name = 
REMARK  4 active torsions:
REMARK  status: ('A' for Active; 'I' for Inactive)
REMARK    1  A    between atoms: C_1  and  O_2
REMARK    2  A    between atoms: O_2  and  C_3
REMARK    3  A    between atoms: C_6  and  C_7
REMARK    4  A    between atoms: C_25  and  C_27
REMARK                            x       y       z     vdW  Elec       q    Type
REMARK                         _______ _______ _______ _____ _____    ______ ____
ROOT
ATOM      1  C   UNL     1      -4.035  11.920  19.150  0.00  0.00    +0.000 A 
ATOM      2  N   UNL     1      -3.084  11.835  20.132  0.00  0.00    +0.000 NA
ATOM      3  C   UNL     1      -3.452  12.715  21.025  0.00  0.00    +0.000 A 
ATOM      4  N   UNL     1      -4.697  13.191  20.688  0.00  0.00    +0.000 N 
ATOM      5  N   UNL     1      -5.093  12.667  19.496  0.00  0.00    +0.000 NA
ATOM      6  C   UNL     1      -5.341  14.405  21.261  0.00  0.00    +0.000 C 
ATOM      7  C   UNL     1      -5.581  15.363  20.057  0.00  0.00    +0.000 C 
ATOM      8  C   UNL     1      -6.492  16.571  20.251  0.00  0.00    +0.000 C 
ATOM      9  C   UNL     1      -7.709  16.342  21.132  0.00  0.00    +0.000 C 
ATOM     10  C   UNL     1      -7.545  15.321  22.249  0.00  0.00    +0.000 C 
ATOM     11  C   UNL     1      -6.739  14.068  21.862  0.00  0.00    +0.000 C 
ATOM     12  C   UNL     1      -4.432  14.985  22.439  0.00  0.00    +0.000 C 
ATOM     13  C   UNL     1      -3.524  16.167  22.043  0.00  0.00    +0.000 C 
ATOM     14  C   UNL     1      -2.781  16.746  23.248  0.00  0.00    +0.000 C 
ATOM     15  C   UNL     1      -1.966  15.691  23.975  0.00  0.00    +0.000 C 
ATOM     16  C   UNL     1      -2.837  14.501  24.355  0.00  0.00    +0.000 C 
ATOM     17  C   UNL     1      -3.571  13.880  23.149  0.00  0.00    +0.000 C 
ATOM     18  N   UNL     1      -2.750  13.189  22.124  0.00  0.00    +0.000 N 
ATOM     19  C   UNL     1      -1.444  12.715  22.345  0.00  0.00    +0.000 C 
ATOM     20  O   UNL     1      -0.928  12.646  23.461  0.00  0.00    +0.000 OA
ENDROOT
BRANCH  19  21
ATOM     21  C   UNL     1      -0.543  12.330  21.205  0.00  0.00    +0.000 A 
ATOM     22  C   UNL     1      -0.040  13.263  20.280  0.00  0.00    +0.000 A 
ATOM     23  C   UNL     1       0.748  12.842  19.211  0.00  0.00    +0.000 A 
ATOM     24  C   UNL     1       1.093  11.497  19.095  0.00  0.00    +0.000 A 
ATOM     25  F   UNL     1       1.835  11.090  18.058  0.00  0.00    +0.000 F 
ATOM     26  C   UNL     1       0.667  10.571  20.037  0.00  0.00    +0.000 A 
ATOM     27  C   UNL     1      -0.149  10.987  21.094  0.00  0.00    +0.000 A 
ENDBRANCH  19  21
BRANCH   1  31
ATOM     28  C   UNL     1      -3.042  10.418  15.263  0.00  0.00    +0.000 A 
ATOM     29  C   UNL     1      -2.223  10.168  16.362  0.00  0.00    +0.000 A 
ATOM     30  C   UNL     1      -2.581  10.628  17.630  0.00  0.00    +0.000 A 
ATOM     31  C   UNL     1      -3.759  11.363  17.826  0.00  0.00    +0.000 A 
ATOM     32  C   UNL     1      -4.567  11.636  16.712  0.00  0.00    +0.000 A 
ATOM     33  C   UNL     1      -4.207  11.169  15.435  0.00  0.00    +0.000 A 
BRANCH  28  35
ATOM     34  C   UNL     1      -3.553   9.717  13.066  0.00  0.00    +0.000 C 
ATOM     35  O   UNL     1      -2.575   9.929  14.076  0.00  0.00    +0.000 OA
ENDBRANCH  28  35
ENDBRANCH   1  31
TORSDOF 3
ENDMDL
MODEL 3
REMARK VINA RESULT:      -7.2      3.276      4.137
REMARK  Name = 
REMARK  4 active torsions:
REMARK  status: ('A' for Active; 'I' for Inactive)
REMARK    1  A    between atoms: C_1  and  O_2
REMARK    2  A    between atoms: O_2  and  C_3
REMARK    3  A    between atoms: C_6  and  C_7
REMARK    4  A    between atoms: C_25  and  C_27
REMARK                            x       y       z     vdW  Elec       q    Type
REMARK                         _______ _______ _______ _____ _____    ______ ____
ROOT
ATOM      1  C   UNL     1      -0.337  11.441  21.630  0.00  0.00    +0.000 A 
ATOM      2  N   UNL     1       0.302  12.622  21.904  0.00  0.00    +0.000 NA
ATOM      3  C   UNL     1      -0.636  13.404  22.369  0.00  0.00    +0.000 A 
ATOM      4  N   UNL     1      -1.779  12.662  22.552  0.00  0.00    +0.000 N 
ATOM      5  N   UNL     1      -1.590  11.391  22.104  0.00  0.00    +0.000 NA
ATOM      6  C   UNL     1      -3.141  13.218  22.777  0.00  0.00    +0.000 C 
ATOM      7  C   UNL     1      -4.009  12.698  21.593  0.00  0.00    +0.000 C 
ATOM      8  C   UNL     1      -5.525  12.839  21.677  0.00  0.00    +0.000 C 
ATOM      9  C   UNL     1      -6.132  12.616  23.053  0.00  0.00    +0.000 C 
ATOM     10  C   UNL     1      -5.260  13.004  24.239  0.00  0.00    +0.000 C 
ATOM     11  C   UNL     1      -3.770  12.652  24.086  0.00  0.00    +0.000 C 
ATOM     12  C   UNL     1      -3.053  14.805  22.927  0.00  0.00    +0.000 C 
ATOM     13  C   UNL     1      -3.394  15.604  21.652  0.00  0.00    +0.000 C 
ATOM     14  C   UNL     1      -3.409  17.111  21.908  0.00  0.00    +0.000 C 
ATOM     15  C   UNL     1      -2.093  17.603  22.487  0.00  0.00    +0.000 C 
ATOM     16  C   UNL     1      -1.722  16.812  23.734  0.00  0.00    +0.000 C 
ATOM     17  C   UNL     1      -1.670  15.289  23.491  0.00  0.00    +0.000 C 
ATOM     18  N   UNL     1      -0.591  14.769  22.614  0.00  0.00    +0.000 N 
ATOM     19  C   UNL     1       0.590  15.470  22.313  0.00  0.00    +0.000 C 
ATOM     20  O   UNL     1       0.941  16.493  22.903  0.00  0.00    +0.000 OA
ENDROOT
BRANCH  19  21
ATOM     21  C   UNL     1       1.483  15.057  21.176  0.00  0.00    +0.000 A 
ATOM     22  C   UNL     1       1.067  15.076  19.832  0.00  0.00    +0.000 A 
ATOM     23  C   UNL     1       1.918  14.631  18.824  0.00  0.00    +0.000 A 
ATOM     24  C   UNL     1       3.212  14.225  19.141  0.00  0.00    +0.000 A 
ATOM     25  F   UNL     1       4.025  13.781  18.175  0.00  0.00    +0.000 F 
ATOM     26  C   UNL     1       3.668  14.267  20.452  0.00  0.00    +0.000 A 
ATOM     27  C   UNL     1       2.805  14.685  21.470  0.00  0.00    +0.000 A 
ENDBRANCH  19  21
BRANCH   1  31
ATOM     28  C   UNL     1       1.723   8.588  19.189  0.00  0.00    +0.000 A 
ATOM     29  C   UNL     1       1.444   8.321  20.527  0.00  0.00    +0.000 A 
ATOM     30  C   UNL     1       0.734   9.242  21.299  0.00  0.00    +0.000 A 
ATOM     31  C   UNL     1       0.302  10.460  20.754  0.00  0.00    +0.000 A 
ATOM     32  C   UNL     1       0.611  10.737  19.414  0.00  0.00    +0.000 A 
ATOM     33  C   UNL     1       1.322   9.806  18.636  0.00  0.00    +0.000 A 
BRANCH  28  35
ATOM     34  C   UNL     1       2.580   6.388  19.247  0.00  0.00    +0.000 C 
ATOM     35  O   UNL     1       2.436   7.616  18.546  0.00  0.00    +0.000 OA
ENDBRANCH  28  35
ENDBRANCH   1  31
TORSDOF 3
ENDMDL
MODEL 4
REMARK VINA RESULT:      -7.1      3.477      4.247
REMARK  Name = 
REMARK  4 active torsions:
REMARK  status: ('A' for Active; 'I' for Inactive)
REMARK    1  A    between atoms: C_1  and  O_2
REMARK    2  A    between atoms: O_2  and  C_3
REMARK    3  A    between atoms: C_6  and  C_7
REMARK    4  A    between atoms: C_25  and  C_27
REMARK                            x       y       z     vdW  Elec       q    Type
REMARK                         _______ _______ _______ _____ _____    ______ ____
ROOT
ATOM      1  C   UNL     1      -1.840  12.082  22.742  0.00  0.00    +0.000 A 
ATOM      2  N   UNL     1      -1.472  13.400  22.778  0.00  0.00    +0.000 NA
ATOM      3  C   UNL     1      -2.600  14.056  22.853  0.00  0.00    +0.000 A 
ATOM      4  N   UNL     1      -3.621  13.156  23.048  0.00  0.00    +0.000 N 
ATOM      5  N   UNL     1      -3.140  11.884  23.005  0.00  0.00    +0.000 NA
ATOM      6  C   UNL     1      -5.072  13.450  22.890  0.00  0.00    +0.000 C 
ATOM      7  C   UNL     1      -5.577  12.489  21.773  0.00  0.00    +0.000 C 
ATOM      8  C   UNL     1      -7.079  12.324  21.571  0.00  0.00    +0.000 C 
ATOM      9  C   UNL     1      -7.916  12.316  22.840  0.00  0.00    +0.000 C 
ATOM     10  C   UNL     1      -7.387  13.153  23.996  0.00  0.00    +0.000 C 
ATOM     11  C   UNL     1      -5.861  13.096  24.187  0.00  0.00    +0.000 C 
ATOM     12  C   UNL     1      -5.274  15.009  22.607  0.00  0.00    +0.000 C 
ATOM     13  C   UNL     1      -5.464  15.386  21.124  0.00  0.00    +0.000 C 
ATOM     14  C   UNL     1      -5.775  16.873  20.947  0.00  0.00    +0.000 C 
ATOM     15  C   UNL     1      -4.707  17.756  21.571  0.00  0.00    +0.000 C 
ATOM     16  C   UNL     1      -4.482  17.385  23.030  0.00  0.00    +0.000 C 
ATOM     17  C   UNL     1      -4.136  15.895  23.229  0.00  0.00    +0.000 C 
ATOM     18  N   UNL     1      -2.828  15.418  22.714  0.00  0.00    +0.000 N 
ATOM     19  C   UNL     1      -1.739  16.258  22.424  0.00  0.00    +0.000 C 
ATOM     20  O   UNL     1      -1.689  17.444  22.756  0.00  0.00    +0.000 OA
ENDROOT
BRANCH  19  21
ATOM     21  C   UNL     1      -0.573  15.781  21.603  0.00  0.00    +0.000 A 
ATOM     22  C   UNL     1      -0.678  15.468  20.236  0.00  0.00    +0.000 A 
ATOM     23  C   UNL     1       0.422  14.978  19.537  0.00  0.00    +0.000 A 
ATOM     24  C   UNL     1       1.652  14.859  20.181  0.00  0.00    +0.000 A 
ATOM     25  F   UNL     1       2.706  14.372  19.515  0.00  0.00    +0.000 F 
ATOM     26  C   UNL     1       1.796  15.231  21.511  0.00  0.00    +0.000 A 
ATOM     27  C   UNL     1       0.684  15.694  22.222  0.00  0.00    +0.000 A 
ENDBRANCH  19  21
BRANCH   1  31
ATOM     28  C   UNL     1       0.812   9.067  21.251  0.00  0.00    +0.000 A 
ATOM     29  C   UNL     1       0.420  10.139  20.453  0.00  0.00    +0.000 A 
ATOM     30  C   UNL     1      -0.410  11.137  20.966  0.00  0.00    +0.000 A 
ATOM     31  C   UNL     1      -0.882  11.075  22.285  0.00  0.00    +0.000 A 
ATOM     32  C   UNL     1      -0.508   9.980  23.076  0.00  0.00    +0.000 A 
ATOM     33  C   UNL     1       0.332   8.978  22.559  0.00  0.00    +0.000 A 
BRANCH  28  35
ATOM     34  C   UNL     1       1.874   8.391  19.252  0.00  0.00    +0.000 C 
ATOM     35  O   UNL     1       1.613   8.151  20.629  0.00  0.00    +0.000 OA
ENDBRANCH  28  35
ENDBRANCH   1  31
TORSDOF 3
ENDMDL
MODEL 5
REMARK VINA RESULT:      -7.1      1.099      1.484
REMARK  Name = 
REMARK  4 active torsions:
REMARK  status: ('A' for Active; 'I' for Inactive)
REMARK    1  A    between atoms: C_1  and  O_2
REMARK    2  A    between atoms: O_2  and  C_3
REMARK    3  A    between atoms: C_6  and  C_7
REMARK    4  A    between atoms: C_25  and  C_27
REMARK                            x       y       z     vdW  Elec       q    Type
REMARK                         _______ _______ _______ _____ _____    ______ ____
ROOT
ATOM      1  C   UNL     1      -3.197  12.334  20.110  0.00  0.00    +0.000 A 
ATOM      2  N   UNL     1      -2.127  12.815  20.817  0.00  0.00    +0.000 NA
ATOM      3  C   UNL     1      -2.648  13.654  21.673  0.00  0.00    +0.000 A 
ATOM      4  N   UNL     1      -4.017  13.549  21.617  0.00  0.00    +0.000 N 
ATOM      5  N   UNL     1      -4.381  12.682  20.632  0.00  0.00    +0.000 NA
ATOM      6  C   UNL     1      -4.982  14.521  22.199  0.00  0.00    +0.000 C 
ATOM      7  C   UNL     1      -5.822  15.051  21.000  0.00  0.00    +0.000 C 
ATOM      8  C   UNL     1      -7.095  15.841  21.287  0.00  0.00    +0.000 C 
ATOM      9  C   UNL     1      -7.916  15.357  22.471  0.00  0.00    +0.000 C 
ATOM     10  C   UNL     1      -7.135  14.723  23.613  0.00  0.00    +0.000 C 
ATOM     11  C   UNL     1      -5.973  13.814  23.173  0.00  0.00    +0.000 C 
ATOM     12  C   UNL     1      -4.188  15.628  23.033  0.00  0.00    +0.000 C 
ATOM     13  C   UNL     1      -3.942  16.957  22.289  0.00  0.00    +0.000 C 
ATOM     14  C   UNL     1      -3.290  18.005  23.191  0.00  0.00    +0.000 C 
ATOM     15  C   UNL     1      -1.989  17.505  23.796  0.00  0.00    +0.000 C 
ATOM     16  C   UNL     1      -2.201  16.180  24.515  0.00  0.00    +0.000 C 
ATOM     17  C   UNL     1      -2.829  15.096  23.614  0.00  0.00    +0.000 C 
ATOM     18  N   UNL     1      -2.008  14.571  22.495  0.00  0.00    +0.000 N 
ATOM     19  C   UNL     1      -0.608  14.678  22.424  0.00  0.00    +0.000 C 
ATOM     20  O   UNL     1       0.094  15.037  23.371  0.00  0.00    +0.000 OA
ENDROOT
BRANCH  19  21
ATOM     21  C   UNL     1       0.136  14.435  21.140  0.00  0.00    +0.000 A 
ATOM     22  C   UNL     1       0.067  15.309  20.040  0.00  0.00    +0.000 A 
ATOM     23  C   UNL     1       0.734  15.007  18.856  0.00  0.00    +0.000 A 
ATOM     24  C   UNL     1       1.528  13.864  18.782  0.00  0.00    +0.000 A 
ATOM     25  F   UNL     1       2.156  13.564  17.639  0.00  0.00    +0.000 F 
ATOM     26  C   UNL     1       1.669  13.026  19.880  0.00  0.00    +0.000 A 
ATOM     27  C   UNL     1       0.975  13.312  21.060  0.00  0.00    +0.000 A 
ENDBRANCH  19  21
BRANCH   1  31
ATOM     28  C   UNL     1      -2.719  10.232  16.409  0.00  0.00    +0.000 A 
ATOM     29  C   UNL     1      -3.864  10.981  16.667  0.00  0.00    +0.000 A 
ATOM     30  C   UNL     1      -3.987  11.695  17.860  0.00  0.00    +0.000 A 
ATOM     31  C   UNL     1      -2.974  11.663  18.829  0.00  0.00    +0.000 A 
ATOM     32  C   UNL     1      -1.835  10.885  18.576  0.00  0.00    +0.000 A 
ATOM     33  C   UNL     1      -1.711  10.169  17.372  0.00  0.00    +0.000 A 
BRANCH  28  35
ATOM     34  C   UNL     1      -3.618  10.072  14.230  0.00  0.00    +0.000 C 
ATOM     35  O   UNL     1      -2.725   9.568  15.215  0.00  0.00    +0.000 OA
ENDBRANCH  28  35
ENDBRANCH   1  31
TORSDOF 3
ENDMDL
MODEL 6
REMARK VINA RESULT:      -7.1      3.317      4.051
REMARK  Name = 
REMARK  4 active torsions:
REMARK  status: ('A' for Active; 'I' for Inactive)
REMARK    1  A    between atoms: C_1  and  O_2
REMARK    2  A    between atoms: O_2  and  C_3
REMARK    3  A    between atoms: C_6  and  C_7
REMARK    4  A    between atoms: C_25  and  C_27
REMARK                            x       y       z     vdW  Elec       q    Type
REMARK                         _______ _______ _______ _____ _____    ______ ____
ROOT
ATOM      1  C   UNL     1      -0.539  11.610  22.063  0.00  0.00    +0.000 A 
ATOM      2  N   UNL     1       0.028  12.848  22.210  0.00  0.00    +0.000 NA
ATOM      3  C   UNL     1      -0.976  13.643  22.469  0.00  0.00    +0.000 A 
ATOM      4  N   UNL     1      -2.103  12.880  22.662  0.00  0.00    +0.000 N 
ATOM      5  N   UNL     1      -1.828  11.568  22.429  0.00  0.00    +0.000 NA
ATOM      6  C   UNL     1      -3.500  13.395  22.682  0.00  0.00    +0.000 C 
ATOM      7  C   UNL     1      -4.235  12.663  21.519  0.00  0.00    +0.000 C 
ATOM      8  C   UNL     1      -5.756  12.740  21.449  0.00  0.00    +0.000 C 
ATOM      9  C   UNL     1      -6.480  12.692  22.785  0.00  0.00    +0.000 C 
ATOM     10  C   UNL     1      -5.737  13.293  23.970  0.00  0.00    +0.000 C 
ATOM     11  C   UNL     1      -4.227  12.997  24.002  0.00  0.00    +0.000 C 
ATOM     12  C   UNL     1      -3.483  14.989  22.597  0.00  0.00    +0.000 C 
ATOM     13  C   UNL     1      -3.733  15.573  21.192  0.00  0.00    +0.000 C 
ATOM     14  C   UNL     1      -3.826  17.099  21.214  0.00  0.00    +0.000 C 
ATOM     15  C   UNL     1      -2.589  17.736  21.824  0.00  0.00    +0.000 C 
ATOM     16  C   UNL     1      -2.306  17.156  23.204  0.00  0.00    +0.000 C 
ATOM     17  C   UNL     1      -2.177  15.619  23.199  0.00  0.00    +0.000 C 
ATOM     18  N   UNL     1      -1.004  15.030  22.507  0.00  0.00    +0.000 N 
ATOM     19  C   UNL     1       0.175  15.736  22.207  0.00  0.00    +0.000 C 
ATOM     20  O   UNL     1       0.432  16.851  22.663  0.00  0.00    +0.000 OA
ENDROOT
BRANCH  19  21
ATOM     21  C   UNL     1       1.184  15.205  21.227  0.00  0.00    +0.000 A 
ATOM     22  C   UNL     1       2.468  14.776  21.610  0.00  0.00    +0.000 A 
ATOM     23  C   UNL     1       3.381  14.344  20.651  0.00  0.00    +0.000 A 
ATOM     24  C   UNL     1       2.998  14.273  19.314  0.00  0.00    +0.000 A 
ATOM     25  F   UNL     1       3.881  13.874  18.390  0.00  0.00    +0.000 F 
ATOM     26  C   UNL     1       1.712  14.622  18.925  0.00  0.00    +0.000 A 
ATOM     27  C   UNL     1       0.803  15.085  19.881  0.00  0.00    +0.000 A 
ENDBRANCH  19  21
BRANCH   1  31
ATOM     28  C   UNL     1       1.489   8.456  19.993  0.00  0.00    +0.000 A 
ATOM     29  C   UNL     1       1.175   9.652  19.351  0.00  0.00    +0.000 A 
ATOM     30  C   UNL     1       0.552  10.687  20.051  0.00  0.00    +0.000 A 
ATOM     31  C   UNL     1       0.214  10.543  21.404  0.00  0.00    +0.000 A 
ATOM     32  C   UNL     1       0.506   9.327  22.038  0.00  0.00    +0.000 A 
ATOM     33  C   UNL     1       1.138   8.286  21.333  0.00  0.00    +0.000 A 
BRANCH  28  35
ATOM     34  C   UNL     1       2.649   8.000  17.986  0.00  0.00    +0.000 C 
ATOM     35  O   UNL     1       2.083   7.517  19.198  0.00  0.00    +0.000 OA
ENDBRANCH  28  35
ENDBRANCH   1  31
TORSDOF 3
ENDMDL
MODEL 7
REMARK VINA RESULT:      -7.0     10.717     13.532
REMARK  Name = 
REMARK  4 active torsions:
REMARK  status: ('A' for Active; 'I' for Inactive)
REMARK    1  A    between atoms: C_1  and  O_2
REMARK    2  A    between atoms: O_2  and  C_3
REMARK    3  A    between atoms: C_6  and  C_7
REMARK    4  A    between atoms: C_25  and  C_27
REMARK                            x       y       z     vdW  Elec       q    Type
REMARK                         _______ _______ _______ _____ _____    ______ ____
ROOT
ATOM      1  C   UNL     1       7.635  12.851  22.663  0.00  0.00    +0.000 A 
ATOM      2  N   UNL     1       7.184  14.059  22.200  0.00  0.00    +0.000 NA
ATOM      3  C   UNL     1       7.852  14.260  21.095  0.00  0.00    +0.000 A 
ATOM      4  N   UNL     1       8.554  13.118  20.791  0.00  0.00    +0.000 N 
ATOM      5  N   UNL     1       8.401  12.195  21.780  0.00  0.00    +0.000 NA
ATOM      6  C   UNL     1       9.658  13.023  19.796  0.00  0.00    +0.000 C 
ATOM      7  C   UNL     1      10.910  12.562  20.600  0.00  0.00    +0.000 C 
ATOM      8  C   UNL     1      12.138  12.082  19.833  0.00  0.00    +0.000 C 
ATOM      9  C   UNL     1      11.855  11.270  18.579  0.00  0.00    +0.000 C 
ATOM     10  C   UNL     1      10.574  11.615  17.834  0.00  0.00    +0.000 C 
ATOM     11  C   UNL     1       9.365  11.919  18.736  0.00  0.00    +0.000 C 
ATOM     12  C   UNL     1       9.802  14.413  19.024  0.00  0.00    +0.000 C 
ATOM     13  C   UNL     1      10.918  15.340  19.548  0.00  0.00    +0.000 C 
ATOM     14  C   UNL     1      11.075  16.591  18.682  0.00  0.00    +0.000 C 
ATOM     15  C   UNL     1       9.775  17.367  18.562  0.00  0.00    +0.000 C 
ATOM     16  C   UNL     1       8.650  16.465  18.070  0.00  0.00    +0.000 C 
ATOM     17  C   UNL     1       8.453  15.212  18.947  0.00  0.00    +0.000 C 
ATOM     18  N   UNL     1       7.940  15.411  20.326  0.00  0.00    +0.000 N 
ATOM     19  C   UNL     1       7.262  16.565  20.758  0.00  0.00    +0.000 C 
ATOM     20  O   UNL     1       6.849  17.436  19.991  0.00  0.00    +0.000 OA
ENDROOT
BRANCH  19  21
ATOM     21  C   UNL     1       7.061  16.859  22.219  0.00  0.00    +0.000 A 
ATOM     22  C   UNL     1       8.128  17.127  23.097  0.00  0.00    +0.000 A 
ATOM     23  C   UNL     1       7.888  17.340  24.452  0.00  0.00    +0.000 A 
ATOM     24  C   UNL     1       6.579  17.352  24.929  0.00  0.00    +0.000 A 
ATOM     25  F   UNL     1       6.349  17.540  26.235  0.00  0.00    +0.000 F 
ATOM     26  C   UNL     1       5.508  17.162  24.066  0.00  0.00    +0.000 A 
ATOM     27  C   UNL     1       5.748  16.918  22.711  0.00  0.00    +0.000 A 
ENDBRANCH  19  21
BRANCH   1  31
ATOM     28  C   UNL     1       6.728  11.838  26.724  0.00  0.00    +0.000 A 
ATOM     29  C   UNL     1       6.055  11.234  25.665  0.00  0.00    +0.000 A 
ATOM     30  C   UNL     1       6.391  11.543  24.346  0.00  0.00    +0.000 A 
ATOM     31  C   UNL     1       7.397  12.476  24.056  0.00  0.00    +0.000 A 
ATOM     32  C   UNL     1       8.052  13.103  25.126  0.00  0.00    +0.000 A 
ATOM     33  C   UNL     1       7.715  12.788  26.455  0.00  0.00    +0.000 A 
BRANCH  28  35
ATOM     34  C   UNL     1       6.649  10.147  28.372  0.00  0.00    +0.000 C 
ATOM     35  O   UNL     1       6.297  11.464  27.966  0.00  0.00    +0.000 OA
ENDBRANCH  28  35
ENDBRANCH   1  31
TORSDOF 3
ENDMDL
MODEL 8
REMARK VINA RESULT:      -6.9     10.670     13.467
REMARK  Name = 
REMARK  4 active torsions:
REMARK  status: ('A' for Active; 'I' for Inactive)
REMARK    1  A    between atoms: C_1  and  O_2
REMARK    2  A    between atoms: O_2  and  C_3
REMARK    3  A    between atoms: C_6  and  C_7
REMARK    4  A    between atoms: C_25  and  C_27
REMARK                            x       y       z     vdW  Elec       q    Type
REMARK                         _______ _______ _______ _____ _____    ______ ____
ROOT
ATOM      1  C   UNL     1       7.274  13.572  21.842  0.00  0.00    +0.000 A 
ATOM      2  N   UNL     1       7.121  14.854  21.384  0.00  0.00    +0.000 NA
ATOM      3  C   UNL     1       8.026  14.981  20.451  0.00  0.00    +0.000 A 
ATOM      4  N   UNL     1       8.592  13.751  20.214  0.00  0.00    +0.000 N 
ATOM      5  N   UNL     1       8.097  12.831  21.087  0.00  0.00    +0.000 NA
ATOM      6  C   UNL     1       9.851  13.511  19.456  0.00  0.00    +0.000 C 
ATOM      7  C   UNL     1      10.823  12.822  20.459  0.00  0.00    +0.000 C 
ATOM      8  C   UNL     1      12.094  12.175  19.921  0.00  0.00    +0.000 C 
ATOM      9  C   UNL     1      11.957  11.466  18.583  0.00  0.00    +0.000 C 
ATOM     10  C   UNL     1      10.928  12.045  17.623  0.00  0.00    +0.000 C 
ATOM     11  C   UNL     1       9.619  12.510  18.284  0.00  0.00    +0.000 C 
ATOM     12  C   UNL     1      10.365  14.886  18.826  0.00  0.00    +0.000 C 
ATOM     13  C   UNL     1      11.476  15.597  19.625  0.00  0.00    +0.000 C 
ATOM     14  C   UNL     1      12.001  16.836  18.897  0.00  0.00    +0.000 C 
ATOM     15  C   UNL     1      10.889  17.819  18.573  0.00  0.00    +0.000 C 
ATOM     16  C   UNL     1       9.767  17.133  17.805  0.00  0.00    +0.000 C 
ATOM     17  C   UNL     1       9.200  15.899  18.537  0.00  0.00    +0.000 C 
ATOM     18  N   UNL     1       8.449  16.130  19.796  0.00  0.00    +0.000 N 
ATOM     19  C   UNL     1       7.881  17.363  20.163  0.00  0.00    +0.000 C 
ATOM     20  O   UNL     1       7.776  18.317  19.391  0.00  0.00    +0.000 OA
ENDROOT
BRANCH  19  21
ATOM     21  C   UNL     1       7.429  17.633  21.571  0.00  0.00    +0.000 A 
ATOM     22  C   UNL     1       8.319  17.712  22.657  0.00  0.00    +0.000 A 
ATOM     23  C   UNL     1       7.840  17.911  23.949  0.00  0.00    +0.000 A 
ATOM     24  C   UNL     1       6.475  18.098  24.159  0.00  0.00    +0.000 A 
ATOM     25  F   UNL     1       6.011  18.272  25.402  0.00  0.00    +0.000 F 
ATOM     26  C   UNL     1       5.587  18.097  23.091  0.00  0.00    +0.000 A 
ATOM     27  C   UNL     1       6.063  17.867  21.797  0.00  0.00    +0.000 A 
ENDBRANCH  19  21
BRANCH   1  31
ATOM     28  C   UNL     1       5.744  12.578  25.717  0.00  0.00    +0.000 A 
ATOM     29  C   UNL     1       5.722  13.890  25.250  0.00  0.00    +0.000 A 
ATOM     30  C   UNL     1       6.185  14.192  23.969  0.00  0.00    +0.000 A 
ATOM     31  C   UNL     1       6.696  13.191  23.131  0.00  0.00    +0.000 A 
ATOM     32  C   UNL     1       6.742  11.876  23.615  0.00  0.00    +0.000 A 
ATOM     33  C   UNL     1       6.272  11.572  24.905  0.00  0.00    +0.000 A 
BRANCH  28  35
ATOM     34  C   UNL     1       4.519  11.235  27.226  0.00  0.00    +0.000 C 
ATOM     35  O   UNL     1       5.278  12.414  26.991  0.00  0.00    +0.000 OA
ENDBRANCH  28  35
ENDBRANCH   1  31
TORSDOF 3
ENDMDL
