MODEL 1
REMARK VINA RESULT:      -7.7      0.000      0.000
REMARK  Name = 
REMARK  11 active torsions:
REMARK  status: ('A' for Active; 'I' for Inactive)
REMARK    1  A    between atoms: C_1  and  O_2
REMARK    2  A    between atoms: O_2  and  C_3
REMARK    3  A    between atoms: C_6  and  C_7
REMARK    4  A    between atoms: C_11  and  C_12
REMARK    5  A    between atoms: C_14  and  O_15
REMARK    6  A    between atoms: O_15  and  C_16
REMARK    7  A    between atoms: C_17  and  O_18
REMARK    8  A    between atoms: O_18  and  C_19
REMARK    9  A    between atoms: C_20  and  O_21
REMARK   10  A    between atoms: O_21  and  C_22
REMARK   11  A    between atoms: C_25  and  N_26
REMARK                            x       y       z     vdW  Elec       q    Type
REMARK                         _______ _______ _______ _____ _____    ______ ____
ROOT
ATOM      1  C   UNL     1       3.018   4.230  18.506  0.00  0.00    +0.000 A 
ATOM      2  N   UNL     1       2.294   3.234  19.129  0.00  0.00    +0.000 N 
ATOM      3  C   UNL     1       2.728   2.026  18.673  0.00  0.00    +0.000 A 
ATOM      4  N   UNL     1       3.708   2.165  17.815  0.00  0.00    +0.000 NA
ATOM      5  C   UNL     1       3.920   3.520  17.715  0.00  0.00    +0.000 A 
ATOM      6  H   UNL     1       1.526   3.376  19.769  0.00  0.00    +0.000 HD
ENDROOT
BRANCH   1  10
ATOM      7  C   UNL     1       2.016   8.375  18.934  0.00  0.00    +0.000 A 
ATOM      8  C   UNL     1       2.430   7.871  17.703  0.00  0.00    +0.000 A 
ATOM      9  C   UNL     1       2.712   6.516  17.568  0.00  0.00    +0.000 A 
ATOM     10  C   UNL     1       2.704   5.654  18.672  0.00  0.00    +0.000 A 
ATOM     11  C   UNL     1       2.363   6.191  19.924  0.00  0.00    +0.000 A 
ATOM     12  C   UNL     1       1.957   7.528  20.055  0.00  0.00    +0.000 A 
BRANCH  12  13
ATOM     13  N   UNL     1       1.681   8.046  21.335  0.00  0.00    +0.000 N 
ATOM     14  H   UNL     1       2.136   8.929  21.535  0.00  0.00    +0.000 HD
ATOM     15  H   UNL     1       1.844   7.340  22.053  0.00  0.00    +0.000 HD
ENDBRANCH  12  13
BRANCH   7  17
ATOM     16  C   UNL     1       0.397  10.014  18.452  0.00  0.00    +0.000 C 
ATOM     17  O   UNL     1       1.617   9.679  19.115  0.00  0.00    +0.000 OA
ENDBRANCH   7  17
ENDBRANCH   1  10
BRANCH   5  18
ATOM     18  C   UNL     1       4.926   4.066  16.823  0.00  0.00    +0.000 A 
ATOM     19  C   UNL     1       5.781   5.061  17.293  0.00  0.00    +0.000 A 
ATOM     20  C   UNL     1       6.806   5.558  16.482  0.00  0.00    +0.000 A 
ATOM     21  C   UNL     1       6.970   5.063  15.165  0.00  0.00    +0.000 A 
ATOM     22  C   UNL     1       6.098   4.065  14.680  0.00  0.00    +0.000 A 
ATOM     23  C   UNL     1       5.076   3.596  15.514  0.00  0.00    +0.000 A 
BRANCH  20  24
ATOM     24  O   UNL     1       7.684   6.533  16.894  0.00  0.00    +0.000 OA
ATOM     25  C   UNL     1       7.765   6.760  18.297  0.00  0.00    +0.000 C 
ENDBRANCH  20  24
BRANCH  21  26
ATOM     26  O   UNL     1       7.975   5.673  14.448  0.00  0.00    +0.000 OA
ATOM     27  C   UNL     1       7.989   5.499  13.039  0.00  0.00    +0.000 C 
ENDBRANCH  21  26
BRANCH  22  28
ATOM     28  O   UNL     1       6.275   3.601  13.402  0.00  0.00    +0.000 OA
ATOM     29  C   UNL     1       5.123   3.459  12.576  0.00  0.00    +0.000 C 
ENDBRANCH  22  28
ENDBRANCH   5  18
TORSDOF 7
ENDMDL
MODEL 2
REMARK VINA RESULT:      -7.6      1.918      6.685
REMARK  Name = 
REMARK  11 active torsions:
REMARK  status: ('A' for Active; 'I' for Inactive)
REMARK    1  A    between atoms: C_1  and  O_2
REMARK    2  A    between atoms: O_2  and  C_3
REMARK    3  A    between atoms: C_6  and  C_7
REMARK    4  A    between atoms: C_11  and  C_12
REMARK    5  A    between atoms: C_14  and  O_15
REMARK    6  A    between atoms: O_15  and  C_16
REMARK    7  A    between atoms: C_17  and  O_18
REMARK    8  A    between atoms: O_18  and  C_19
REMARK    9  A    between atoms: C_20  and  O_21
REMARK   10  A    between atoms: O_21  and  C_22
REMARK   11  A    between atoms: C_25  and  N_26
REMARK                            x       y       z     vdW  Elec       q    Type
REMARK                         _______ _______ _______ _____ _____    ______ ____
ROOT
ATOM      1  C   UNL     1       3.386   3.719  19.809  0.00  0.00    +0.000 A 
ATOM      2  N   UNL     1       3.237   2.521  20.478  0.00  0.00    +0.000 N 
ATOM      3  C   UNL     1       2.298   2.676  21.452  0.00  0.00    +0.000 A 
ATOM      4  N   UNL     1       1.801   3.888  21.446  0.00  0.00    +0.000 NA
ATOM      5  C   UNL     1       2.443   4.543  20.422  0.00  0.00    +0.000 A 
ATOM      6  H   UNL     1       3.779   1.684  20.316  0.00  0.00    +0.000 HD
ENDROOT
BRANCH   1  10
ATOM      7  C   UNL     1       6.352   4.413  16.795  0.00  0.00    +0.000 A 
ATOM      8  C   UNL     1       5.106   3.890  16.454  0.00  0.00    +0.000 A 
ATOM      9  C   UNL     1       4.139   3.709  17.437  0.00  0.00    +0.000 A 
ATOM     10  C   UNL     1       4.421   3.929  18.790  0.00  0.00    +0.000 A 
ATOM     11  C   UNL     1       5.707   4.380  19.130  0.00  0.00    +0.000 A 
ATOM     12  C   UNL     1       6.655   4.684  18.141  0.00  0.00    +0.000 A 
BRANCH  12  13
ATOM     13  N   UNL     1       7.952   5.075  18.523  0.00  0.00    +0.000 N 
ATOM     14  H   UNL     1       8.006   6.001  18.932  0.00  0.00    +0.000 HD
ATOM     15  H   UNL     1       8.611   4.938  17.756  0.00  0.00    +0.000 HD
ENDBRANCH  12  13
BRANCH   7  17
ATOM     16  C   UNL     1       6.851   4.710  14.514  0.00  0.00    +0.000 C 
ATOM     17  O   UNL     1       7.317   4.720  15.864  0.00  0.00    +0.000 OA
ENDBRANCH   7  17
ENDBRANCH   1  10
BRANCH   5  18
ATOM     18  C   UNL     1       2.170   5.937  20.124  0.00  0.00    +0.000 A 
ATOM     19  C   UNL     1       2.672   6.490  18.948  0.00  0.00    +0.000 A 
ATOM     20  C   UNL     1       2.368   7.810  18.598  0.00  0.00    +0.000 A 
ATOM     21  C   UNL     1       1.558   8.600  19.451  0.00  0.00    +0.000 A 
ATOM     22  C   UNL     1       1.059   8.048  20.650  0.00  0.00    +0.000 A 
ATOM     23  C   UNL     1       1.390   6.727  20.976  0.00  0.00    +0.000 A 
BRANCH  20  24
ATOM     24  O   UNL     1       2.827   8.407  17.448  0.00  0.00    +0.000 OA
ATOM     25  C   UNL     1       3.915   7.765  16.792  0.00  0.00    +0.000 C 
ENDBRANCH  20  24
BRANCH  21  26
ATOM     26  O   UNL     1       1.380   9.898  19.026  0.00  0.00    +0.000 OA
ATOM     27  C   UNL     1       0.121  10.253  18.475  0.00  0.00    +0.000 C 
ENDBRANCH  21  26
BRANCH  22  28
ATOM     28  O   UNL     1       0.279   8.832  21.461  0.00  0.00    +0.000 OA
ATOM     29  C   UNL     1       0.858   9.340  22.659  0.00  0.00    +0.000 C 
ENDBRANCH  22  28
ENDBRANCH   5  18
TORSDOF 7
ENDMDL
MODEL 3
REMARK VINA RESULT:      -7.6      1.924      6.400
REMARK  Name = 
REMARK  11 active torsions:
REMARK  status: ('A' for Active; 'I' for Inactive)
REMARK    1  A    between atoms: C_1  and  O_2
REMARK    2  A    between atoms: O_2  and  C_3
REMARK    3  A    between atoms: C_6  and  C_7
REMARK    4  A    between atoms: C_11  and  C_12
REMARK    5  A    between atoms: C_14  and  O_15
REMARK    6  A    between atoms: O_15  and  C_16
REMARK    7  A    between atoms: C_17  and  O_18
REMARK    8  A    between atoms: O_18  and  C_19
REMARK    9  A    between atoms: C_20  and  O_21
REMARK   10  A    between atoms: O_21  and  C_22
REMARK   11  A    between atoms: C_25  and  N_26
REMARK                            x       y       z     vdW  Elec       q    Type
REMARK                         _______ _______ _______ _____ _____    ______ ____
ROOT
ATOM      1  C   UNL     1       3.426   3.687  19.808  0.00  0.00    +0.000 A 
ATOM      2  N   UNL     1       3.310   2.504  20.509  0.00  0.00    +0.000 N 
ATOM      3  C   UNL     1       2.356   2.656  21.469  0.00  0.00    +0.000 A 
ATOM      4  N   UNL     1       1.819   3.851  21.423  0.00  0.00    +0.000 NA
ATOM      5  C   UNL     1       2.450   4.496  20.386  0.00  0.00    +0.000 A 
ATOM      6  H   UNL     1       3.880   1.682  20.377  0.00  0.00    +0.000 HD
ENDROOT
BRANCH   1  10
ATOM      7  C   UNL     1       6.401   4.394  16.804  0.00  0.00    +0.000 A 
ATOM      8  C   UNL     1       5.171   3.835  16.464  0.00  0.00    +0.000 A 
ATOM      9  C   UNL     1       4.199   3.650  17.442  0.00  0.00    +0.000 A 
ATOM     10  C   UNL     1       4.465   3.903  18.793  0.00  0.00    +0.000 A 
ATOM     11  C   UNL     1       5.736   4.390  19.135  0.00  0.00    +0.000 A 
ATOM     12  C   UNL     1       6.685   4.698  18.147  0.00  0.00    +0.000 A 
BRANCH  12  13
ATOM     13  N   UNL     1       7.970   5.128  18.532  0.00  0.00    +0.000 N 
ATOM     14  H   UNL     1       8.455   4.491  19.154  0.00  0.00    +0.000 HD
ATOM     15  H   UNL     1       7.941   6.085  18.883  0.00  0.00    +0.000 HD
ENDBRANCH  12  13
BRANCH   7  17
ATOM     16  C   UNL     1       6.885   4.772  14.533  0.00  0.00    +0.000 C 
ATOM     17  O   UNL     1       7.366   4.706  15.876  0.00  0.00    +0.000 OA
ENDBRANCH   7  17
ENDBRANCH   1  10
BRANCH   5  18
ATOM     18  C   UNL     1       2.134   5.872  20.046  0.00  0.00    +0.000 A 
ATOM     19  C   UNL     1       1.352   6.624  20.920  0.00  0.00    +0.000 A 
ATOM     20  C   UNL     1       1.087   7.972  20.656  0.00  0.00    +0.000 A 
ATOM     21  C   UNL     1       1.603   8.578  19.484  0.00  0.00    +0.000 A 
ATOM     22  C   UNL     1       2.385   7.816  18.589  0.00  0.00    +0.000 A 
ATOM     23  C   UNL     1       2.622   6.467  18.877  0.00  0.00    +0.000 A 
BRANCH  20  24
ATOM     24  O   UNL     1       0.330   8.765  21.485  0.00  0.00    +0.000 OA
ATOM     25  C   UNL     1       0.988   9.296  22.630  0.00  0.00    +0.000 C 
ENDBRANCH  20  24
BRANCH  21  26
ATOM     26  O   UNL     1       1.225   9.890  19.307  0.00  0.00    +0.000 OA
ATOM     27  C   UNL     1       0.134  10.160  18.439  0.00  0.00    +0.000 C 
ENDBRANCH  21  26
BRANCH  22  28
ATOM     28  O   UNL     1       2.872   8.423  17.460  0.00  0.00    +0.000 OA
ATOM     29  C   UNL     1       3.966   7.807  16.788  0.00  0.00    +0.000 C 
ENDBRANCH  22  28
ENDBRANCH   5  18
TORSDOF 7
ENDMDL
MODEL 4
REMARK VINA RESULT:      -7.2      2.665      6.933
REMARK  Name = 
REMARK  11 active torsions:
REMARK  status: ('A' for Active; 'I' for Inactive)
REMARK    1  A    between atoms: C_1  and  O_2
REMARK    2  A    between atoms: O_2  and  C_3
REMARK    3  A    between atoms: C_6  and  C_7
REMARK    4  A    between atoms: C_11  and  C_12
REMARK    5  A    between atoms: C_14  and  O_15
REMARK    6  A    between atoms: O_15  and  C_16
REMARK    7  A    between atoms: C_17  and  O_18
REMARK    8  A    between atoms: O_18  and  C_19
REMARK    9  A    between atoms: C_20  and  O_21
REMARK   10  A    between atoms: O_21  and  C_22
REMARK   11  A    between atoms: C_25  and  N_26
REMARK                            x       y       z     vdW  Elec       q    Type
REMARK                         _______ _______ _______ _____ _____    ______ ____
ROOT
ATOM      1  C   UNL     1       3.105   5.011  19.450  0.00  0.00    +0.000 A 
ATOM      2  N   UNL     1       2.890   3.666  19.665  0.00  0.00    +0.000 N 
ATOM      3  C   UNL     1       1.743   3.516  20.385  0.00  0.00    +0.000 A 
ATOM      4  N   UNL     1       1.178   4.672  20.629  0.00  0.00    +0.000 NA
ATOM      5  C   UNL     1       1.993   5.609  20.038  0.00  0.00    +0.000 A 
ATOM      6  H   UNL     1       3.510   2.917  19.392  0.00  0.00    +0.000 HD
ENDROOT
BRANCH   1  10
ATOM      7  C   UNL     1       6.651   6.601  17.641  0.00  0.00    +0.000 A 
ATOM      8  C   UNL     1       5.409   6.769  17.031  0.00  0.00    +0.000 A 
ATOM      9  C   UNL     1       4.262   6.284  17.650  0.00  0.00    +0.000 A 
ATOM     10  C   UNL     1       4.330   5.523  18.823  0.00  0.00    +0.000 A 
ATOM     11  C   UNL     1       5.596   5.292  19.386  0.00  0.00    +0.000 A 
ATOM     12  C   UNL     1       6.750   5.877  18.842  0.00  0.00    +0.000 A 
BRANCH  12  13
ATOM     13  N   UNL     1       8.007   5.573  19.399  0.00  0.00    +0.000 N 
ATOM     14  H   UNL     1       8.698   6.308  19.295  0.00  0.00    +0.000 HD
ATOM     15  H   UNL     1       8.338   4.665  19.072  0.00  0.00    +0.000 HD
ENDBRANCH  12  13
BRANCH   7  17
ATOM     16  C   UNL     1       8.065   8.480  17.585  0.00  0.00    +0.000 C 
ATOM     17  O   UNL     1       7.811   7.146  17.144  0.00  0.00    +0.000 OA
ENDBRANCH   7  17
ENDBRANCH   1  10
BRANCH   5  18
ATOM     18  C   UNL     1       1.700   7.029  20.123  0.00  0.00    +0.000 A 
ATOM     19  C   UNL     1       1.493   7.605  21.374  0.00  0.00    +0.000 A 
ATOM     20  C   UNL     1       1.278   8.982  21.496  0.00  0.00    +0.000 A 
ATOM     21  C   UNL     1       1.253   9.799  20.339  0.00  0.00    +0.000 A 
ATOM     22  C   UNL     1       1.448   9.218  19.068  0.00  0.00    +0.000 A 
ATOM     23  C   UNL     1       1.650   7.835  18.980  0.00  0.00    +0.000 A 
BRANCH  20  24
ATOM     24  O   UNL     1       1.077   9.607  22.704  0.00  0.00    +0.000 OA
ATOM     25  C   UNL     1      -0.210   9.449  23.292  0.00  0.00    +0.000 C 
ENDBRANCH  20  24
BRANCH  21  26
ATOM     26  O   UNL     1       0.975  11.125  20.584  0.00  0.00    +0.000 OA
ATOM     27  C   UNL     1      -0.338  11.593  20.313  0.00  0.00    +0.000 C 
ENDBRANCH  21  26
BRANCH  22  28
ATOM     28  O   UNL     1       1.417  10.027  17.962  0.00  0.00    +0.000 OA
ATOM     29  C   UNL     1       2.430  11.021  17.831  0.00  0.00    +0.000 C 
ENDBRANCH  22  28
ENDBRANCH   5  18
TORSDOF 7
ENDMDL
MODEL 5
REMARK VINA RESULT:      -7.2      2.645      7.193
REMARK  Name = 
REMARK  11 active torsions:
REMARK  status: ('A' for Active; 'I' for Inactive)
REMARK    1  A    between atoms: C_1  and  O_2
REMARK    2  A    between atoms: O_2  and  C_3
REMARK    3  A    between atoms: C_6  and  C_7
REMARK    4  A    between atoms: C_11  and  C_12
REMARK    5  A    between atoms: C_14  and  O_15
REMARK    6  A    between atoms: O_15  and  C_16
REMARK    7  A    between atoms: C_17  and  O_18
REMARK    8  A    between atoms: O_18  and  C_19
REMARK    9  A    between atoms: C_20  and  O_21
REMARK   10  A    between atoms: O_21  and  C_22
REMARK   11  A    between atoms: C_25  and  N_26
REMARK                            x       y       z     vdW  Elec       q    Type
REMARK                         _______ _______ _______ _____ _____    ______ ____
ROOT
ATOM      1  C   UNL     1       3.092   5.025  19.369  0.00  0.00    +0.000 A 
ATOM      2  N   UNL     1       2.836   3.676  19.510  0.00  0.00    +0.000 N 
ATOM      3  C   UNL     1       1.688   3.521  20.227  0.00  0.00    +0.000 A 
ATOM      4  N   UNL     1       1.161   4.679  20.540  0.00  0.00    +0.000 NA
ATOM      5  C   UNL     1       2.001   5.622  19.998  0.00  0.00    +0.000 A 
ATOM      6  H   UNL     1       3.431   2.926  19.190  0.00  0.00    +0.000 HD
ENDROOT
BRANCH   1  10
ATOM      7  C   UNL     1       6.673   6.606  17.624  0.00  0.00    +0.000 A 
ATOM      8  C   UNL     1       5.444   6.770  16.988  0.00  0.00    +0.000 A 
ATOM      9  C   UNL     1       4.285   6.289  17.587  0.00  0.00    +0.000 A 
ATOM     10  C   UNL     1       4.329   5.533  18.764  0.00  0.00    +0.000 A 
ATOM     11  C   UNL     1       5.583   5.305  19.354  0.00  0.00    +0.000 A 
ATOM     12  C   UNL     1       6.748   5.887  18.830  0.00  0.00    +0.000 A 
BRANCH  12  13
ATOM     13  N   UNL     1       7.994   5.586  19.413  0.00  0.00    +0.000 N 
ATOM     14  H   UNL     1       8.205   4.596  19.461  0.00  0.00    +0.000 HD
ATOM     15  H   UNL     1       8.098   6.061  20.310  0.00  0.00    +0.000 HD
ENDBRANCH  12  13
BRANCH   7  17
ATOM     16  C   UNL     1       8.088   8.485  17.586  0.00  0.00    +0.000 C 
ATOM     17  O   UNL     1       7.843   7.149  17.147  0.00  0.00    +0.000 OA
ENDBRANCH   7  17
ENDBRANCH   1  10
BRANCH   5  18
ATOM     18  C   UNL     1       1.753   7.043  20.164  0.00  0.00    +0.000 A 
ATOM     19  C   UNL     1       1.675   7.855  19.035  0.00  0.00    +0.000 A 
ATOM     20  C   UNL     1       1.368   9.214  19.156  0.00  0.00    +0.000 A 
ATOM     21  C   UNL     1       1.150   9.778  20.437  0.00  0.00    +0.000 A 
ATOM     22  C   UNL     1       1.240   8.963  21.585  0.00  0.00    +0.000 A 
ATOM     23  C   UNL     1       1.560   7.609  21.430  0.00  0.00    +0.000 A 
BRANCH  20  24
ATOM     24  O   UNL     1       1.270  10.062  18.078  0.00  0.00    +0.000 OA
ATOM     25  C   UNL     1       2.410  10.868  17.800  0.00  0.00    +0.000 C 
ENDBRANCH  20  24
BRANCH  21  26
ATOM     26  O   UNL     1       0.914  11.135  20.429  0.00  0.00    +0.000 OA
ATOM     27  C   UNL     1      -0.434  11.578  20.376  0.00  0.00    +0.000 C 
ENDBRANCH  21  26
BRANCH  22  28
ATOM     28  O   UNL     1       1.027   9.531  22.815  0.00  0.00    +0.000 OA
ATOM     29  C   UNL     1      -0.299   9.520  23.336  0.00  0.00    +0.000 C 
ENDBRANCH  22  28
ENDBRANCH   5  18
TORSDOF 7
ENDMDL
MODEL 6
REMARK VINA RESULT:      -7.0      1.217      1.566
REMARK  Name = 
REMARK  11 active torsions:
REMARK  status: ('A' for Active; 'I' for Inactive)
REMARK    1  A    between atoms: C_1  and  O_2
REMARK    2  A    between atoms: O_2  and  C_3
REMARK    3  A    between atoms: C_6  and  C_7
REMARK    4  A    between atoms: C_11  and  C_12
REMARK    5  A    between atoms: C_14  and  O_15
REMARK    6  A    between atoms: O_15  and  C_16
REMARK    7  A    between atoms: C_17  and  O_18
REMARK    8  A    between atoms: O_18  and  C_19
REMARK    9  A    between atoms: C_20  and  O_21
REMARK   10  A    between atoms: O_21  and  C_22
REMARK   11  A    between atoms: C_25  and  N_26
REMARK                            x       y       z     vdW  Elec       q    Type
REMARK                         _______ _______ _______ _____ _____    ______ ____
ROOT
ATOM      1  C   UNL     1       2.734   3.783  18.866  0.00  0.00    +0.000 A 
ATOM      2  N   UNL     1       2.032   2.700  19.355  0.00  0.00    +0.000 N 
ATOM      3  C   UNL     1       2.508   1.567  18.766  0.00  0.00    +0.000 A 
ATOM      4  N   UNL     1       3.495   1.834  17.947  0.00  0.00    +0.000 NA
ATOM      5  C   UNL     1       3.666   3.197  18.012  0.00  0.00    +0.000 A 
ATOM      6  H   UNL     1       1.252   2.742  19.994  0.00  0.00    +0.000 HD
ENDROOT
BRANCH   1  10
ATOM      7  C   UNL     1       1.765   7.830  19.891  0.00  0.00    +0.000 A 
ATOM      8  C   UNL     1       1.552   6.799  20.804  0.00  0.00    +0.000 A 
ATOM      9  C   UNL     1       1.910   5.496  20.473  0.00  0.00    +0.000 A 
ATOM     10  C   UNL     1       2.375   5.168  19.194  0.00  0.00    +0.000 A 
ATOM     11  C   UNL     1       2.509   6.204  18.256  0.00  0.00    +0.000 A 
ATOM     12  C   UNL     1       2.270   7.540  18.611  0.00  0.00    +0.000 A 
BRANCH  12  13
ATOM     13  N   UNL     1       2.357   8.544  17.627  0.00  0.00    +0.000 N 
ATOM     14  H   UNL     1       1.683   9.294  17.734  0.00  0.00    +0.000 HD
ATOM     15  H   UNL     1       2.355   8.136  16.692  0.00  0.00    +0.000 HD
ENDBRANCH  12  13
BRANCH   7  17
ATOM     16  C   UNL     1       0.868   9.367  21.431  0.00  0.00    +0.000 C 
ATOM     17  O   UNL     1       1.538   9.153  20.188  0.00  0.00    +0.000 OA
ENDBRANCH   7  17
ENDBRANCH   1  10
BRANCH   5  18
ATOM     18  C   UNL     1       4.667   3.874  17.207  0.00  0.00    +0.000 A 
ATOM     19  C   UNL     1       5.760   4.464  17.839  0.00  0.00    +0.000 A 
ATOM     20  C   UNL     1       6.777   5.063  17.088  0.00  0.00    +0.000 A 
ATOM     21  C   UNL     1       6.692   5.087  15.674  0.00  0.00    +0.000 A 
ATOM     22  C   UNL     1       5.581   4.502  15.030  0.00  0.00    +0.000 A 
ATOM     23  C   UNL     1       4.575   3.920  15.811  0.00  0.00    +0.000 A 
BRANCH  20  24
ATOM     24  O   UNL     1       7.881   5.653  17.655  0.00  0.00    +0.000 OA
ATOM     25  C   UNL     1       7.845   5.840  19.066  0.00  0.00    +0.000 C 
ENDBRANCH  20  24
BRANCH  21  26
ATOM     26  O   UNL     1       7.723   5.755  15.052  0.00  0.00    +0.000 OA
ATOM     27  C   UNL     1       8.038   5.400  13.714  0.00  0.00    +0.000 C 
ENDBRANCH  21  26
BRANCH  22  28
ATOM     28  O   UNL     1       5.519   4.538  13.661  0.00  0.00    +0.000 OA
ATOM     29  C   UNL     1       5.165   3.341  12.974  0.00  0.00    +0.000 C 
ENDBRANCH  22  28
ENDBRANCH   5  18
TORSDOF 7
ENDMDL
MODEL 7
REMARK VINA RESULT:      -7.0      0.440      2.519
REMARK  Name = 
REMARK  11 active torsions:
REMARK  status: ('A' for Active; 'I' for Inactive)
REMARK    1  A    between atoms: C_1  and  O_2
REMARK    2  A    between atoms: O_2  and  C_3
REMARK    3  A    between atoms: C_6  and  C_7
REMARK    4  A    between atoms: C_11  and  C_12
REMARK    5  A    between atoms: C_14  and  O_15
REMARK    6  A    between atoms: O_15  and  C_16
REMARK    7  A    between atoms: C_17  and  O_18
REMARK    8  A    between atoms: O_18  and  C_19
REMARK    9  A    between atoms: C_20  and  O_21
REMARK   10  A    between atoms: O_21  and  C_22
REMARK   11  A    between atoms: C_25  and  N_26
REMARK                            x       y       z     vdW  Elec       q    Type
REMARK                         _______ _______ _______ _____ _____    ______ ____
ROOT
ATOM      1  C   UNL     1       2.851   4.117  18.706  0.00  0.00    +0.000 A 
ATOM      2  N   UNL     1       2.034   3.151  19.257  0.00  0.00    +0.000 N 
ATOM      3  C   UNL     1       2.476   1.925  18.860  0.00  0.00    +0.000 A 
ATOM      4  N   UNL     1       3.546   2.023  18.110  0.00  0.00    +0.000 NA
ATOM      5  C   UNL     1       3.809   3.370  18.022  0.00  0.00    +0.000 A 
ATOM      6  H   UNL     1       1.208   3.323  19.810  0.00  0.00    +0.000 HD
ENDROOT
BRANCH   1  10
ATOM      7  C   UNL     1       1.930   8.292  19.002  0.00  0.00    +0.000 A 
ATOM      8  C   UNL     1       2.276   7.729  17.775  0.00  0.00    +0.000 A 
ATOM      9  C   UNL     1       2.532   6.365  17.686  0.00  0.00    +0.000 A 
ATOM     10  C   UNL     1       2.566   5.552  18.825  0.00  0.00    +0.000 A 
ATOM     11  C   UNL     1       2.295   6.146  20.068  0.00  0.00    +0.000 A 
ATOM     12  C   UNL     1       1.915   7.494  20.160  0.00  0.00    +0.000 A 
BRANCH  12  13
ATOM     13  N   UNL     1       1.710   8.070  21.429  0.00  0.00    +0.000 N 
ATOM     14  H   UNL     1       1.657   9.083  21.424  0.00  0.00    +0.000 HD
ATOM     15  H   UNL     1       2.383   7.708  22.103  0.00  0.00    +0.000 HD
ENDBRANCH  12  13
BRANCH   7  17
ATOM     16  C   UNL     1       0.434   9.988  18.353  0.00  0.00    +0.000 C 
ATOM     17  O   UNL     1       1.559   9.609  19.146  0.00  0.00    +0.000 OA
ENDBRANCH   7  17
ENDBRANCH   1  10
BRANCH   5  18
ATOM     18  C   UNL     1       4.921   3.875  17.237  0.00  0.00    +0.000 A 
ATOM     19  C   UNL     1       5.035   3.497  15.901  0.00  0.00    +0.000 A 
ATOM     20  C   UNL     1       6.055   4.021  15.099  0.00  0.00    +0.000 A 
ATOM     21  C   UNL     1       6.991   4.930  15.649  0.00  0.00    +0.000 A 
ATOM     22  C   UNL     1       6.888   5.306  17.006  0.00  0.00    +0.000 A 
ATOM     23  C   UNL     1       5.862   4.755  17.784  0.00  0.00    +0.000 A 
BRANCH  20  24
ATOM     24  O   UNL     1       6.212   3.692  13.773  0.00  0.00    +0.000 OA
ATOM     25  C   UNL     1       5.017   3.507  13.021  0.00  0.00    +0.000 C 
ENDBRANCH  20  24
BRANCH  21  26
ATOM     26  O   UNL     1       7.979   5.328  14.776  0.00  0.00    +0.000 OA
ATOM     27  C   UNL     1       7.629   5.519  13.413  0.00  0.00    +0.000 C 
ENDBRANCH  21  26
BRANCH  22  28
ATOM     28  O   UNL     1       7.806   6.186  17.517  0.00  0.00    +0.000 OA
ATOM     29  C   UNL     1       7.479   7.572  17.514  0.00  0.00    +0.000 C 
ENDBRANCH  22  28
ENDBRANCH   5  18
TORSDOF 7
ENDMDL
MODEL 8
REMARK VINA RESULT:      -7.0      4.300     10.155
REMARK  Name = 
REMARK  11 active torsions:
REMARK  status: ('A' for Active; 'I' for Inactive)
REMARK    1  A    between atoms: C_1  and  O_2
REMARK    2  A    between atoms: O_2  and  C_3
REMARK    3  A    between atoms: C_6  and  C_7
REMARK    4  A    between atoms: C_11  and  C_12
REMARK    5  A    between atoms: C_14  and  O_15
REMARK    6  A    between atoms: O_15  and  C_16
REMARK    7  A    between atoms: C_17  and  O_18
REMARK    8  A    between atoms: O_18  and  C_19
REMARK    9  A    between atoms: C_20  and  O_21
REMARK   10  A    between atoms: O_21  and  C_22
REMARK   11  A    between atoms: C_25  and  N_26
REMARK                            x       y       z     vdW  Elec       q    Type
REMARK                         _______ _______ _______ _____ _____    ______ ____
ROOT
ATOM      1  C   UNL     1       0.988  12.069  18.960  0.00  0.00    +0.000 A 
ATOM      2  N   UNL     1       1.960  13.048  18.997  0.00  0.00    +0.000 N 
ATOM      3  C   UNL     1       1.368  14.260  18.808  0.00  0.00    +0.000 A 
ATOM      4  N   UNL     1       0.069  14.142  18.679  0.00  0.00    +0.000 NA
ATOM      5  C   UNL     1      -0.189  12.796  18.794  0.00  0.00    +0.000 A 
ATOM      6  H   UNL     1       2.953  12.890  19.085  0.00  0.00    +0.000 HD
ENDROOT
BRANCH   1  10
ATOM      7  C   UNL     1       2.029   7.912  19.048  0.00  0.00    +0.000 A 
ATOM      8  C   UNL     1       2.164   8.650  17.874  0.00  0.00    +0.000 A 
ATOM      9  C   UNL     1       1.862  10.008  17.871  0.00  0.00    +0.000 A 
ATOM     10  C   UNL     1       1.310  10.637  18.993  0.00  0.00    +0.000 A 
ATOM     11  C   UNL     1       1.104   9.864  20.147  0.00  0.00    +0.000 A 
ATOM     12  C   UNL     1       1.516   8.524  20.206  0.00  0.00    +0.000 A 
BRANCH  12  13
ATOM     13  N   UNL     1       1.237   7.764  21.358  0.00  0.00    +0.000 N 
ATOM     14  H   UNL     1       1.297   6.761  21.222  0.00  0.00    +0.000 HD
ATOM     15  H   UNL     1       0.357   8.058  21.781  0.00  0.00    +0.000 HD
ENDBRANCH  12  13
BRANCH   7  17
ATOM     16  C   UNL     1       3.477   6.224  18.281  0.00  0.00    +0.000 C 
ATOM     17  O   UNL     1       2.410   6.595  19.155  0.00  0.00    +0.000 OA
ENDBRANCH   7  17
ENDBRANCH   1  10
BRANCH   5  18
ATOM     18  C   UNL     1      -1.537  12.271  18.676  0.00  0.00    +0.000 A 
ATOM     19  C   UNL     1      -2.477  12.588  19.654  0.00  0.00    +0.000 A 
ATOM     20  C   UNL     1      -3.802  12.156  19.533  0.00  0.00    +0.000 A 
ATOM     21  C   UNL     1      -4.193  11.375  18.417  0.00  0.00    +0.000 A 
ATOM     22  C   UNL     1      -3.241  11.040  17.430  0.00  0.00    +0.000 A 
ATOM     23  C   UNL     1      -1.920  11.479  17.587  0.00  0.00    +0.000 A 
BRANCH  20  24
ATOM     24  O   UNL     1      -4.775  12.445  20.461  0.00  0.00    +0.000 OA
ATOM     25  C   UNL     1      -4.322  12.898  21.732  0.00  0.00    +0.000 C 
ENDBRANCH  20  24
BRANCH  21  26
ATOM     26  O   UNL     1      -5.507  10.963  18.442  0.00  0.00    +0.000 OA
ATOM     27  C   UNL     1      -6.466  11.752  17.754  0.00  0.00    +0.000 C 
ENDBRANCH  21  26
BRANCH  22  28
ATOM     28  O   UNL     1      -3.641  10.282  16.360  0.00  0.00    +0.000 OA
ATOM     29  C   UNL     1      -3.145  10.630  15.071  0.00  0.00    +0.000 C 
ENDBRANCH  22  28
ENDBRANCH   5  18
TORSDOF 7
ENDMDL
MODEL 9
REMARK VINA RESULT:      -6.9      1.258      1.529
REMARK  Name = 
REMARK  11 active torsions:
REMARK  status: ('A' for Active; 'I' for Inactive)
REMARK    1  A    between atoms: C_1  and  O_2
REMARK    2  A    between atoms: O_2  and  C_3
REMARK    3  A    between atoms: C_6  and  C_7
REMARK    4  A    between atoms: C_11  and  C_12
REMARK    5  A    between atoms: C_14  and  O_15
REMARK    6  A    between atoms: O_15  and  C_16
REMARK    7  A    between atoms: C_17  and  O_18
REMARK    8  A    between atoms: O_18  and  C_19
REMARK    9  A    between atoms: C_20  and  O_21
REMARK   10  A    between atoms: O_21  and  C_22
REMARK   11  A    between atoms: C_25  and  N_26
REMARK                            x       y       z     vdW  Elec       q    Type
REMARK                         _______ _______ _______ _____ _____    ______ ____
ROOT
ATOM      1  C   UNL     1       2.387   4.674  19.813  0.00  0.00    +0.000 A 
ATOM      2  N   UNL     1       1.521   3.913  20.571  0.00  0.00    +0.000 N 
ATOM      3  C   UNL     1       1.890   2.606  20.477  0.00  0.00    +0.000 A 
ATOM      4  N   UNL     1       2.958   2.464  19.732  0.00  0.00    +0.000 NA
ATOM      5  C   UNL     1       3.296   3.734  19.330  0.00  0.00    +0.000 A 
ATOM      6  H   UNL     1       0.710   4.258  21.064  0.00  0.00    +0.000 HD
ENDROOT
BRANCH   1  10
ATOM      7  C   UNL     1       1.715   8.846  19.097  0.00  0.00    +0.000 A 
ATOM      8  C   UNL     1       2.203   8.024  18.084  0.00  0.00    +0.000 A 
ATOM      9  C   UNL     1       2.377   6.664  18.318  0.00  0.00    +0.000 A 
ATOM     10  C   UNL     1       2.184   6.111  19.589  0.00  0.00    +0.000 A 
ATOM     11  C   UNL     1       1.769   6.965  20.623  0.00  0.00    +0.000 A 
ATOM     12  C   UNL     1       1.472   8.314  20.376  0.00  0.00    +0.000 A 
BRANCH  12  13
ATOM     13  N   UNL     1       1.116   9.153  21.450  0.00  0.00    +0.000 N 
ATOM     14  H   UNL     1       0.999  10.127  21.197  0.00  0.00    +0.000 HD
ATOM     15  H   UNL     1       1.748   9.017  22.239  0.00  0.00    +0.000 HD
ENDBRANCH  12  13
BRANCH   7  17
ATOM     16  C   UNL     1       0.119  10.409  18.357  0.00  0.00    +0.000 C 
ATOM     17  O   UNL     1       1.416  10.175  18.907  0.00  0.00    +0.000 OA
ENDBRANCH   7  17
ENDBRANCH   1  10
BRANCH   5  18
ATOM     18  C   UNL     1       4.428   3.976  18.455  0.00  0.00    +0.000 A 
ATOM     19  C   UNL     1       5.556   4.617  18.965  0.00  0.00    +0.000 A 
ATOM     20  C   UNL     1       6.690   4.802  18.168  0.00  0.00    +0.000 A 
ATOM     21  C   UNL     1       6.692   4.353  16.825  0.00  0.00    +0.000 A 
ATOM     22  C   UNL     1       5.547   3.716  16.299  0.00  0.00    +0.000 A 
ATOM     23  C   UNL     1       4.425   3.555  17.120  0.00  0.00    +0.000 A 
BRANCH  20  24
ATOM     24  O   UNL     1       7.833   5.419  18.619  0.00  0.00    +0.000 OA
ATOM     25  C   UNL     1       7.867   6.838  18.523  0.00  0.00    +0.000 C 
ENDBRANCH  20  24
BRANCH  21  26
ATOM     26  O   UNL     1       7.843   4.646  16.127  0.00  0.00    +0.000 OA
ATOM     27  C   UNL     1       7.741   5.511  15.005  0.00  0.00    +0.000 C 
ENDBRANCH  21  26
BRANCH  22  28
ATOM     28  O   UNL     1       5.571   3.291  14.995  0.00  0.00    +0.000 OA
ATOM     29  C   UNL     1       5.052   4.164  13.997  0.00  0.00    +0.000 C 
ENDBRANCH  22  28
ENDBRANCH   5  18
TORSDOF 7
ENDMDL
