MODEL 1
REMARK VINA RESULT:      -8.8      0.000      0.000
REMARK  Name = 
REMARK  7 active torsions:
REMARK  status: ('A' for Active; 'I' for Inactive)
REMARK    1  A    between atoms: C_2  and  C_3
REMARK    2  A    between atoms: C_3  and  S_4
REMARK    3  A    between atoms: S_4  and  C_5
REMARK    4  A    between atoms: N_7  and  C_8
REMARK    5  A    between atoms: C_8  and  C_9
REMARK    6  A    between atoms: N_23  and  C_24
REMARK    7  A    between atoms: C_27  and  C_28
REMARK                            x       y       z     vdW  Elec       q    Type
REMARK                         _______ _______ _______ _____ _____    ______ ____
ROOT
ATOM      1  C   UNL     1       4.943   5.186  17.804  0.00  0.00    +0.000 A 
ATOM      2  C   UNL     1       4.386   6.444  17.812  0.00  0.00    +0.000 A 
ATOM      3  N   UNL     1       3.035   6.305  17.997  0.00  0.00    +0.000 N 
ATOM      4  C   UNL     1       2.695   4.969  18.036  0.00  0.00    +0.000 A 
ATOM      5  C   UNL     1       1.449   4.340  18.203  0.00  0.00    +0.000 A 
ATOM      6  C   UNL     1       1.412   2.944  18.214  0.00  0.00    +0.000 A 
ATOM      7  C   UNL     1       2.573   2.196  18.051  0.00  0.00    +0.000 A 
ATOM      8  C   UNL     1       3.811   2.829  17.890  0.00  0.00    +0.000 A 
ATOM      9  C   UNL     1       3.884   4.239  17.892  0.00  0.00    +0.000 A 
ENDROOT
BRANCH   1  10
ATOM     10  S   UNL     1       6.660   4.816  17.723  0.00  0.00    +0.000 S 
BRANCH  10  11
ATOM     11  C   UNL     1       7.249   6.325  16.903  0.00  0.00    +0.000 C 
BRANCH  11  13
ATOM     12  O   UNL     1       8.354   6.982  18.892  0.00  0.00    +0.000 OA
ATOM     13  C   UNL     1       7.848   7.360  17.833  0.00  0.00    +0.000 C 
ATOM     14  N   UNL     1       7.837   8.666  17.377  0.00  0.00    +0.000 N 
ATOM     15  H   UNL     1       7.201   8.861  16.611  0.00  0.00    +0.000 HD
BRANCH  14  16
ATOM     16  C   UNL     1       8.400   9.770  18.054  0.00  0.00    +0.000 A 
ATOM     17  C   UNL     1       8.298  11.081  17.582  0.00  0.00    +0.000 A 
ATOM     18  C   UNL     1       8.982  12.125  18.211  0.00  0.00    +0.000 A 
ATOM     19  C   UNL     1       9.776  11.878  19.335  0.00  0.00    +0.000 A 
ATOM     20  C   UNL     1       9.802  10.578  19.864  0.00  0.00    +0.000 A 
ATOM     21  C   UNL     1       9.110   9.534  19.234  0.00  0.00    +0.000 A 
BRANCH  19  22
ATOM     22  C   UNL     1      10.613  12.975  19.942  0.00  0.00    +0.000 C 
ATOM     23  F   UNL     1      10.040  13.560  21.033  0.00  0.00    +0.000 F 
ATOM     24  F   UNL     1      11.837  12.543  20.350  0.00  0.00    +0.000 F 
ATOM     25  F   UNL     1      10.849  13.991  19.064  0.00  0.00    +0.000 F 
ENDBRANCH  19  22
ENDBRANCH  14  16
ENDBRANCH  11  13
ENDBRANCH  10  11
ENDBRANCH   1  10
BRANCH   3  26
ATOM     26  C   UNL     1       2.109   7.429  18.083  0.00  0.00    +0.000 C 
BRANCH  26  27
ATOM     27  C   UNL     1       1.799   7.852  19.511  0.00  0.00    +0.000 C 
ATOM     28  O   UNL     1       2.114   7.165  20.482  0.00  0.00    +0.000 OA
ATOM     29  N   UNL     1       1.135   9.076  19.669  0.00  0.00    +0.000 N 
ATOM     30  C   UNL     1       0.986   9.616  21.023  0.00  0.00    +0.000 C 
ATOM     31  C   UNL     1      -0.363  10.304  21.219  0.00  0.00    +0.000 C 
ATOM     32  C   UNL     1      -0.651  11.315  20.113  0.00  0.00    +0.000 C 
ATOM     33  C   UNL     1      -0.505  10.665  18.743  0.00  0.00    +0.000 C 
ATOM     34  C   UNL     1       0.868  10.020  18.584  0.00  0.00    +0.000 C 
ENDBRANCH  26  27
ENDBRANCH   3  26
TORSDOF 7
ENDMDL
MODEL 2
REMARK VINA RESULT:      -8.6      6.060      9.026
REMARK  Name = 
REMARK  7 active torsions:
REMARK  status: ('A' for Active; 'I' for Inactive)
REMARK    1  A    between atoms: C_2  and  C_3
REMARK    2  A    between atoms: C_3  and  S_4
REMARK    3  A    between atoms: S_4  and  C_5
REMARK    4  A    between atoms: N_7  and  C_8
REMARK    5  A    between atoms: C_8  and  C_9
REMARK    6  A    between atoms: N_23  and  C_24
REMARK    7  A    between atoms: C_27  and  C_28
REMARK                            x       y       z     vdW  Elec       q    Type
REMARK                         _______ _______ _______ _____ _____    ______ ____
ROOT
ATOM      1  C   UNL     1      -0.482  11.185  18.839  0.00  0.00    +0.000 A 
ATOM      2  C   UNL     1      -0.431  12.279  19.672  0.00  0.00    +0.000 A 
ATOM      3  N   UNL     1      -1.714  12.717  19.872  0.00  0.00    +0.000 N 
ATOM      4  C   UNL     1      -2.595  11.968  19.122  0.00  0.00    +0.000 A 
ATOM      5  C   UNL     1      -3.993  12.041  18.998  0.00  0.00    +0.000 A 
ATOM      6  C   UNL     1      -4.629  11.124  18.157  0.00  0.00    +0.000 A 
ATOM      7  C   UNL     1      -3.899  10.174  17.452  0.00  0.00    +0.000 A 
ATOM      8  C   UNL     1      -2.507  10.103  17.584  0.00  0.00    +0.000 A 
ATOM      9  C   UNL     1      -1.836  11.005  18.439  0.00  0.00    +0.000 A 
ENDROOT
BRANCH   1  10
ATOM     10  S   UNL     1       0.879  10.176  18.372  0.00  0.00    +0.000 S 
BRANCH  10  11
ATOM     11  C   UNL     1       1.362   9.555  20.009  0.00  0.00    +0.000 C 
BRANCH  11  13
ATOM     12  O   UNL     1       1.269   7.417  21.023  0.00  0.00    +0.000 OA
ATOM     13  C   UNL     1       1.670   8.073  20.059  0.00  0.00    +0.000 C 
ATOM     14  N   UNL     1       2.334   7.553  18.962  0.00  0.00    +0.000 N 
ATOM     15  H   UNL     1       2.794   8.230  18.363  0.00  0.00    +0.000 HD
BRANCH  14  16
ATOM     16  C   UNL     1       2.659   6.191  18.777  0.00  0.00    +0.000 A 
ATOM     17  C   UNL     1       1.889   5.328  17.994  0.00  0.00    +0.000 A 
ATOM     18  C   UNL     1       2.170   3.960  17.946  0.00  0.00    +0.000 A 
ATOM     19  C   UNL     1       3.239   3.429  18.674  0.00  0.00    +0.000 A 
ATOM     20  C   UNL     1       4.069   4.310  19.385  0.00  0.00    +0.000 A 
ATOM     21  C   UNL     1       3.787   5.683  19.427  0.00  0.00    +0.000 A 
BRANCH  19  22
ATOM     22  C   UNL     1       3.471   1.940  18.724  0.00  0.00    +0.000 C 
ATOM     23  F   UNL     1       2.356   1.223  19.045  0.00  0.00    +0.000 F 
ATOM     24  F   UNL     1       3.912   1.433  17.541  0.00  0.00    +0.000 F 
ATOM     25  F   UNL     1       4.409   1.594  19.651  0.00  0.00    +0.000 F 
ENDBRANCH  19  22
ENDBRANCH  14  16
ENDBRANCH  11  13
ENDBRANCH  10  11
ENDBRANCH   1  10
BRANCH   3  26
ATOM     26  C   UNL     1      -2.060  13.851  20.723  0.00  0.00    +0.000 C 
BRANCH  26  27
ATOM     27  C   UNL     1      -2.123  13.503  22.203  0.00  0.00    +0.000 C 
ATOM     28  O   UNL     1      -1.113  13.268  22.865  0.00  0.00    +0.000 OA
ATOM     29  N   UNL     1      -3.399  13.465  22.781  0.00  0.00    +0.000 N 
ATOM     30  C   UNL     1      -3.499  13.323  24.235  0.00  0.00    +0.000 C 
ATOM     31  C   UNL     1      -4.672  12.437  24.645  0.00  0.00    +0.000 C 
ATOM     32  C   UNL     1      -5.973  12.870  23.974  0.00  0.00    +0.000 C 
ATOM     33  C   UNL     1      -5.791  12.961  22.463  0.00  0.00    +0.000 C 
ATOM     34  C   UNL     1      -4.629  13.880  22.104  0.00  0.00    +0.000 C 
ENDBRANCH  26  27
ENDBRANCH   3  26
TORSDOF 7
ENDMDL
MODEL 3
REMARK VINA RESULT:      -8.5      4.652      8.460
REMARK  Name = 
REMARK  7 active torsions:
REMARK  status: ('A' for Active; 'I' for Inactive)
REMARK    1  A    between atoms: C_2  and  C_3
REMARK    2  A    between atoms: C_3  and  S_4
REMARK    3  A    between atoms: S_4  and  C_5
REMARK    4  A    between atoms: N_7  and  C_8
REMARK    5  A    between atoms: C_8  and  C_9
REMARK    6  A    between atoms: N_23  and  C_24
REMARK    7  A    between atoms: C_27  and  C_28
REMARK                            x       y       z     vdW  Elec       q    Type
REMARK                         _______ _______ _______ _____ _____    ______ ____
ROOT
ATOM      1  C   UNL     1       4.814   3.934  17.931  0.00  0.00    +0.000 A 
ATOM      2  C   UNL     1       4.586   4.221  16.606  0.00  0.00    +0.000 A 
ATOM      3  N   UNL     1       5.512   5.150  16.209  0.00  0.00    +0.000 N 
ATOM      4  C   UNL     1       6.296   5.526  17.280  0.00  0.00    +0.000 A 
ATOM      5  C   UNL     1       7.362   6.439  17.365  0.00  0.00    +0.000 A 
ATOM      6  C   UNL     1       7.986   6.608  18.603  0.00  0.00    +0.000 A 
ATOM      7  C   UNL     1       7.557   5.904  19.724  0.00  0.00    +0.000 A 
ATOM      8  C   UNL     1       6.498   4.994  19.630  0.00  0.00    +0.000 A 
ATOM      9  C   UNL     1       5.857   4.787  18.389  0.00  0.00    +0.000 A 
ENDROOT
BRANCH   1  10
ATOM     10  S   UNL     1       3.982   2.713  18.883  0.00  0.00    +0.000 S 
BRANCH  10  11
ATOM     11  C   UNL     1       3.277   3.775  20.176  0.00  0.00    +0.000 C 
BRANCH  11  13
ATOM     12  O   UNL     1       1.547   4.749  18.886  0.00  0.00    +0.000 OA
ATOM     13  C   UNL     1       2.481   4.957  19.662  0.00  0.00    +0.000 C 
ATOM     14  N   UNL     1       2.834   6.195  20.170  0.00  0.00    +0.000 N 
ATOM     15  H   UNL     1       3.745   6.246  20.613  0.00  0.00    +0.000 HD
BRANCH  14  16
ATOM     16  C   UNL     1       2.182   7.412  19.876  0.00  0.00    +0.000 A 
ATOM     17  C   UNL     1       1.409   8.104  20.811  0.00  0.00    +0.000 A 
ATOM     18  C   UNL     1       0.674   9.233  20.440  0.00  0.00    +0.000 A 
ATOM     19  C   UNL     1       0.707   9.700  19.123  0.00  0.00    +0.000 A 
ATOM     20  C   UNL     1       1.557   9.061  18.206  0.00  0.00    +0.000 A 
ATOM     21  C   UNL     1       2.298   7.932  18.583  0.00  0.00    +0.000 A 
BRANCH  19  22
ATOM     22  C   UNL     1      -0.179  10.840  18.689  0.00  0.00    +0.000 C 
ATOM     23  F   UNL     1      -0.981  11.319  19.683  0.00  0.00    +0.000 F 
ATOM     24  F   UNL     1       0.524  11.910  18.228  0.00  0.00    +0.000 F 
ATOM     25  F   UNL     1      -1.022  10.484  17.678  0.00  0.00    +0.000 F 
ENDBRANCH  19  22
ENDBRANCH  14  16
ENDBRANCH  11  13
ENDBRANCH  10  11
ENDBRANCH   1  10
BRANCH   3  26
ATOM     26  C   UNL     1       5.598   5.683  14.854  0.00  0.00    +0.000 C 
BRANCH  26  27
ATOM     27  C   UNL     1       6.694   5.041  14.017  0.00  0.00    +0.000 C 
ATOM     28  O   UNL     1       7.866   5.408  14.079  0.00  0.00    +0.000 OA
ATOM     29  N   UNL     1       6.300   3.998  13.167  0.00  0.00    +0.000 N 
ATOM     30  C   UNL     1       7.342   3.225  12.487  0.00  0.00    +0.000 C 
ATOM     31  C   UNL     1       6.934   2.841  11.067  0.00  0.00    +0.000 C 
ATOM     32  C   UNL     1       5.555   2.190  11.029  0.00  0.00    +0.000 C 
ATOM     33  C   UNL     1       4.527   3.071  11.728  0.00  0.00    +0.000 C 
ATOM     34  C   UNL     1       4.964   3.402  13.151  0.00  0.00    +0.000 C 
ENDBRANCH  26  27
ENDBRANCH   3  26
TORSDOF 7
ENDMDL
MODEL 4
REMARK VINA RESULT:      -8.4      6.029      9.167
REMARK  Name = 
REMARK  7 active torsions:
REMARK  status: ('A' for Active; 'I' for Inactive)
REMARK    1  A    between atoms: C_2  and  C_3
REMARK    2  A    between atoms: C_3  and  S_4
REMARK    3  A    between atoms: S_4  and  C_5
REMARK    4  A    between atoms: N_7  and  C_8
REMARK    5  A    between atoms: C_8  and  C_9
REMARK    6  A    between atoms: N_23  and  C_24
REMARK    7  A    between atoms: C_27  and  C_28
REMARK                            x       y       z     vdW  Elec       q    Type
REMARK                         _______ _______ _______ _____ _____    ______ ____
ROOT
ATOM      1  C   UNL     1      -0.675  11.822  19.557  0.00  0.00    +0.000 A 
ATOM      2  C   UNL     1      -1.409  12.700  20.321  0.00  0.00    +0.000 A 
ATOM      3  N   UNL     1      -2.721  12.595  19.942  0.00  0.00    +0.000 N 
ATOM      4  C   UNL     1      -2.843  11.712  18.890  0.00  0.00    +0.000 A 
ATOM      5  C   UNL     1      -3.973  11.285  18.170  0.00  0.00    +0.000 A 
ATOM      6  C   UNL     1      -3.788  10.356  17.144  0.00  0.00    +0.000 A 
ATOM      7  C   UNL     1      -2.521   9.874  16.833  0.00  0.00    +0.000 A 
ATOM      8  C   UNL     1      -1.400  10.300  17.556  0.00  0.00    +0.000 A 
ATOM      9  C   UNL     1      -1.556  11.226  18.611  0.00  0.00    +0.000 A 
ENDROOT
BRANCH   1  10
ATOM     10  S   UNL     1       1.040  11.480  19.736  0.00  0.00    +0.000 S 
BRANCH  10  11
ATOM     11  C   UNL     1       0.935   9.907  20.637  0.00  0.00    +0.000 C 
BRANCH  11  13
ATOM     12  O   UNL     1       1.405   8.773  18.612  0.00  0.00    +0.000 OA
ATOM     13  C   UNL     1       1.362   8.691  19.841  0.00  0.00    +0.000 C 
ATOM     14  N   UNL     1       1.742   7.584  20.580  0.00  0.00    +0.000 N 
ATOM     15  H   UNL     1       1.448   7.579  21.551  0.00  0.00    +0.000 HD
BRANCH  14  16
ATOM     16  C   UNL     1       2.234   6.375  20.042  0.00  0.00    +0.000 A 
ATOM     17  C   UNL     1       3.265   6.329  19.101  0.00  0.00    +0.000 A 
ATOM     18  C   UNL     1       3.630   5.123  18.495  0.00  0.00    +0.000 A 
ATOM     19  C   UNL     1       2.975   3.934  18.829  0.00  0.00    +0.000 A 
ATOM     20  C   UNL     1       2.003   3.966  19.842  0.00  0.00    +0.000 A 
ATOM     21  C   UNL     1       1.644   5.176  20.452  0.00  0.00    +0.000 A 
BRANCH  19  22
ATOM     22  C   UNL     1       3.279   2.655  18.091  0.00  0.00    +0.000 C 
ATOM     23  F   UNL     1       3.670   1.634  18.905  0.00  0.00    +0.000 F 
ATOM     24  F   UNL     1       2.213   2.184  17.388  0.00  0.00    +0.000 F 
ATOM     25  F   UNL     1       4.285   2.808  17.184  0.00  0.00    +0.000 F 
ENDBRANCH  19  22
ENDBRANCH  14  16
ENDBRANCH  11  13
ENDBRANCH  10  11
ENDBRANCH   1  10
BRANCH   3  26
ATOM     26  C   UNL     1      -3.805  13.360  20.549  0.00  0.00    +0.000 C 
BRANCH  26  27
ATOM     27  C   UNL     1      -3.814  13.299  22.069  0.00  0.00    +0.000 C 
ATOM     28  O   UNL     1      -4.131  12.282  22.683  0.00  0.00    +0.000 OA
ATOM     29  N   UNL     1      -3.436  14.470  22.742  0.00  0.00    +0.000 N 
ATOM     30  C   UNL     1      -3.245  14.406  24.192  0.00  0.00    +0.000 C 
ATOM     31  C   UNL     1      -3.732  15.673  24.891  0.00  0.00    +0.000 C 
ATOM     32  C   UNL     1      -3.161  16.932  24.245  0.00  0.00    +0.000 C 
ATOM     33  C   UNL     1      -3.431  16.934  22.745  0.00  0.00    +0.000 C 
ATOM     34  C   UNL     1      -2.899  15.664  22.090  0.00  0.00    +0.000 C 
ENDBRANCH  26  27
ENDBRANCH   3  26
TORSDOF 7
ENDMDL
MODEL 5
REMARK VINA RESULT:      -8.3      6.404      9.469
REMARK  Name = 
REMARK  7 active torsions:
REMARK  status: ('A' for Active; 'I' for Inactive)
REMARK    1  A    between atoms: C_2  and  C_3
REMARK    2  A    between atoms: C_3  and  S_4
REMARK    3  A    between atoms: S_4  and  C_5
REMARK    4  A    between atoms: N_7  and  C_8
REMARK    5  A    between atoms: C_8  and  C_9
REMARK    6  A    between atoms: N_23  and  C_24
REMARK    7  A    between atoms: C_27  and  C_28
REMARK                            x       y       z     vdW  Elec       q    Type
REMARK                         _______ _______ _______ _____ _____    ______ ____
ROOT
ATOM      1  C   UNL     1      -0.695  11.781  20.310  0.00  0.00    +0.000 A 
ATOM      2  C   UNL     1      -1.505  12.723  20.900  0.00  0.00    +0.000 A 
ATOM      3  N   UNL     1      -2.716  12.701  20.259  0.00  0.00    +0.000 N 
ATOM      4  C   UNL     1      -2.682  11.806  19.210  0.00  0.00    +0.000 A 
ATOM      5  C   UNL     1      -3.667  11.443  18.276  0.00  0.00    +0.000 A 
ATOM      6  C   UNL     1      -3.343  10.481  17.317  0.00  0.00    +0.000 A 
ATOM      7  C   UNL     1      -2.078   9.906  17.277  0.00  0.00    +0.000 A 
ATOM      8  C   UNL     1      -1.102  10.269  18.213  0.00  0.00    +0.000 A 
ATOM      9  C   UNL     1      -1.404  11.226  19.207  0.00  0.00    +0.000 A 
ENDROOT
BRANCH   1  10
ATOM     10  S   UNL     1       0.917  11.324  20.841  0.00  0.00    +0.000 S 
BRANCH  10  11
ATOM     11  C   UNL     1       0.482   9.985  21.988  0.00  0.00    +0.000 C 
BRANCH  11  13
ATOM     12  O   UNL     1      -0.548   7.965  21.305  0.00  0.00    +0.000 OA
ATOM     13  C   UNL     1       0.508   8.597  21.381  0.00  0.00    +0.000 C 
ATOM     14  N   UNL     1       1.729   8.171  20.890  0.00  0.00    +0.000 N 
ATOM     15  H   UNL     1       2.540   8.686  21.216  0.00  0.00    +0.000 HD
BRANCH  14  16
ATOM     16  C   UNL     1       1.958   6.945  20.229  0.00  0.00    +0.000 A 
ATOM     17  C   UNL     1       2.527   6.864  18.956  0.00  0.00    +0.000 A 
ATOM     18  C   UNL     1       2.613   5.641  18.284  0.00  0.00    +0.000 A 
ATOM     19  C   UNL     1       2.139   4.469  18.881  0.00  0.00    +0.000 A 
ATOM     20  C   UNL     1       1.654   4.536  20.197  0.00  0.00    +0.000 A 
ATOM     21  C   UNL     1       1.575   5.763  20.870  0.00  0.00    +0.000 A 
BRANCH  19  22
ATOM     22  C   UNL     1       2.115   3.171  18.114  0.00  0.00    +0.000 C 
ATOM     23  F   UNL     1       0.941   2.488  18.231  0.00  0.00    +0.000 F 
ATOM     24  F   UNL     1       2.315   3.342  16.779  0.00  0.00    +0.000 F 
ATOM     25  F   UNL     1       3.085   2.308  18.529  0.00  0.00    +0.000 F 
ENDBRANCH  19  22
ENDBRANCH  14  16
ENDBRANCH  11  13
ENDBRANCH  10  11
ENDBRANCH   1  10
BRANCH   3  26
ATOM     26  C   UNL     1      -3.843  13.552  20.623  0.00  0.00    +0.000 C 
BRANCH  26  27
ATOM     27  C   UNL     1      -3.427  14.913  21.161  0.00  0.00    +0.000 C 
ATOM     28  O   UNL     1      -3.068  15.829  20.421  0.00  0.00    +0.000 OA
ATOM     29  N   UNL     1      -3.475  15.076  22.552  0.00  0.00    +0.000 N 
ATOM     30  C   UNL     1      -3.268  16.417  23.102  0.00  0.00    +0.000 C 
ATOM     31  C   UNL     1      -2.472  16.386  24.404  0.00  0.00    +0.000 C 
ATOM     32  C   UNL     1      -3.055  15.389  25.403  0.00  0.00    +0.000 C 
ATOM     33  C   UNL     1      -3.207  14.015  24.761  0.00  0.00    +0.000 C 
ATOM     34  C   UNL     1      -4.034  14.094  23.482  0.00  0.00    +0.000 C 
ENDBRANCH  26  27
ENDBRANCH   3  26
TORSDOF 7
ENDMDL
MODEL 6
REMARK VINA RESULT:      -8.0      6.334      9.744
REMARK  Name = 
REMARK  7 active torsions:
REMARK  status: ('A' for Active; 'I' for Inactive)
REMARK    1  A    between atoms: C_2  and  C_3
REMARK    2  A    between atoms: C_3  and  S_4
REMARK    3  A    between atoms: S_4  and  C_5
REMARK    4  A    between atoms: N_7  and  C_8
REMARK    5  A    between atoms: C_8  and  C_9
REMARK    6  A    between atoms: N_23  and  C_24
REMARK    7  A    between atoms: C_27  and  C_28
REMARK                            x       y       z     vdW  Elec       q    Type
REMARK                         _______ _______ _______ _____ _____    ______ ____
ROOT
ATOM      1  C   UNL     1      -0.977  11.997  19.669  0.00  0.00    +0.000 A 
ATOM      2  C   UNL     1      -1.052  12.695  20.852  0.00  0.00    +0.000 A 
ATOM      3  N   UNL     1      -2.369  13.002  21.078  0.00  0.00    +0.000 N 
ATOM      4  C   UNL     1      -3.145  12.576  20.020  0.00  0.00    +0.000 A 
ATOM      5  C   UNL     1      -4.530  12.667  19.799  0.00  0.00    +0.000 A 
ATOM      6  C   UNL     1      -5.045  12.125  18.619  0.00  0.00    +0.000 A 
ATOM      7  C   UNL     1      -4.210  11.525  17.682  0.00  0.00    +0.000 A 
ATOM      8  C   UNL     1      -2.832  11.435  17.911  0.00  0.00    +0.000 A 
ATOM      9  C   UNL     1      -2.283  11.957  19.102  0.00  0.00    +0.000 A 
ENDROOT
BRANCH   1  10
ATOM     10  S   UNL     1       0.469  11.264  18.991  0.00  0.00    +0.000 S 
BRANCH  10  11
ATOM     11  C   UNL     1       1.127  10.470  20.486  0.00  0.00    +0.000 C 
BRANCH  11  13
ATOM     12  O   UNL     1       0.104   8.428  21.112  0.00  0.00    +0.000 OA
ATOM     13  C   UNL     1       1.031   8.958  20.496  0.00  0.00    +0.000 C 
ATOM     14  N   UNL     1       1.974   8.285  19.739  0.00  0.00    +0.000 N 
ATOM     15  H   UNL     1       2.793   8.821  19.476  0.00  0.00    +0.000 HD
BRANCH  14  16
ATOM     16  C   UNL     1       2.024   6.885  19.558  0.00  0.00    +0.000 A 
ATOM     17  C   UNL     1       1.879   5.979  20.611  0.00  0.00    +0.000 A 
ATOM     18  C   UNL     1       2.068   4.609  20.409  0.00  0.00    +0.000 A 
ATOM     19  C   UNL     1       2.396   4.116  19.143  0.00  0.00    +0.000 A 
ATOM     20  C   UNL     1       2.449   5.017  18.067  0.00  0.00    +0.000 A 
ATOM     21  C   UNL     1       2.253   6.390  18.271  0.00  0.00    +0.000 A 
BRANCH  19  22
ATOM     22  C   UNL     1       2.723   2.658  18.946  0.00  0.00    +0.000 C 
ATOM     23  F   UNL     1       3.658   2.432  17.979  0.00  0.00    +0.000 F 
ATOM     24  F   UNL     1       3.202   2.066  20.074  0.00  0.00    +0.000 F 
ATOM     25  F   UNL     1       1.631   1.929  18.578  0.00  0.00    +0.000 F 
ENDBRANCH  19  22
ENDBRANCH  14  16
ENDBRANCH  11  13
ENDBRANCH  10  11
ENDBRANCH   1  10
BRANCH   3  26
ATOM     26  C   UNL     1      -2.843  13.724  22.254  0.00  0.00    +0.000 C 
BRANCH  26  27
ATOM     27  C   UNL     1      -3.735  12.888  23.159  0.00  0.00    +0.000 C 
ATOM     28  O   UNL     1      -3.330  11.872  23.722  0.00  0.00    +0.000 OA
ATOM     29  N   UNL     1      -5.053  13.337  23.325  0.00  0.00    +0.000 N 
ATOM     30  C   UNL     1      -5.890  12.679  24.331  0.00  0.00    +0.000 C 
ATOM     31  C   UNL     1      -7.338  12.541  23.868  0.00  0.00    +0.000 C 
ATOM     32  C   UNL     1      -7.902  13.866  23.363  0.00  0.00    +0.000 C 
ATOM     33  C   UNL     1      -6.989  14.465  22.300  0.00  0.00    +0.000 C 
ATOM     34  C   UNL     1      -5.563  14.612  22.819  0.00  0.00    +0.000 C 
ENDBRANCH  26  27
ENDBRANCH   3  26
TORSDOF 7
ENDMDL
MODEL 7
REMARK VINA RESULT:      -8.0      6.130      9.085
REMARK  Name = 
REMARK  7 active torsions:
REMARK  status: ('A' for Active; 'I' for Inactive)
REMARK    1  A    between atoms: C_2  and  C_3
REMARK    2  A    between atoms: C_3  and  S_4
REMARK    3  A    between atoms: S_4  and  C_5
REMARK    4  A    between atoms: N_7  and  C_8
REMARK    5  A    between atoms: C_8  and  C_9
REMARK    6  A    between atoms: N_23  and  C_24
REMARK    7  A    between atoms: C_27  and  C_28
REMARK                            x       y       z     vdW  Elec       q    Type
REMARK                         _______ _______ _______ _____ _____    ______ ____
ROOT
ATOM      1  C   UNL     1      -0.673  11.026  18.746  0.00  0.00    +0.000 A 
ATOM      2  C   UNL     1      -1.012  11.924  19.732  0.00  0.00    +0.000 A 
ATOM      3  N   UNL     1      -2.336  12.239  19.578  0.00  0.00    +0.000 N 
ATOM      4  C   UNL     1      -2.848  11.614  18.461  0.00  0.00    +0.000 A 
ATOM      5  C   UNL     1      -4.138  11.635  17.903  0.00  0.00    +0.000 A 
ATOM      6  C   UNL     1      -4.370  10.879  16.751  0.00  0.00    +0.000 A 
ATOM      7  C   UNL     1      -3.350  10.137  16.164  0.00  0.00    +0.000 A 
ATOM      8  C   UNL     1      -2.069  10.118  16.727  0.00  0.00    +0.000 A 
ATOM      9  C   UNL     1      -1.807  10.858  17.901  0.00  0.00    +0.000 A 
ENDROOT
BRANCH   1  10
ATOM     10  S   UNL     1       0.875  10.213  18.576  0.00  0.00    +0.000 S 
BRANCH  10  11
ATOM     11  C   UNL     1       1.126   9.691  20.297  0.00  0.00    +0.000 C 
BRANCH  11  13
ATOM     12  O   UNL     1       1.147   7.646  21.491  0.00  0.00    +0.000 OA
ATOM     13  C   UNL     1       1.506   8.235  20.469  0.00  0.00    +0.000 C 
ATOM     14  N   UNL     1       2.182   7.654  19.410  0.00  0.00    +0.000 N 
ATOM     15  H   UNL     1       2.602   8.297  18.749  0.00  0.00    +0.000 HD
BRANCH  14  16
ATOM     16  C   UNL     1       2.569   6.298  19.338  0.00  0.00    +0.000 A 
ATOM     17  C   UNL     1       3.508   5.826  18.417  0.00  0.00    +0.000 A 
ATOM     18  C   UNL     1       3.762   4.458  18.290  0.00  0.00    +0.000 A 
ATOM     19  C   UNL     1       3.089   3.532  19.093  0.00  0.00    +0.000 A 
ATOM     20  C   UNL     1       2.216   4.014  20.082  0.00  0.00    +0.000 A 
ATOM     21  C   UNL     1       1.967   5.387  20.211  0.00  0.00    +0.000 A 
BRANCH  19  22
ATOM     22  C   UNL     1       3.268   2.051  18.875  0.00  0.00    +0.000 C 
ATOM     23  F   UNL     1       2.178   1.311  19.229  0.00  0.00    +0.000 F 
ATOM     24  F   UNL     1       3.528   1.735  17.578  0.00  0.00    +0.000 F 
ATOM     25  F   UNL     1       4.306   1.544  19.599  0.00  0.00    +0.000 F 
ENDBRANCH  19  22
ENDBRANCH  14  16
ENDBRANCH  11  13
ENDBRANCH  10  11
ENDBRANCH   1  10
BRANCH   3  26
ATOM     26  C   UNL     1      -3.060  13.151  20.457  0.00  0.00    +0.000 C 
BRANCH  26  27
ATOM     27  C   UNL     1      -3.046  12.725  21.918  0.00  0.00    +0.000 C 
ATOM     28  O   UNL     1      -2.062  12.201  22.439  0.00  0.00    +0.000 OA
ATOM     29  N   UNL     1      -4.218  12.963  22.649  0.00  0.00    +0.000 N 
ATOM     30  C   UNL     1      -4.189  12.747  24.097  0.00  0.00    +0.000 C 
ATOM     31  C   UNL     1      -5.497  12.153  24.614  0.00  0.00    +0.000 C 
ATOM     32  C   UNL     1      -6.710  12.941  24.129  0.00  0.00    +0.000 C 
ATOM     33  C   UNL     1      -6.679  13.092  22.613  0.00  0.00    +0.000 C 
ATOM     34  C   UNL     1      -5.368  13.718  22.149  0.00  0.00    +0.000 C 
ENDBRANCH  26  27
ENDBRANCH   3  26
TORSDOF 7
ENDMDL
MODEL 8
REMARK VINA RESULT:      -8.0      5.599      8.830
REMARK  Name = 
REMARK  7 active torsions:
REMARK  status: ('A' for Active; 'I' for Inactive)
REMARK    1  A    between atoms: C_2  and  C_3
REMARK    2  A    between atoms: C_3  and  S_4
REMARK    3  A    between atoms: S_4  and  C_5
REMARK    4  A    between atoms: N_7  and  C_8
REMARK    5  A    between atoms: C_8  and  C_9
REMARK    6  A    between atoms: N_23  and  C_24
REMARK    7  A    between atoms: C_27  and  C_28
REMARK                            x       y       z     vdW  Elec       q    Type
REMARK                         _______ _______ _______ _____ _____    ______ ____
ROOT
ATOM      1  C   UNL     1      -1.883  11.911  19.393  0.00  0.00    +0.000 A 
ATOM      2  C   UNL     1      -3.017  12.604  19.750  0.00  0.00    +0.000 A 
ATOM      3  N   UNL     1      -4.032  12.210  18.917  0.00  0.00    +0.000 N 
ATOM      4  C   UNL     1      -3.556  11.323  17.974  0.00  0.00    +0.000 A 
ATOM      5  C   UNL     1      -4.210  10.657  16.923  0.00  0.00    +0.000 A 
ATOM      6  C   UNL     1      -3.459   9.793  16.123  0.00  0.00    +0.000 A 
ATOM      7  C   UNL     1      -2.100   9.605  16.351  0.00  0.00    +0.000 A 
ATOM      8  C   UNL     1      -1.456  10.268  17.402  0.00  0.00    +0.000 A 
ATOM      9  C   UNL     1      -2.191  11.135  18.240  0.00  0.00    +0.000 A 
ENDROOT
BRANCH   1  10
ATOM     10  S   UNL     1      -0.338  11.957  20.229  0.00  0.00    +0.000 S 
BRANCH  10  11
ATOM     11  C   UNL     1      -0.558  10.535  21.336  0.00  0.00    +0.000 C 
BRANCH  11  13
ATOM     12  O   UNL     1       0.377   8.418  21.834  0.00  0.00    +0.000 OA
ATOM     13  C   UNL     1       0.325   9.345  21.024  0.00  0.00    +0.000 C 
ATOM     14  N   UNL     1       0.962   9.367  19.795  0.00  0.00    +0.000 N 
ATOM     15  H   UNL     1       1.011  10.272  19.340  0.00  0.00    +0.000 HD
BRANCH  14  16
ATOM     16  C   UNL     1       1.775   8.333  19.281  0.00  0.00    +0.000 A 
ATOM     17  C   UNL     1       2.036   7.154  19.982  0.00  0.00    +0.000 A 
ATOM     18  C   UNL     1       2.951   6.217  19.495  0.00  0.00    +0.000 A 
ATOM     19  C   UNL     1       3.616   6.437  18.285  0.00  0.00    +0.000 A 
ATOM     20  C   UNL     1       3.283   7.577  17.535  0.00  0.00    +0.000 A 
ATOM     21  C   UNL     1       2.361   8.512  18.024  0.00  0.00    +0.000 A 
BRANCH  19  22
ATOM     22  C   UNL     1       4.693   5.492  17.816  0.00  0.00    +0.000 C 
ATOM     23  F   UNL     1       5.958   5.952  18.036  0.00  0.00    +0.000 F 
ATOM     24  F   UNL     1       4.629   4.275  18.421  0.00  0.00    +0.000 F 
ATOM     25  F   UNL     1       4.619   5.247  16.477  0.00  0.00    +0.000 F 
ENDBRANCH  19  22
ENDBRANCH  14  16
ENDBRANCH  11  13
ENDBRANCH  10  11
ENDBRANCH   1  10
BRANCH   3  26
ATOM     26  C   UNL     1      -5.397  12.715  19.007  0.00  0.00    +0.000 C 
BRANCH  26  27
ATOM     27  C   UNL     1      -6.105  12.326  20.296  0.00  0.00    +0.000 C 
ATOM     28  O   UNL     1      -6.059  13.025  21.307  0.00  0.00    +0.000 OA
ATOM     29  N   UNL     1      -6.821  11.121  20.275  0.00  0.00    +0.000 N 
ATOM     30  C   UNL     1      -7.671  10.798  21.424  0.00  0.00    +0.000 C 
ATOM     31  C   UNL     1      -7.644   9.308  21.755  0.00  0.00    +0.000 C 
ATOM     32  C   UNL     1      -7.912   8.447  20.524  0.00  0.00    +0.000 C 
ATOM     33  C   UNL     1      -6.966   8.825  19.390  0.00  0.00    +0.000 C 
ATOM     34  C   UNL     1      -7.053  10.315  19.076  0.00  0.00    +0.000 C 
ENDBRANCH  26  27
ENDBRANCH   3  26
TORSDOF 7
ENDMDL
MODEL 9
REMARK VINA RESULT:      -8.0      6.028      8.999
REMARK  Name = 
REMARK  7 active torsions:
REMARK  status: ('A' for Active; 'I' for Inactive)
REMARK    1  A    between atoms: C_2  and  C_3
REMARK    2  A    between atoms: C_3  and  S_4
REMARK    3  A    between atoms: S_4  and  C_5
REMARK    4  A    between atoms: N_7  and  C_8
REMARK    5  A    between atoms: C_8  and  C_9
REMARK    6  A    between atoms: N_23  and  C_24
REMARK    7  A    between atoms: C_27  and  C_28
REMARK                            x       y       z     vdW  Elec       q    Type
REMARK                         _______ _______ _______ _____ _____    ______ ____
ROOT
ATOM      1  C   UNL     1      -0.711  10.892  19.893  0.00  0.00    +0.000 A 
ATOM      2  C   UNL     1      -1.283  11.904  20.629  0.00  0.00    +0.000 A 
ATOM      3  N   UNL     1      -2.432  12.292  19.991  0.00  0.00    +0.000 N 
ATOM      4  C   UNL     1      -2.579  11.595  18.810  0.00  0.00    +0.000 A 
ATOM      5  C   UNL     1      -3.584  11.647  17.828  0.00  0.00    +0.000 A 
ATOM      6  C   UNL     1      -3.472  10.798  16.725  0.00  0.00    +0.000 A 
ATOM      7  C   UNL     1      -2.390   9.934  16.593  0.00  0.00    +0.000 A 
ATOM      8  C   UNL     1      -1.395   9.884  17.577  0.00  0.00    +0.000 A 
ATOM      9  C   UNL     1      -1.489  10.718  18.713  0.00  0.00    +0.000 A 
ENDROOT
BRANCH   1  10
ATOM     10  S   UNL     1       0.711   9.962  20.343  0.00  0.00    +0.000 S 
BRANCH  10  11
ATOM     11  C   UNL     1       1.603  10.001  18.762  0.00  0.00    +0.000 C 
BRANCH  11  13
ATOM     12  O   UNL     1       2.552   8.568  17.133  0.00  0.00    +0.000 OA
ATOM     13  C   UNL     1       2.078   8.651  18.269  0.00  0.00    +0.000 C 
ATOM     14  N   UNL     1       2.002   7.610  19.178  0.00  0.00    +0.000 N 
ATOM     15  H   UNL     1       1.397   7.766  19.976  0.00  0.00    +0.000 HD
BRANCH  14  16
ATOM     16  C   UNL     1       2.452   6.292  18.946  0.00  0.00    +0.000 A 
ATOM     17  C   UNL     1       1.933   5.482  17.933  0.00  0.00    +0.000 A 
ATOM     18  C   UNL     1       2.311   4.141  17.824  0.00  0.00    +0.000 A 
ATOM     19  C   UNL     1       3.226   3.585  18.723  0.00  0.00    +0.000 A 
ATOM     20  C   UNL     1       3.817   4.424  19.681  0.00  0.00    +0.000 A 
ATOM     21  C   UNL     1       3.441   5.770  19.785  0.00  0.00    +0.000 A 
BRANCH  19  22
ATOM     22  C   UNL     1       3.542   2.111  18.687  0.00  0.00    +0.000 C 
ATOM     23  F   UNL     1       4.527   1.741  19.555  0.00  0.00    +0.000 F 
ATOM     24  F   UNL     1       2.468   1.333  18.988  0.00  0.00    +0.000 F 
ATOM     25  F   UNL     1       3.966   1.704  17.456  0.00  0.00    +0.000 F 
ENDBRANCH  19  22
ENDBRANCH  14  16
ENDBRANCH  11  13
ENDBRANCH  10  11
ENDBRANCH   1  10
BRANCH   3  26
ATOM     26  C   UNL     1      -3.324  13.334  20.489  0.00  0.00    +0.000 C 
BRANCH  26  27
ATOM     27  C   UNL     1      -2.592  14.558  21.019  0.00  0.00    +0.000 C 
ATOM     28  O   UNL     1      -1.824  15.216  20.319  0.00  0.00    +0.000 OA
ATOM     29  N   UNL     1      -2.839  14.903  22.355  0.00  0.00    +0.000 N 
ATOM     30  C   UNL     1      -2.310  16.174  22.852  0.00  0.00    +0.000 C 
ATOM     31  C   UNL     1      -1.822  16.066  24.295  0.00  0.00    +0.000 C 
ATOM     32  C   UNL     1      -2.872  15.433  25.204  0.00  0.00    +0.000 C 
ATOM     33  C   UNL     1      -3.344  14.102  24.630  0.00  0.00    +0.000 C 
ATOM     34  C   UNL     1      -3.850  14.268  23.201  0.00  0.00    +0.000 C 
ENDBRANCH  26  27
ENDBRANCH   3  26
TORSDOF 7
ENDMDL
