MODEL 1
REMARK VINA RESULT:      -6.8      0.000      0.000
REMARK  Name = 
REMARK  9 active torsions:
REMARK  status: ('A' for Active; 'I' for Inactive)
REMARK    1  A    between atoms: C_1  and  C_2
REMARK    2  A    between atoms: C_3  and  O_4
REMARK    3  A    between atoms: O_4  and  C_5
REMARK    4  A    between atoms: C_5  and  C_6
REMARK    5  A    between atoms: C_6  and  C_7
REMARK    6  A    between atoms: C_6  and  C_8
REMARK    7  A    between atoms: C_12  and  C_13
REMARK    8  A    between atoms: C_13  and  C_14
REMARK    9  A    between atoms: C_14  and  C_15
REMARK                            x       y       z     vdW  Elec       q    Type
REMARK                         _______ _______ _______ _____ _____    ______ ____
ROOT
ATOM      1  C   UNL     1       4.971   5.412  19.163  0.00  0.00    +0.000 C 
ATOM      2  C   UNL     1       3.753   4.640  18.739  0.00  0.00    +0.000 A 
ATOM      3  C   UNL     1       3.817   3.612  17.781  0.00  0.00    +0.000 A 
ATOM      4  C   UNL     1       2.664   2.876  17.499  0.00  0.00    +0.000 A 
ATOM      5  C   UNL     1       1.472   3.251  18.078  0.00  0.00    +0.000 A 
ATOM      6  N   UNL     1       1.358   4.274  18.937  0.00  0.00    +0.000 NA
ATOM      7  C   UNL     1       2.489   4.939  19.291  0.00  0.00    +0.000 A 
ENDROOT
BRANCH   3   8
ATOM      8  O   UNL     1       5.018   3.380  17.142  0.00  0.00    +0.000 OA
BRANCH   8   9
ATOM      9  C   UNL     1       5.033   3.782  15.759  0.00  0.00    +0.000 C 
BRANCH   9  10
ATOM     10  C   UNL     1       5.975   4.956  15.466  0.00  0.00    +0.000 C 
ATOM     11  C   UNL     1       5.249   6.296  15.544  0.00  0.00    +0.000 C 
ATOM     12  C   UNL     1       7.207   4.945  16.365  0.00  0.00    +0.000 C 
ENDBRANCH   9  10
ENDBRANCH   8   9
ENDBRANCH   3   8
BRANCH   7  13
ATOM     13  C   UNL     1       2.248   6.077  20.256  0.00  0.00    +0.000 C 
BRANCH  13  14
ATOM     14  C   UNL     1       2.227   7.449  19.575  0.00  0.00    +0.000 C 
BRANCH  14  15
ATOM     15  C   UNL     1       1.324   8.441  20.250  0.00  0.00    +0.000 A 
ATOM     16  N   UNL     1       0.911   8.365  21.499  0.00  0.00    +0.000 NA
ATOM     17  C   UNL     1       0.138   9.472  21.810  0.00  0.00    +0.000 A 
ATOM     18  C   UNL     1      -0.483   9.733  23.050  0.00  0.00    +0.000 A 
ATOM     19  C   UNL     1      -1.210  10.914  23.230  0.00  0.00    +0.000 A 
ATOM     20  C   UNL     1      -1.332  11.837  22.198  0.00  0.00    +0.000 A 
ATOM     21  C   UNL     1      -0.733  11.599  20.957  0.00  0.00    +0.000 A 
ATOM     22  C   UNL     1      -0.009  10.406  20.784  0.00  0.00    +0.000 A 
ATOM     23  S   UNL     1       0.828   9.844  19.390  0.00  0.00    +0.000 S 
ENDBRANCH  14  15
ENDBRANCH  13  14
ENDBRANCH   7  13
TORSDOF 6
ENDMDL
MODEL 2
REMARK VINA RESULT:      -6.8      1.984      2.830
REMARK  Name = 
REMARK  9 active torsions:
REMARK  status: ('A' for Active; 'I' for Inactive)
REMARK    1  A    between atoms: C_1  and  C_2
REMARK    2  A    between atoms: C_3  and  O_4
REMARK    3  A    between atoms: O_4  and  C_5
REMARK    4  A    between atoms: C_5  and  C_6
REMARK    5  A    between atoms: C_6  and  C_7
REMARK    6  A    between atoms: C_6  and  C_8
REMARK    7  A    between atoms: C_12  and  C_13
REMARK    8  A    between atoms: C_13  and  C_14
REMARK    9  A    between atoms: C_14  and  C_15
REMARK                            x       y       z     vdW  Elec       q    Type
REMARK                         _______ _______ _______ _____ _____    ______ ____
ROOT
ATOM      1  C   UNL     1       4.831   7.013  15.625  0.00  0.00    +0.000 C 
ATOM      2  C   UNL     1       5.373   6.304  16.835  0.00  0.00    +0.000 A 
ATOM      3  C   UNL     1       6.628   5.670  16.828  0.00  0.00    +0.000 A 
ATOM      4  C   UNL     1       7.109   5.107  18.013  0.00  0.00    +0.000 A 
ATOM      5  C   UNL     1       6.294   5.085  19.122  0.00  0.00    +0.000 A 
ATOM      6  N   UNL     1       5.061   5.612  19.145  0.00  0.00    +0.000 NA
ATOM      7  C   UNL     1       4.619   6.244  18.026  0.00  0.00    +0.000 A 
ENDROOT
BRANCH   3   8
ATOM      8  O   UNL     1       7.334   5.615  15.643  0.00  0.00    +0.000 OA
BRANCH   8   9
ATOM      9  C   UNL     1       7.082   4.427  14.868  0.00  0.00    +0.000 C 
BRANCH   9  10
ATOM     10  C   UNL     1       6.719   4.708  13.405  0.00  0.00    +0.000 C 
ATOM     11  C   UNL     1       7.897   5.293  12.632  0.00  0.00    +0.000 C 
ATOM     12  C   UNL     1       6.159   3.474  12.704  0.00  0.00    +0.000 C 
ENDBRANCH   9  10
ENDBRANCH   8   9
ENDBRANCH   3   8
BRANCH   7  13
ATOM     13  C   UNL     1       3.216   6.794  18.154  0.00  0.00    +0.000 C 
BRANCH  13  14
ATOM     14  C   UNL     1       2.582   6.510  19.520  0.00  0.00    +0.000 C 
BRANCH  14  15
ATOM     15  C   UNL     1       1.774   7.657  20.056  0.00  0.00    +0.000 A 
ATOM     16  N   UNL     1       1.266   7.728  21.269  0.00  0.00    +0.000 NA
ATOM     17  C   UNL     1       0.629   8.945  21.446  0.00  0.00    +0.000 A 
ATOM     18  C   UNL     1      -0.039   9.375  22.612  0.00  0.00    +0.000 A 
ATOM     19  C   UNL     1      -0.612  10.650  22.657  0.00  0.00    +0.000 A 
ATOM     20  C   UNL     1      -0.535  11.502  21.562  0.00  0.00    +0.000 A 
ATOM     21  C   UNL     1       0.114  11.098  20.391  0.00  0.00    +0.000 A 
ATOM     22  C   UNL     1       0.681   9.812  20.353  0.00  0.00    +0.000 A 
ATOM     23  S   UNL     1       1.533   9.045  19.071  0.00  0.00    +0.000 S 
ENDBRANCH  14  15
ENDBRANCH  13  14
ENDBRANCH   7  13
TORSDOF 6
ENDMDL
MODEL 3
REMARK VINA RESULT:      -6.7      1.478      1.853
REMARK  Name = 
REMARK  9 active torsions:
REMARK  status: ('A' for Active; 'I' for Inactive)
REMARK    1  A    between atoms: C_1  and  C_2
REMARK    2  A    between atoms: C_3  and  O_4
REMARK    3  A    between atoms: O_4  and  C_5
REMARK    4  A    between atoms: C_5  and  C_6
REMARK    5  A    between atoms: C_6  and  C_7
REMARK    6  A    between atoms: C_6  and  C_8
REMARK    7  A    between atoms: C_12  and  C_13
REMARK    8  A    between atoms: C_13  and  C_14
REMARK    9  A    between atoms: C_14  and  C_15
REMARK                            x       y       z     vdW  Elec       q    Type
REMARK                         _______ _______ _______ _____ _____    ______ ____
ROOT
ATOM      1  C   UNL     1       5.544   7.167  17.222  0.00  0.00    +0.000 C 
ATOM      2  C   UNL     1       4.663   5.950  17.264  0.00  0.00    +0.000 A 
ATOM      3  C   UNL     1       5.037   4.736  16.659  0.00  0.00    +0.000 A 
ATOM      4  C   UNL     1       4.212   3.620  16.813  0.00  0.00    +0.000 A 
ATOM      5  C   UNL     1       3.000   3.766  17.452  0.00  0.00    +0.000 A 
ATOM      6  N   UNL     1       2.576   4.925  17.975  0.00  0.00    +0.000 NA
ATOM      7  C   UNL     1       3.411   5.996  17.913  0.00  0.00    +0.000 A 
ENDROOT
BRANCH   3   8
ATOM      8  O   UNL     1       6.202   4.699  15.920  0.00  0.00    +0.000 OA
BRANCH   8   9
ATOM      9  C   UNL     1       6.191   3.725  14.859  0.00  0.00    +0.000 C 
BRANCH   9  10
ATOM     10  C   UNL     1       6.288   4.336  13.456  0.00  0.00    +0.000 C 
ATOM     11  C   UNL     1       7.612   5.065  13.248  0.00  0.00    +0.000 C 
ATOM     12  C   UNL     1       6.052   3.301  12.360  0.00  0.00    +0.000 C 
ENDBRANCH   9  10
ENDBRANCH   8   9
ENDBRANCH   3   8
BRANCH   7  13
ATOM     13  C   UNL     1       2.832   7.253  18.523  0.00  0.00    +0.000 C 
BRANCH  13  14
ATOM     14  C   UNL     1       2.324   7.047  19.954  0.00  0.00    +0.000 C 
BRANCH  14  15
ATOM     15  C   UNL     1       1.457   8.169  20.449  0.00  0.00    +0.000 A 
ATOM     16  N   UNL     1       1.005   8.294  21.680  0.00  0.00    +0.000 NA
ATOM     17  C   UNL     1       0.285   9.471  21.802  0.00  0.00    +0.000 A 
ATOM     18  C   UNL     1      -0.357   9.938  22.969  0.00  0.00    +0.000 A 
ATOM     19  C   UNL     1      -1.024  11.167  22.954  0.00  0.00    +0.000 A 
ATOM     20  C   UNL     1      -1.068  11.936  21.797  0.00  0.00    +0.000 A 
ATOM     21  C   UNL     1      -0.447  11.493  20.625  0.00  0.00    +0.000 A 
ATOM     22  C   UNL     1       0.216  10.253  20.649  0.00  0.00    +0.000 A 
ATOM     23  S   UNL     1       1.060   9.456  19.380  0.00  0.00    +0.000 S 
ENDBRANCH  14  15
ENDBRANCH  13  14
ENDBRANCH   7  13
TORSDOF 6
ENDMDL
MODEL 4
REMARK VINA RESULT:      -6.6      3.017      4.581
REMARK  Name = 
REMARK  9 active torsions:
REMARK  status: ('A' for Active; 'I' for Inactive)
REMARK    1  A    between atoms: C_1  and  C_2
REMARK    2  A    between atoms: C_3  and  O_4
REMARK    3  A    between atoms: O_4  and  C_5
REMARK    4  A    between atoms: C_5  and  C_6
REMARK    5  A    between atoms: C_6  and  C_7
REMARK    6  A    between atoms: C_6  and  C_8
REMARK    7  A    between atoms: C_12  and  C_13
REMARK    8  A    between atoms: C_13  and  C_14
REMARK    9  A    between atoms: C_14  and  C_15
REMARK                            x       y       z     vdW  Elec       q    Type
REMARK                         _______ _______ _______ _____ _____    ______ ____
ROOT
ATOM      1  C   UNL     1       1.811   5.815  20.606  0.00  0.00    +0.000 C 
ATOM      2  C   UNL     1       2.741   5.982  19.437  0.00  0.00    +0.000 A 
ATOM      3  C   UNL     1       3.630   4.968  19.040  0.00  0.00    +0.000 A 
ATOM      4  C   UNL     1       4.402   5.155  17.891  0.00  0.00    +0.000 A 
ATOM      5  C   UNL     1       4.358   6.371  17.246  0.00  0.00    +0.000 A 
ATOM      6  N   UNL     1       3.579   7.389  17.640  0.00  0.00    +0.000 NA
ATOM      7  C   UNL     1       2.754   7.186  18.701  0.00  0.00    +0.000 A 
ENDROOT
BRANCH   3   8
ATOM      8  O   UNL     1       3.718   3.827  19.813  0.00  0.00    +0.000 OA
BRANCH   8   9
ATOM      9  C   UNL     1       3.245   2.636  19.155  0.00  0.00    +0.000 C 
BRANCH   9  10
ATOM     10  C   UNL     1       1.906   2.120  19.695  0.00  0.00    +0.000 C 
ATOM     11  C   UNL     1       1.716   2.475  21.167  0.00  0.00    +0.000 C 
ATOM     12  C   UNL     1       0.725   2.597  18.856  0.00  0.00    +0.000 C 
ENDBRANCH   9  10
ENDBRANCH   8   9
ENDBRANCH   3   8
BRANCH   7  13
ATOM     13  C   UNL     1       1.927   8.398  19.067  0.00  0.00    +0.000 C 
BRANCH  13  14
ATOM     14  C   UNL     1       1.602   9.289  17.864  0.00  0.00    +0.000 C 
BRANCH  14  15
ATOM     15  C   UNL     1       1.552  10.752  18.198  0.00  0.00    +0.000 A 
ATOM     16  N   UNL     1       2.507  11.623  17.945  0.00  0.00    +0.000 NA
ATOM     17  C   UNL     1       2.107  12.891  18.335  0.00  0.00    +0.000 A 
ATOM     18  C   UNL     1       2.868  14.075  18.228  0.00  0.00    +0.000 A 
ATOM     19  C   UNL     1       2.320  15.295  18.635  0.00  0.00    +0.000 A 
ATOM     20  C   UNL     1       1.031  15.357  19.150  0.00  0.00    +0.000 A 
ATOM     21  C   UNL     1       0.258  14.199  19.274  0.00  0.00    +0.000 A 
ATOM     22  C   UNL     1       0.820  12.975  18.868  0.00  0.00    +0.000 A 
ATOM     23  S   UNL     1       0.123  11.404  18.898  0.00  0.00    +0.000 S 
ENDBRANCH  14  15
ENDBRANCH  13  14
ENDBRANCH   7  13
TORSDOF 6
ENDMDL
MODEL 5
REMARK VINA RESULT:      -6.6      2.077      3.146
REMARK  Name = 
REMARK  9 active torsions:
REMARK  status: ('A' for Active; 'I' for Inactive)
REMARK    1  A    between atoms: C_1  and  C_2
REMARK    2  A    between atoms: C_3  and  O_4
REMARK    3  A    between atoms: O_4  and  C_5
REMARK    4  A    between atoms: C_5  and  C_6
REMARK    5  A    between atoms: C_6  and  C_7
REMARK    6  A    between atoms: C_6  and  C_8
REMARK    7  A    between atoms: C_12  and  C_13
REMARK    8  A    between atoms: C_13  and  C_14
REMARK    9  A    between atoms: C_14  and  C_15
REMARK                            x       y       z     vdW  Elec       q    Type
REMARK                         _______ _______ _______ _____ _____    ______ ____
ROOT
ATOM      1  C   UNL     1       5.123   6.677  15.015  0.00  0.00    +0.000 C 
ATOM      2  C   UNL     1       5.698   6.044  16.251  0.00  0.00    +0.000 A 
ATOM      3  C   UNL     1       6.766   5.131  16.194  0.00  0.00    +0.000 A 
ATOM      4  C   UNL     1       7.310   4.649  17.387  0.00  0.00    +0.000 A 
ATOM      5  C   UNL     1       6.713   4.990  18.581  0.00  0.00    +0.000 A 
ATOM      6  N   UNL     1       5.647   5.799  18.669  0.00  0.00    +0.000 NA
ATOM      7  C   UNL     1       5.166   6.347  17.523  0.00  0.00    +0.000 A 
ENDROOT
BRANCH   3   8
ATOM      8  O   UNL     1       7.226   4.730  14.956  0.00  0.00    +0.000 OA
BRANCH   8   9
ATOM      9  C   UNL     1       6.330   3.848  14.255  0.00  0.00    +0.000 C 
BRANCH   9  10
ATOM     10  C   UNL     1       6.684   3.652  12.776  0.00  0.00    +0.000 C 
ATOM     11  C   UNL     1       5.465   3.244  11.953  0.00  0.00    +0.000 C 
ATOM     12  C   UNL     1       7.364   4.880  12.180  0.00  0.00    +0.000 C 
ENDBRANCH   9  10
ENDBRANCH   8   9
ENDBRANCH   3   8
BRANCH   7  13
ATOM     13  C   UNL     1       3.960   7.234  17.734  0.00  0.00    +0.000 C 
BRANCH  13  14
ATOM     14  C   UNL     1       2.934   6.634  18.701  0.00  0.00    +0.000 C 
BRANCH  14  15
ATOM     15  C   UNL     1       2.078   7.663  19.381  0.00  0.00    +0.000 A 
ATOM     16  N   UNL     1       1.676   7.610  20.634  0.00  0.00    +0.000 NA
ATOM     17  C   UNL     1       0.950   8.748  20.947  0.00  0.00    +0.000 A 
ATOM     18  C   UNL     1       0.352   9.039  22.192  0.00  0.00    +0.000 A 
ATOM     19  C   UNL     1      -0.327  10.248  22.373  0.00  0.00    +0.000 A 
ATOM     20  C   UNL     1      -0.426  11.169  21.337  0.00  0.00    +0.000 A 
ATOM     21  C   UNL     1       0.150  10.902  20.091  0.00  0.00    +0.000 A 
ATOM     22  C   UNL     1       0.826   9.681  19.917  0.00  0.00    +0.000 A 
ATOM     23  S   UNL     1       1.625   9.080  18.518  0.00  0.00    +0.000 S 
ENDBRANCH  14  15
ENDBRANCH  13  14
ENDBRANCH   7  13
TORSDOF 6
ENDMDL
MODEL 6
REMARK VINA RESULT:      -6.6      2.313      3.975
REMARK  Name = 
REMARK  9 active torsions:
REMARK  status: ('A' for Active; 'I' for Inactive)
REMARK    1  A    between atoms: C_1  and  C_2
REMARK    2  A    between atoms: C_3  and  O_4
REMARK    3  A    between atoms: O_4  and  C_5
REMARK    4  A    between atoms: C_5  and  C_6
REMARK    5  A    between atoms: C_6  and  C_7
REMARK    6  A    between atoms: C_6  and  C_8
REMARK    7  A    between atoms: C_12  and  C_13
REMARK    8  A    between atoms: C_13  and  C_14
REMARK    9  A    between atoms: C_14  and  C_15
REMARK                            x       y       z     vdW  Elec       q    Type
REMARK                         _______ _______ _______ _____ _____    ______ ____
ROOT
ATOM      1  C   UNL     1       2.053   6.227  20.223  0.00  0.00    +0.000 C 
ATOM      2  C   UNL     1       3.000   6.078  19.065  0.00  0.00    +0.000 A 
ATOM      3  C   UNL     1       3.705   4.885  18.827  0.00  0.00    +0.000 A 
ATOM      4  C   UNL     1       4.500   4.785  17.682  0.00  0.00    +0.000 A 
ATOM      5  C   UNL     1       4.664   5.894  16.882  0.00  0.00    +0.000 A 
ATOM      6  N   UNL     1       4.068   7.071  17.120  0.00  0.00    +0.000 NA
ATOM      7  C   UNL     1       3.219   7.153  18.178  0.00  0.00    +0.000 A 
ENDROOT
BRANCH   3   8
ATOM      8  O   UNL     1       3.596   3.859  19.744  0.00  0.00    +0.000 OA
BRANCH   8   9
ATOM      9  C   UNL     1       3.127   2.619  19.183  0.00  0.00    +0.000 C 
BRANCH   9  10
ATOM     10  C   UNL     1       1.757   2.178  19.713  0.00  0.00    +0.000 C 
ATOM     11  C   UNL     1       1.491   2.723  21.114  0.00  0.00    +0.000 C 
ATOM     12  C   UNL     1       0.626   2.543  18.757  0.00  0.00    +0.000 C 
ENDBRANCH   9  10
ENDBRANCH   8   9
ENDBRANCH   3   8
BRANCH   7  13
ATOM     13  C   UNL     1       2.608   8.525  18.361  0.00  0.00    +0.000 C 
BRANCH  13  14
ATOM     14  C   UNL     1       1.310   8.716  17.570  0.00  0.00    +0.000 C 
BRANCH  14  15
ATOM     15  C   UNL     1       0.354   9.680  18.209  0.00  0.00    +0.000 A 
ATOM     16  N   UNL     1      -0.846   9.975  17.755  0.00  0.00    +0.000 NA
ATOM     17  C   UNL     1      -1.476  10.857  18.618  0.00  0.00    +0.000 A 
ATOM     18  C   UNL     1      -2.768  11.402  18.456  0.00  0.00    +0.000 A 
ATOM     19  C   UNL     1      -3.289  12.259  19.430  0.00  0.00    +0.000 A 
ATOM     20  C   UNL     1      -2.547  12.587  20.559  0.00  0.00    +0.000 A 
ATOM     21  C   UNL     1      -1.262  12.067  20.739  0.00  0.00    +0.000 A 
ATOM     22  C   UNL     1      -0.743  11.211  19.751  0.00  0.00    +0.000 A 
ATOM     23  S   UNL     1       0.786  10.426  19.697  0.00  0.00    +0.000 S 
ENDBRANCH  14  15
ENDBRANCH  13  14
ENDBRANCH   7  13
TORSDOF 6
ENDMDL
MODEL 7
REMARK VINA RESULT:      -6.5      5.462      7.518
REMARK  Name = 
REMARK  9 active torsions:
REMARK  status: ('A' for Active; 'I' for Inactive)
REMARK    1  A    between atoms: C_1  and  C_2
REMARK    2  A    between atoms: C_3  and  O_4
REMARK    3  A    between atoms: O_4  and  C_5
REMARK    4  A    between atoms: C_5  and  C_6
REMARK    5  A    between atoms: C_6  and  C_7
REMARK    6  A    between atoms: C_6  and  C_8
REMARK    7  A    between atoms: C_12  and  C_13
REMARK    8  A    between atoms: C_13  and  C_14
REMARK    9  A    between atoms: C_14  and  C_15
REMARK                            x       y       z     vdW  Elec       q    Type
REMARK                         _______ _______ _______ _____ _____    ______ ____
ROOT
ATOM      1  C   UNL     1       5.509   5.546  19.092  0.00  0.00    +0.000 C 
ATOM      2  C   UNL     1       6.014   5.290  17.699  0.00  0.00    +0.000 A 
ATOM      3  C   UNL     1       5.512   4.243  16.905  0.00  0.00    +0.000 A 
ATOM      4  C   UNL     1       5.962   4.116  15.589  0.00  0.00    +0.000 A 
ATOM      5  C   UNL     1       6.967   4.945  15.142  0.00  0.00    +0.000 A 
ATOM      6  N   UNL     1       7.523   5.905  15.895  0.00  0.00    +0.000 NA
ATOM      7  C   UNL     1       7.030   6.098  17.147  0.00  0.00    +0.000 A 
ENDROOT
BRANCH   3   8
ATOM      8  O   UNL     1       4.603   3.368  17.464  0.00  0.00    +0.000 OA
BRANCH   8   9
ATOM      9  C   UNL     1       3.247   3.572  17.023  0.00  0.00    +0.000 C 
BRANCH   9  10
ATOM     10  C   UNL     1       2.192   3.180  18.064  0.00  0.00    +0.000 C 
ATOM     11  C   UNL     1       2.701   2.090  19.002  0.00  0.00    +0.000 C 
ATOM     12  C   UNL     1       1.681   4.386  18.847  0.00  0.00    +0.000 C 
ENDBRANCH   9  10
ENDBRANCH   8   9
ENDBRANCH   3   8
BRANCH   7  13
ATOM     13  C   UNL     1       7.732   7.197  17.913  0.00  0.00    +0.000 C 
BRANCH  13  14
ATOM     14  C   UNL     1       7.289   8.602  17.490  0.00  0.00    +0.000 C 
BRANCH  14  15
ATOM     15  C   UNL     1       8.193   9.691  17.991  0.00  0.00    +0.000 A 
ATOM     16  N   UNL     1       8.306  10.891  17.458  0.00  0.00    +0.000 NA
ATOM     17  C   UNL     1       9.186  11.659  18.203  0.00  0.00    +0.000 A 
ATOM     18  C   UNL     1       9.562  12.992  17.934  0.00  0.00    +0.000 A 
ATOM     19  C   UNL     1      10.440  13.656  18.796  0.00  0.00    +0.000 A 
ATOM     20  C   UNL     1      10.953  13.016  19.918  0.00  0.00    +0.000 A 
ATOM     21  C   UNL     1      10.603  11.693  20.204  0.00  0.00    +0.000 A 
ATOM     22  C   UNL     1       9.723  11.032  19.327  0.00  0.00    +0.000 A 
ATOM     23  S   UNL     1       9.118   9.424  19.416  0.00  0.00    +0.000 S 
ENDBRANCH  14  15
ENDBRANCH  13  14
ENDBRANCH   7  13
TORSDOF 6
ENDMDL
MODEL 8
REMARK VINA RESULT:      -6.5      3.039      8.811
REMARK  Name = 
REMARK  9 active torsions:
REMARK  status: ('A' for Active; 'I' for Inactive)
REMARK    1  A    between atoms: C_1  and  C_2
REMARK    2  A    between atoms: C_3  and  O_4
REMARK    3  A    between atoms: O_4  and  C_5
REMARK    4  A    between atoms: C_5  and  C_6
REMARK    5  A    between atoms: C_6  and  C_7
REMARK    6  A    between atoms: C_6  and  C_8
REMARK    7  A    between atoms: C_12  and  C_13
REMARK    8  A    between atoms: C_13  and  C_14
REMARK    9  A    between atoms: C_14  and  C_15
REMARK                            x       y       z     vdW  Elec       q    Type
REMARK                         _______ _______ _______ _____ _____    ______ ____
ROOT
ATOM      1  C   UNL     1       2.424   4.798  20.759  0.00  0.00    +0.000 C 
ATOM      2  C   UNL     1       2.510   5.916  19.758  0.00  0.00    +0.000 A 
ATOM      3  C   UNL     1       1.974   7.190  20.016  0.00  0.00    +0.000 A 
ATOM      4  C   UNL     1       2.166   8.209  19.079  0.00  0.00    +0.000 A 
ATOM      5  C   UNL     1       2.772   7.908  17.879  0.00  0.00    +0.000 A 
ATOM      6  N   UNL     1       3.228   6.686  17.567  0.00  0.00    +0.000 NA
ATOM      7  C   UNL     1       3.130   5.710  18.507  0.00  0.00    +0.000 A 
ENDROOT
BRANCH   3   8
ATOM      8  O   UNL     1       1.261   7.384  21.182  0.00  0.00    +0.000 OA
BRANCH   8   9
ATOM      9  C   UNL     1       0.277   8.432  21.100  0.00  0.00    +0.000 C 
BRANCH   9  10
ATOM     10  C   UNL     1       0.587   9.644  21.986  0.00  0.00    +0.000 C 
ATOM     11  C   UNL     1       0.581  10.944  21.188  0.00  0.00    +0.000 C 
ATOM     12  C   UNL     1      -0.347   9.732  23.189  0.00  0.00    +0.000 C 
ENDBRANCH   9  10
ENDBRANCH   8   9
ENDBRANCH   3   8
BRANCH   7  13
ATOM     13  C   UNL     1       3.664   4.372  18.051  0.00  0.00    +0.000 C 
BRANCH  13  14
ATOM     14  C   UNL     1       5.195   4.317  18.013  0.00  0.00    +0.000 C 
BRANCH  14  15
ATOM     15  C   UNL     1       5.762   4.344  16.623  0.00  0.00    +0.000 A 
ATOM     16  N   UNL     1       5.332   3.617  15.612  0.00  0.00    +0.000 NA
ATOM     17  C   UNL     1       6.043   3.934  14.465  0.00  0.00    +0.000 A 
ATOM     18  C   UNL     1       5.868   3.354  13.190  0.00  0.00    +0.000 A 
ATOM     19  C   UNL     1       6.639   3.798  12.112  0.00  0.00    +0.000 A 
ATOM     20  C   UNL     1       7.583   4.805  12.280  0.00  0.00    +0.000 A 
ATOM     21  C   UNL     1       7.781   5.390  13.534  0.00  0.00    +0.000 A 
ATOM     22  C   UNL     1       7.005   4.933  14.614  0.00  0.00    +0.000 A 
ATOM     23  S   UNL     1       7.022   5.454  16.253  0.00  0.00    +0.000 S 
ENDBRANCH  14  15
ENDBRANCH  13  14
ENDBRANCH   7  13
TORSDOF 6
ENDMDL
MODEL 9
REMARK VINA RESULT:      -6.5      2.803      7.126
REMARK  Name = 
REMARK  9 active torsions:
REMARK  status: ('A' for Active; 'I' for Inactive)
REMARK    1  A    between atoms: C_1  and  C_2
REMARK    2  A    between atoms: C_3  and  O_4
REMARK    3  A    between atoms: O_4  and  C_5
REMARK    4  A    between atoms: C_5  and  C_6
REMARK    5  A    between atoms: C_6  and  C_7
REMARK    6  A    between atoms: C_6  and  C_8
REMARK    7  A    between atoms: C_12  and  C_13
REMARK    8  A    between atoms: C_13  and  C_14
REMARK    9  A    between atoms: C_14  and  C_15
REMARK                            x       y       z     vdW  Elec       q    Type
REMARK                         _______ _______ _______ _____ _____    ______ ____
ROOT
ATOM      1  C   UNL     1       1.731   5.124  17.640  0.00  0.00    +0.000 C 
ATOM      2  C   UNL     1       1.927   4.642  19.051  0.00  0.00    +0.000 A 
ATOM      3  C   UNL     1       1.914   5.522  20.148  0.00  0.00    +0.000 A 
ATOM      4  C   UNL     1       2.013   4.997  21.439  0.00  0.00    +0.000 A 
ATOM      5  C   UNL     1       2.237   3.647  21.596  0.00  0.00    +0.000 A 
ATOM      6  N   UNL     1       2.331   2.789  20.571  0.00  0.00    +0.000 NA
ATOM      7  C   UNL     1       2.144   3.273  19.315  0.00  0.00    +0.000 A 
ENDROOT
BRANCH   3   8
ATOM      8  O   UNL     1       1.820   6.878  19.906  0.00  0.00    +0.000 OA
BRANCH   8   9
ATOM      9  C   UNL     1       1.534   7.663  21.079  0.00  0.00    +0.000 C 
BRANCH   9  10
ATOM     10  C   UNL     1       1.052   9.085  20.770  0.00  0.00    +0.000 C 
ATOM     11  C   UNL     1       1.106   9.388  19.276  0.00  0.00    +0.000 C 
ATOM     12  C   UNL     1      -0.338   9.357  21.338  0.00  0.00    +0.000 C 
ENDBRANCH   9  10
ENDBRANCH   8   9
ENDBRANCH   3   8
BRANCH   7  13
ATOM     13  C   UNL     1       2.280   2.225  18.233  0.00  0.00    +0.000 C 
BRANCH  13  14
ATOM     14  C   UNL     1       3.738   1.894  17.897  0.00  0.00    +0.000 C 
BRANCH  14  15
ATOM     15  C   UNL     1       4.630   3.100  17.847  0.00  0.00    +0.000 A 
ATOM     16  N   UNL     1       5.333   3.569  18.858  0.00  0.00    +0.000 NA
ATOM     17  C   UNL     1       6.086   4.657  18.448  0.00  0.00    +0.000 A 
ATOM     18  C   UNL     1       6.953   5.422  19.256  0.00  0.00    +0.000 A 
ATOM     19  C   UNL     1       7.677   6.479  18.695  0.00  0.00    +0.000 A 
ATOM     20  C   UNL     1       7.551   6.789  17.346  0.00  0.00    +0.000 A 
ATOM     21  C   UNL     1       6.693   6.051  16.525  0.00  0.00    +0.000 A 
ATOM     22  C   UNL     1       5.964   4.994  17.099  0.00  0.00    +0.000 A 
ATOM     23  S   UNL     1       4.846   3.922  16.352  0.00  0.00    +0.000 S 
ENDBRANCH  14  15
ENDBRANCH  13  14
ENDBRANCH   7  13
TORSDOF 6
ENDMDL
