MODEL 1
REMARK VINA RESULT:      -8.3      0.000      0.000
REMARK  Name = 
REMARK  9 active torsions:
REMARK  status: ('A' for Active; 'I' for Inactive)
REMARK    1  A    between atoms: C_1  and  C_2
REMARK    2  A    between atoms: C_4  and  O_5
REMARK    3  A    between atoms: O_5  and  C_6
REMARK    4  A    between atoms: C_11  and  O_12
REMARK    5  A    between atoms: O_12  and  C_13
REMARK    6  A    between atoms: C_19  and  C_20
REMARK    7  A    between atoms: C_20  and  N_21
REMARK    8  A    between atoms: N_21  and  C_22
REMARK    9  A    between atoms: N_21  and  C_23
REMARK                            x       y       z     vdW  Elec       q    Type
REMARK                         _______ _______ _______ _____ _____    ______ ____
ROOT
ATOM      1  C   UNL     1       2.830   4.295  18.030  0.00  0.00    +0.000 A 
ATOM      2  C   UNL     1       2.118   3.114  17.731  0.00  0.00    +0.000 A 
ATOM      3  C   UNL     1       1.135   2.604  18.579  0.00  0.00    +0.000 A 
ATOM      4  C   UNL     1       0.846   3.267  19.760  0.00  0.00    +0.000 A 
ATOM      5  C   UNL     1       1.491   4.469  20.041  0.00  0.00    +0.000 A 
ATOM      6  C   UNL     1       2.440   5.030  19.161  0.00  0.00    +0.000 A 
ENDROOT
BRANCH   1   7
ATOM      7  O   UNL     1       3.766   4.540  17.049  0.00  0.00    +0.000 OA
BRANCH   7  11
ATOM      8  C   UNL     1       7.737   5.560  19.702  0.00  0.00    +0.000 C 
ATOM      9  C   UNL     1       7.115   5.011  18.451  0.00  0.00    +0.000 A 
ATOM     10  C   UNL     1       5.771   4.661  18.441  0.00  0.00    +0.000 A 
ATOM     11  C   UNL     1       5.128   4.539  17.217  0.00  0.00    +0.000 A 
ATOM     12  C   UNL     1       5.896   4.476  16.037  0.00  0.00    +0.000 A 
ATOM     13  C   UNL     1       7.259   4.721  16.166  0.00  0.00    +0.000 A 
ATOM     14  N   UNL     1       7.877   5.011  17.334  0.00  0.00    +0.000 NA
BRANCH  12  15
ATOM     15  C   UNL     1       5.271   4.280  14.669  0.00  0.00    +0.000 C 
BRANCH  15  16
ATOM     16  N   UNL     1       6.183   3.777  13.611  0.00  0.00    +0.000 NA
ATOM     17  C   UNL     1       5.457   3.213  12.469  0.00  0.00    +0.000 C 
ATOM     18  C   UNL     1       7.044   4.867  13.132  0.00  0.00    +0.000 C 
ENDBRANCH  15  16
ENDBRANCH  12  15
ENDBRANCH   7  11
ENDBRANCH   1   7
BRANCH   6  19
ATOM     19  O   UNL     1       2.923   6.214  19.665  0.00  0.00    +0.000 OA
BRANCH  19  20
ATOM     20  C   UNL     1       2.317   7.437  19.499  0.00  0.00    +0.000 A 
ATOM     21  C   UNL     1       1.608   8.145  20.462  0.00  0.00    +0.000 A 
ATOM     22  C   UNL     1       0.855   9.262  20.086  0.00  0.00    +0.000 A 
ATOM     23  C   UNL     1       0.878   9.717  18.766  0.00  0.00    +0.000 A 
ATOM     24  C   UNL     1       1.668   9.070  17.824  0.00  0.00    +0.000 A 
ATOM     25  C   UNL     1       2.385   7.935  18.190  0.00  0.00    +0.000 A 
ENDBRANCH  19  20
ENDBRANCH   6  19
TORSDOF 6
ENDMDL
MODEL 2
REMARK VINA RESULT:      -8.1      1.086      3.265
REMARK  Name = 
REMARK  9 active torsions:
REMARK  status: ('A' for Active; 'I' for Inactive)
REMARK    1  A    between atoms: C_1  and  C_2
REMARK    2  A    between atoms: C_4  and  O_5
REMARK    3  A    between atoms: O_5  and  C_6
REMARK    4  A    between atoms: C_11  and  O_12
REMARK    5  A    between atoms: O_12  and  C_13
REMARK    6  A    between atoms: C_19  and  C_20
REMARK    7  A    between atoms: C_20  and  N_21
REMARK    8  A    between atoms: N_21  and  C_22
REMARK    9  A    between atoms: N_21  and  C_23
REMARK                            x       y       z     vdW  Elec       q    Type
REMARK                         _______ _______ _______ _____ _____    ______ ____
ROOT
ATOM      1  C   UNL     1       3.589   3.593  18.389  0.00  0.00    +0.000 A 
ATOM      2  C   UNL     1       2.899   2.453  17.923  0.00  0.00    +0.000 A 
ATOM      3  C   UNL     1       1.590   2.168  18.307  0.00  0.00    +0.000 A 
ATOM      4  C   UNL     1       0.937   3.021  19.182  0.00  0.00    +0.000 A 
ATOM      5  C   UNL     1       1.577   4.185  19.602  0.00  0.00    +0.000 A 
ATOM      6  C   UNL     1       2.877   4.518  19.169  0.00  0.00    +0.000 A 
ENDROOT
BRANCH   1   7
ATOM      7  O   UNL     1       4.873   3.603  17.890  0.00  0.00    +0.000 OA
BRANCH   7  11
ATOM      8  C   UNL     1       5.806   3.621  13.096  0.00  0.00    +0.000 C 
ATOM      9  C   UNL     1       5.774   4.333  14.417  0.00  0.00    +0.000 A 
ATOM     10  C   UNL     1       5.009   3.826  15.460  0.00  0.00    +0.000 A 
ATOM     11  C   UNL     1       5.290   4.248  16.752  0.00  0.00    +0.000 A 
ATOM     12  C   UNL     1       6.115   5.373  16.947  0.00  0.00    +0.000 A 
ATOM     13  C   UNL     1       6.745   5.889  15.819  0.00  0.00    +0.000 A 
ATOM     14  N   UNL     1       6.614   5.381  14.572  0.00  0.00    +0.000 NA
BRANCH  12  15
ATOM     15  C   UNL     1       6.416   5.932  18.325  0.00  0.00    +0.000 C 
BRANCH  15  16
ATOM     16  N   UNL     1       7.853   6.142  18.633  0.00  0.00    +0.000 NA
ATOM     17  C   UNL     1       8.244   7.553  18.543  0.00  0.00    +0.000 C 
ATOM     18  C   UNL     1       8.150   5.656  19.988  0.00  0.00    +0.000 C 
ENDBRANCH  15  16
ENDBRANCH  12  15
ENDBRANCH   7  11
ENDBRANCH   1   7
BRANCH   6  19
ATOM     19  O   UNL     1       3.276   5.712  19.721  0.00  0.00    +0.000 OA
BRANCH  19  20
ATOM     20  C   UNL     1       2.711   6.932  19.432  0.00  0.00    +0.000 A 
ATOM     21  C   UNL     1       1.934   7.706  20.284  0.00  0.00    +0.000 A 
ATOM     22  C   UNL     1       1.239   8.811  19.778  0.00  0.00    +0.000 A 
ATOM     23  C   UNL     1       1.389   9.186  18.442  0.00  0.00    +0.000 A 
ATOM     24  C   UNL     1       2.247   8.474  17.614  0.00  0.00    +0.000 A 
ATOM     25  C   UNL     1       2.905   7.351  18.107  0.00  0.00    +0.000 A 
ENDBRANCH  19  20
ENDBRANCH   6  19
TORSDOF 6
ENDMDL
MODEL 3
REMARK VINA RESULT:      -8.0      1.132      3.338
REMARK  Name = 
REMARK  9 active torsions:
REMARK  status: ('A' for Active; 'I' for Inactive)
REMARK    1  A    between atoms: C_1  and  C_2
REMARK    2  A    between atoms: C_4  and  O_5
REMARK    3  A    between atoms: O_5  and  C_6
REMARK    4  A    between atoms: C_11  and  O_12
REMARK    5  A    between atoms: O_12  and  C_13
REMARK    6  A    between atoms: C_19  and  C_20
REMARK    7  A    between atoms: C_20  and  N_21
REMARK    8  A    between atoms: N_21  and  C_22
REMARK    9  A    between atoms: N_21  and  C_23
REMARK                            x       y       z     vdW  Elec       q    Type
REMARK                         _______ _______ _______ _____ _____    ______ ____
ROOT
ATOM      1  C   UNL     1       3.726   3.655  17.745  0.00  0.00    +0.000 A 
ATOM      2  C   UNL     1       3.276   2.338  17.981  0.00  0.00    +0.000 A 
ATOM      3  C   UNL     1       1.977   2.062  18.406  0.00  0.00    +0.000 A 
ATOM      4  C   UNL     1       1.093   3.108  18.615  0.00  0.00    +0.000 A 
ATOM      5  C   UNL     1       1.498   4.409  18.326  0.00  0.00    +0.000 A 
ATOM      6  C   UNL     1       2.788   4.696  17.833  0.00  0.00    +0.000 A 
ENDROOT
BRANCH   1   7
ATOM      7  O   UNL     1       5.054   3.640  17.380  0.00  0.00    +0.000 OA
BRANCH   7  11
ATOM      8  C   UNL     1       5.086   3.643  12.497  0.00  0.00    +0.000 C 
ATOM      9  C   UNL     1       5.648   4.130  13.801  0.00  0.00    +0.000 A 
ATOM     10  C   UNL     1       4.905   3.999  14.968  0.00  0.00    +0.000 A 
ATOM     11  C   UNL     1       5.566   4.079  16.185  0.00  0.00    +0.000 A 
ATOM     12  C   UNL     1       6.884   4.577  16.224  0.00  0.00    +0.000 A 
ATOM     13  C   UNL     1       7.505   4.795  14.998  0.00  0.00    +0.000 A 
ATOM     14  N   UNL     1       6.929   4.559  13.797  0.00  0.00    +0.000 NA
BRANCH  12  15
ATOM     15  C   UNL     1       7.649   4.754  17.521  0.00  0.00    +0.000 C 
BRANCH  15  16
ATOM     16  N   UNL     1       7.209   5.883  18.379  0.00  0.00    +0.000 NA
ATOM     17  C   UNL     1       7.821   5.845  19.711  0.00  0.00    +0.000 C 
ATOM     18  C   UNL     1       7.551   7.161  17.739  0.00  0.00    +0.000 C 
ENDBRANCH  15  16
ENDBRANCH  12  15
ENDBRANCH   7  11
ENDBRANCH   1   7
BRANCH   6  19
ATOM     19  O   UNL     1       2.933   6.047  17.626  0.00  0.00    +0.000 OA
BRANCH  19  20
ATOM     20  C   UNL     1       2.489   7.021  18.491  0.00  0.00    +0.000 A 
ATOM     21  C   UNL     1       2.331   6.895  19.865  0.00  0.00    +0.000 A 
ATOM     22  C   UNL     1       1.655   7.891  20.579  0.00  0.00    +0.000 A 
ATOM     23  C   UNL     1       1.213   9.046  19.931  0.00  0.00    +0.000 A 
ATOM     24  C   UNL     1       1.461   9.219  18.576  0.00  0.00    +0.000 A 
ATOM     25  C   UNL     1       2.098   8.210  17.859  0.00  0.00    +0.000 A 
ENDBRANCH  19  20
ENDBRANCH   6  19
TORSDOF 6
ENDMDL
MODEL 4
REMARK VINA RESULT:      -7.8      2.590      7.108
REMARK  Name = 
REMARK  9 active torsions:
REMARK  status: ('A' for Active; 'I' for Inactive)
REMARK    1  A    between atoms: C_1  and  C_2
REMARK    2  A    between atoms: C_4  and  O_5
REMARK    3  A    between atoms: O_5  and  C_6
REMARK    4  A    between atoms: C_11  and  O_12
REMARK    5  A    between atoms: O_12  and  C_13
REMARK    6  A    between atoms: C_19  and  C_20
REMARK    7  A    between atoms: C_20  and  N_21
REMARK    8  A    between atoms: N_21  and  C_22
REMARK    9  A    between atoms: N_21  and  C_23
REMARK                            x       y       z     vdW  Elec       q    Type
REMARK                         _______ _______ _______ _____ _____    ______ ____
ROOT
ATOM      1  C   UNL     1       4.876   4.954  17.942  0.00  0.00    +0.000 A 
ATOM      2  C   UNL     1       5.582   5.278  19.120  0.00  0.00    +0.000 A 
ATOM      3  C   UNL     1       6.974   5.341  19.158  0.00  0.00    +0.000 A 
ATOM      4  C   UNL     1       7.699   5.071  18.009  0.00  0.00    +0.000 A 
ATOM      5  C   UNL     1       7.019   4.813  16.821  0.00  0.00    +0.000 A 
ATOM      6  C   UNL     1       5.610   4.810  16.754  0.00  0.00    +0.000 A 
ENDROOT
BRANCH   1   7
ATOM      7  O   UNL     1       3.523   4.920  18.199  0.00  0.00    +0.000 OA
BRANCH   7  11
ATOM      8  C   UNL     1       2.192   9.615  18.017  0.00  0.00    +0.000 C 
ATOM      9  C   UNL     1       2.063   8.250  18.628  0.00  0.00    +0.000 A 
ATOM     10  C   UNL     1       2.526   7.136  17.939  0.00  0.00    +0.000 A 
ATOM     11  C   UNL     1       2.762   5.968  18.652  0.00  0.00    +0.000 A 
ATOM     12  C   UNL     1       2.258   5.845  19.962  0.00  0.00    +0.000 A 
ATOM     13  C   UNL     1       1.699   6.988  20.526  0.00  0.00    +0.000 A 
ATOM     14  N   UNL     1       1.615   8.186  19.901  0.00  0.00    +0.000 NA
BRANCH  12  15
ATOM     15  C   UNL     1       2.420   4.579  20.781  0.00  0.00    +0.000 C 
BRANCH  15  16
ATOM     16  N   UNL     1       1.222   3.706  20.857  0.00  0.00    +0.000 NA
ATOM     17  C   UNL     1       0.864   3.131  19.556  0.00  0.00    +0.000 C 
ATOM     18  C   UNL     1       1.462   2.610  21.807  0.00  0.00    +0.000 C 
ENDBRANCH  15  16
ENDBRANCH  12  15
ENDBRANCH   7  11
ENDBRANCH   1   7
BRANCH   6  19
ATOM     19  O   UNL     1       5.190   4.535  15.474  0.00  0.00    +0.000 OA
BRANCH  19  20
ATOM     20  C   UNL     1       6.025   4.431  14.385  0.00  0.00    +0.000 A 
ATOM     21  C   UNL     1       7.155   5.198  14.135  0.00  0.00    +0.000 A 
ATOM     22  C   UNL     1       7.772   5.135  12.880  0.00  0.00    +0.000 A 
ATOM     23  C   UNL     1       7.306   4.247  11.910  0.00  0.00    +0.000 A 
ATOM     24  C   UNL     1       6.239   3.405  12.195  0.00  0.00    +0.000 A 
ATOM     25  C   UNL     1       5.601   3.497  13.429  0.00  0.00    +0.000 A 
ENDBRANCH  19  20
ENDBRANCH   6  19
TORSDOF 6
ENDMDL
MODEL 5
REMARK VINA RESULT:      -7.7      1.917      4.437
REMARK  Name = 
REMARK  9 active torsions:
REMARK  status: ('A' for Active; 'I' for Inactive)
REMARK    1  A    between atoms: C_1  and  C_2
REMARK    2  A    between atoms: C_4  and  O_5
REMARK    3  A    between atoms: O_5  and  C_6
REMARK    4  A    between atoms: C_11  and  O_12
REMARK    5  A    between atoms: O_12  and  C_13
REMARK    6  A    between atoms: C_19  and  C_20
REMARK    7  A    between atoms: C_20  and  N_21
REMARK    8  A    between atoms: N_21  and  C_22
REMARK    9  A    between atoms: N_21  and  C_23
REMARK                            x       y       z     vdW  Elec       q    Type
REMARK                         _______ _______ _______ _____ _____    ______ ____
ROOT
ATOM      1  C   UNL     1       2.602   7.308  18.338  0.00  0.00    +0.000 A 
ATOM      2  C   UNL     1       2.325   8.446  17.551  0.00  0.00    +0.000 A 
ATOM      3  C   UNL     1       1.600   9.531  18.043  0.00  0.00    +0.000 A 
ATOM      4  C   UNL     1       1.125   9.497  19.343  0.00  0.00    +0.000 A 
ATOM      5  C   UNL     1       1.443   8.412  20.156  0.00  0.00    +0.000 A 
ATOM      6  C   UNL     1       2.230   7.337  19.691  0.00  0.00    +0.000 A 
ENDROOT
BRANCH   1   7
ATOM      7  O   UNL     1       3.290   6.377  17.591  0.00  0.00    +0.000 OA
BRANCH   7  11
ATOM      8  C   UNL     1       7.822   8.193  17.499  0.00  0.00    +0.000 C 
ATOM      9  C   UNL     1       6.895   7.013  17.526  0.00  0.00    +0.000 A 
ATOM     10  C   UNL     1       5.574   7.178  17.925  0.00  0.00    +0.000 A 
ATOM     11  C   UNL     1       4.651   6.202  17.576  0.00  0.00    +0.000 A 
ATOM     12  C   UNL     1       5.109   4.956  17.104  0.00  0.00    +0.000 A 
ATOM     13  C   UNL     1       6.472   4.848  16.849  0.00  0.00    +0.000 A 
ATOM     14  N   UNL     1       7.365   5.850  17.024  0.00  0.00    +0.000 NA
BRANCH  12  15
ATOM     15  C   UNL     1       4.166   3.818  16.763  0.00  0.00    +0.000 C 
BRANCH  15  16
ATOM     16  N   UNL     1       4.230   2.639  17.662  0.00  0.00    +0.000 NA
ATOM     17  C   UNL     1       4.558   3.005  19.044  0.00  0.00    +0.000 C 
ATOM     18  C   UNL     1       2.941   1.933  17.655  0.00  0.00    +0.000 C 
ENDBRANCH  15  16
ENDBRANCH  12  15
ENDBRANCH   7  11
ENDBRANCH   1   7
BRANCH   6  19
ATOM     19  O   UNL     1       2.402   6.402  20.684  0.00  0.00    +0.000 OA
BRANCH  19  20
ATOM     20  C   UNL     1       2.016   5.085  20.589  0.00  0.00    +0.000 A 
ATOM     21  C   UNL     1       1.138   4.546  19.658  0.00  0.00    +0.000 A 
ATOM     22  C   UNL     1       0.664   3.240  19.826  0.00  0.00    +0.000 A 
ATOM     23  C   UNL     1       1.133   2.451  20.877  0.00  0.00    +0.000 A 
ATOM     24  C   UNL     1       2.090   2.954  21.749  0.00  0.00    +0.000 A 
ATOM     25  C   UNL     1       2.529   4.266  21.605  0.00  0.00    +0.000 A 
ENDBRANCH  19  20
ENDBRANCH   6  19
TORSDOF 6
ENDMDL
MODEL 6
REMARK VINA RESULT:      -7.7      1.016      3.738
REMARK  Name = 
REMARK  9 active torsions:
REMARK  status: ('A' for Active; 'I' for Inactive)
REMARK    1  A    between atoms: C_1  and  C_2
REMARK    2  A    between atoms: C_4  and  O_5
REMARK    3  A    between atoms: O_5  and  C_6
REMARK    4  A    between atoms: C_11  and  O_12
REMARK    5  A    between atoms: O_12  and  C_13
REMARK    6  A    between atoms: C_19  and  C_20
REMARK    7  A    between atoms: C_20  and  N_21
REMARK    8  A    between atoms: N_21  and  C_22
REMARK    9  A    between atoms: N_21  and  C_23
REMARK                            x       y       z     vdW  Elec       q    Type
REMARK                         _______ _______ _______ _____ _____    ______ ____
ROOT
ATOM      1  C   UNL     1       3.317   6.679  18.041  0.00  0.00    +0.000 A 
ATOM      2  C   UNL     1       3.081   7.936  17.443  0.00  0.00    +0.000 A 
ATOM      3  C   UNL     1       2.292   8.912  18.051  0.00  0.00    +0.000 A 
ATOM      4  C   UNL     1       1.708   8.646  19.279  0.00  0.00    +0.000 A 
ATOM      5  C   UNL     1       1.981   7.437  19.915  0.00  0.00    +0.000 A 
ATOM      6  C   UNL     1       2.830   6.468  19.340  0.00  0.00    +0.000 A 
ENDROOT
BRANCH   1   7
ATOM      7  O   UNL     1       4.087   5.900  17.207  0.00  0.00    +0.000 OA
BRANCH   7  11
ATOM      8  C   UNL     1       8.131   5.762  19.941  0.00  0.00    +0.000 C 
ATOM      9  C   UNL     1       7.313   5.226  18.802  0.00  0.00    +0.000 A 
ATOM     10  C   UNL     1       5.953   5.505  18.734  0.00  0.00    +0.000 A 
ATOM     11  C   UNL     1       5.308   5.352  17.515  0.00  0.00    +0.000 A 
ATOM     12  C   UNL     1       5.950   4.651  16.475  0.00  0.00    +0.000 A 
ATOM     13  C   UNL     1       7.281   4.305  16.686  0.00  0.00    +0.000 A 
ATOM     14  N   UNL     1       7.979   4.598  17.808  0.00  0.00    +0.000 NA
BRANCH  12  15
ATOM     15  C   UNL     1       5.285   4.388  15.138  0.00  0.00    +0.000 C 
BRANCH  15  16
ATOM     16  N   UNL     1       6.185   3.924  14.053  0.00  0.00    +0.000 NA
ATOM     17  C   UNL     1       5.448   3.517  12.851  0.00  0.00    +0.000 C 
ATOM     18  C   UNL     1       7.125   4.993  13.690  0.00  0.00    +0.000 C 
ENDBRANCH  15  16
ENDBRANCH  12  15
ENDBRANCH   7  11
ENDBRANCH   1   7
BRANCH   6  19
ATOM     19  O   UNL     1       2.937   5.374  20.166  0.00  0.00    +0.000 OA
BRANCH  19  20
ATOM     20  C   UNL     1       2.586   4.092  19.812  0.00  0.00    +0.000 A 
ATOM     21  C   UNL     1       3.454   3.038  19.557  0.00  0.00    +0.000 A 
ATOM     22  C   UNL     1       2.963   1.858  18.986  0.00  0.00    +0.000 A 
ATOM     23  C   UNL     1       1.596   1.706  18.747  0.00  0.00    +0.000 A 
ATOM     24  C   UNL     1       0.714   2.720  19.096  0.00  0.00    +0.000 A 
ATOM     25  C   UNL     1       1.208   3.909  19.627  0.00  0.00    +0.000 A 
ENDBRANCH  19  20
ENDBRANCH   6  19
TORSDOF 6
ENDMDL
MODEL 7
REMARK VINA RESULT:      -7.7      1.105      3.217
REMARK  Name = 
REMARK  9 active torsions:
REMARK  status: ('A' for Active; 'I' for Inactive)
REMARK    1  A    between atoms: C_1  and  C_2
REMARK    2  A    between atoms: C_4  and  O_5
REMARK    3  A    between atoms: O_5  and  C_6
REMARK    4  A    between atoms: C_11  and  O_12
REMARK    5  A    between atoms: O_12  and  C_13
REMARK    6  A    between atoms: C_19  and  C_20
REMARK    7  A    between atoms: C_20  and  N_21
REMARK    8  A    between atoms: N_21  and  C_22
REMARK    9  A    between atoms: N_21  and  C_23
REMARK                            x       y       z     vdW  Elec       q    Type
REMARK                         _______ _______ _______ _____ _____    ______ ____
ROOT
ATOM      1  C   UNL     1       3.415   3.627  18.697  0.00  0.00    +0.000 A 
ATOM      2  C   UNL     1       2.783   2.399  18.406  0.00  0.00    +0.000 A 
ATOM      3  C   UNL     1       1.511   2.088  18.885  0.00  0.00    +0.000 A 
ATOM      4  C   UNL     1       0.839   3.003  19.678  0.00  0.00    +0.000 A 
ATOM      5  C   UNL     1       1.419   4.246  19.922  0.00  0.00    +0.000 A 
ATOM      6  C   UNL     1       2.677   4.599  19.391  0.00  0.00    +0.000 A 
ENDROOT
BRANCH   1   7
ATOM      7  O   UNL     1       4.675   3.650  18.139  0.00  0.00    +0.000 OA
BRANCH   7  11
ATOM      8  C   UNL     1       5.636   3.694  13.352  0.00  0.00    +0.000 C 
ATOM      9  C   UNL     1       5.529   4.417  14.663  0.00  0.00    +0.000 A 
ATOM     10  C   UNL     1       4.807   3.854  15.708  0.00  0.00    +0.000 A 
ATOM     11  C   UNL     1       5.038   4.317  16.996  0.00  0.00    +0.000 A 
ATOM     12  C   UNL     1       5.754   5.516  17.181  0.00  0.00    +0.000 A 
ATOM     13  C   UNL     1       6.341   6.074  16.049  0.00  0.00    +0.000 A 
ATOM     14  N   UNL     1       6.266   5.540  14.808  0.00  0.00    +0.000 NA
BRANCH  12  15
ATOM     15  C   UNL     1       5.992   6.118  18.552  0.00  0.00    +0.000 C 
BRANCH  15  16
ATOM     16  N   UNL     1       7.385   6.032  19.059  0.00  0.00    +0.000 NA
ATOM     17  C   UNL     1       8.057   4.797  18.641  0.00  0.00    +0.000 C 
ATOM     18  C   UNL     1       8.165   7.180  18.575  0.00  0.00    +0.000 C 
ENDBRANCH  15  16
ENDBRANCH  12  15
ENDBRANCH   7  11
ENDBRANCH   1   7
BRANCH   6  19
ATOM     19  O   UNL     1       3.020   5.874  19.774  0.00  0.00    +0.000 OA
BRANCH  19  20
ATOM     20  C   UNL     1       2.398   7.016  19.325  0.00  0.00    +0.000 A 
ATOM     21  C   UNL     1       2.447   7.531  18.036  0.00  0.00    +0.000 A 
ATOM     22  C   UNL     1       1.957   8.818  17.784  0.00  0.00    +0.000 A 
ATOM     23  C   UNL     1       1.347   9.551  18.803  0.00  0.00    +0.000 A 
ATOM     24  C   UNL     1       1.205   8.996  20.068  0.00  0.00    +0.000 A 
ATOM     25  C   UNL     1       1.729   7.733  20.328  0.00  0.00    +0.000 A 
ENDBRANCH  19  20
ENDBRANCH   6  19
TORSDOF 6
ENDMDL
MODEL 8
REMARK VINA RESULT:      -7.7      1.176      1.623
REMARK  Name = 
REMARK  9 active torsions:
REMARK  status: ('A' for Active; 'I' for Inactive)
REMARK    1  A    between atoms: C_1  and  C_2
REMARK    2  A    between atoms: C_4  and  O_5
REMARK    3  A    between atoms: O_5  and  C_6
REMARK    4  A    between atoms: C_11  and  O_12
REMARK    5  A    between atoms: O_12  and  C_13
REMARK    6  A    between atoms: C_19  and  C_20
REMARK    7  A    between atoms: C_20  and  N_21
REMARK    8  A    between atoms: N_21  and  C_22
REMARK    9  A    between atoms: N_21  and  C_23
REMARK                            x       y       z     vdW  Elec       q    Type
REMARK                         _______ _______ _______ _____ _____    ______ ____
ROOT
ATOM      1  C   UNL     1       3.228   4.079  17.668  0.00  0.00    +0.000 A 
ATOM      2  C   UNL     1       2.744   2.766  17.480  0.00  0.00    +0.000 A 
ATOM      3  C   UNL     1       2.123   2.049  18.502  0.00  0.00    +0.000 A 
ATOM      4  C   UNL     1       1.978   2.633  19.750  0.00  0.00    +0.000 A 
ATOM      5  C   UNL     1       2.390   3.950  19.938  0.00  0.00    +0.000 A 
ATOM      6  C   UNL     1       2.961   4.708  18.894  0.00  0.00    +0.000 A 
ENDROOT
BRANCH   1   7
ATOM      7  O   UNL     1       3.832   4.527  16.514  0.00  0.00    +0.000 OA
BRANCH   7  11
ATOM      8  C   UNL     1       7.550   7.476  17.665  0.00  0.00    +0.000 C 
ATOM      9  C   UNL     1       7.007   6.308  16.893  0.00  0.00    +0.000 A 
ATOM     10  C   UNL     1       5.828   5.697  17.300  0.00  0.00    +0.000 A 
ATOM     11  C   UNL     1       5.144   4.906  16.386  0.00  0.00    +0.000 A 
ATOM     12  C   UNL     1       5.791   4.505  15.200  0.00  0.00    +0.000 A 
ATOM     13  C   UNL     1       7.030   5.081  14.939  0.00  0.00    +0.000 A 
ATOM     14  N   UNL     1       7.636   5.987  15.741  0.00  0.00    +0.000 NA
BRANCH  12  15
ATOM     15  C   UNL     1       5.133   3.591  14.184  0.00  0.00    +0.000 C 
BRANCH  15  16
ATOM     16  N   UNL     1       5.428   3.893  12.761  0.00  0.00    +0.000 NA
ATOM     17  C   UNL     1       6.673   3.267  12.302  0.00  0.00    +0.000 C 
ATOM     18  C   UNL     1       4.324   3.426  11.911  0.00  0.00    +0.000 C 
ENDBRANCH  15  16
ENDBRANCH  12  15
ENDBRANCH   7  11
ENDBRANCH   1   7
BRANCH   6  19
ATOM     19  O   UNL     1       3.276   5.972  19.335  0.00  0.00    +0.000 OA
BRANCH  19  20
ATOM     20  C   UNL     1       2.524   7.095  19.082  0.00  0.00    +0.000 A 
ATOM     21  C   UNL     1       2.437   7.776  17.874  0.00  0.00    +0.000 A 
ATOM     22  C   UNL     1       1.816   9.030  17.828  0.00  0.00    +0.000 A 
ATOM     23  C   UNL     1       1.214   9.561  18.970  0.00  0.00    +0.000 A 
ATOM     24  C   UNL     1       1.211   8.834  20.154  0.00  0.00    +0.000 A 
ATOM     25  C   UNL     1       1.863   7.606  20.209  0.00  0.00    +0.000 A 
ENDBRANCH  19  20
ENDBRANCH   6  19
TORSDOF 6
ENDMDL
MODEL 9
REMARK VINA RESULT:      -7.6      2.916      6.493
REMARK  Name = 
REMARK  9 active torsions:
REMARK  status: ('A' for Active; 'I' for Inactive)
REMARK    1  A    between atoms: C_1  and  C_2
REMARK    2  A    between atoms: C_4  and  O_5
REMARK    3  A    between atoms: O_5  and  C_6
REMARK    4  A    between atoms: C_11  and  O_12
REMARK    5  A    between atoms: O_12  and  C_13
REMARK    6  A    between atoms: C_19  and  C_20
REMARK    7  A    between atoms: C_20  and  N_21
REMARK    8  A    between atoms: N_21  and  C_22
REMARK    9  A    between atoms: N_21  and  C_23
REMARK                            x       y       z     vdW  Elec       q    Type
REMARK                         _______ _______ _______ _____ _____    ______ ____
ROOT
ATOM      1  C   UNL     1       4.848   6.149  17.162  0.00  0.00    +0.000 A 
ATOM      2  C   UNL     1       6.052   6.880  17.270  0.00  0.00    +0.000 A 
ATOM      3  C   UNL     1       7.290   6.321  16.955  0.00  0.00    +0.000 A 
ATOM      4  C   UNL     1       7.354   5.005  16.529  0.00  0.00    +0.000 A 
ATOM      5  C   UNL     1       6.172   4.288  16.354  0.00  0.00    +0.000 A 
ATOM      6  C   UNL     1       4.908   4.862  16.607  0.00  0.00    +0.000 A 
ENDROOT
BRANCH   1   7
ATOM      7  O   UNL     1       3.789   6.926  17.578  0.00  0.00    +0.000 OA
BRANCH   7  11
ATOM      8  C   UNL     1       2.312   4.328  21.440  0.00  0.00    +0.000 C 
ATOM      9  C   UNL     1       2.392   5.635  20.705  0.00  0.00    +0.000 A 
ATOM     10  C   UNL     1       3.340   5.811  19.705  0.00  0.00    +0.000 A 
ATOM     11  C   UNL     1       3.152   6.837  18.790  0.00  0.00    +0.000 A 
ATOM     12  C   UNL     1       2.198   7.839  19.061  0.00  0.00    +0.000 A 
ATOM     13  C   UNL     1       1.372   7.632  20.161  0.00  0.00    +0.000 A 
ATOM     14  N   UNL     1       1.430   6.547  20.968  0.00  0.00    +0.000 NA
BRANCH  12  15
ATOM     15  C   UNL     1       1.980   9.025  18.142  0.00  0.00    +0.000 C 
BRANCH  15  16
ATOM     16  N   UNL     1       1.197  10.148  18.716  0.00  0.00    +0.000 NA
ATOM     17  C   UNL     1       1.832  11.449  18.483  0.00  0.00    +0.000 C 
ATOM     18  C   UNL     1      -0.150  10.170  18.130  0.00  0.00    +0.000 C 
ENDBRANCH  15  16
ENDBRANCH  12  15
ENDBRANCH   7  11
ENDBRANCH   1   7
BRANCH   6  19
ATOM     19  O   UNL     1       3.909   3.952  16.354  0.00  0.00    +0.000 OA
BRANCH  19  20
ATOM     20  C   UNL     1       3.163   3.324  17.324  0.00  0.00    +0.000 A 
ATOM     21  C   UNL     1       3.554   2.235  18.091  0.00  0.00    +0.000 A 
ATOM     22  C   UNL     1       2.608   1.562  18.873  0.00  0.00    +0.000 A 
ATOM     23  C   UNL     1       1.295   2.030  18.950  0.00  0.00    +0.000 A 
ATOM     24  C   UNL     1       0.928   3.180  18.263  0.00  0.00    +0.000 A 
ATOM     25  C   UNL     1       1.859   3.825  17.454  0.00  0.00    +0.000 A 
ENDBRANCH  19  20
ENDBRANCH   6  19
TORSDOF 6
ENDMDL
