MODEL 1
REMARK VINA RESULT:      -8.6      0.000      0.000
REMARK  Name = 
REMARK  6 active torsions:
REMARK  status: ('A' for Active; 'I' for Inactive)
REMARK    1  A    between atoms: C_2  and  C_3
REMARK    2  A    between atoms: C_3  and  C_4
REMARK    3  A    between atoms: C_15  and  C_16
REMARK    4  A    between atoms: C_16  and  C_17
REMARK    5  A    between atoms: N_26  and  C_27
REMARK    6  A    between atoms: C_27  and  C_28
REMARK                            x       y       z     vdW  Elec       q    Type
REMARK                         _______ _______ _______ _____ _____    ______ ____
ROOT
ATOM      1  C   UNL     1      -0.878  11.713  20.591  0.00  0.00    +0.000 C 
ATOM      2  N   UNL     1      -0.774  11.754  22.039  0.00  0.00    +0.000 N 
ATOM      3  C   UNL     1      -1.780  12.456  22.639  0.00  0.00    +0.000 C 
ATOM      4  O   UNL     1      -1.835  12.675  23.835  0.00  0.00    +0.000 OA
ATOM      5  N   UNL     1      -2.672  12.837  21.683  0.00  0.00    +0.000 N 
ATOM      6  C   UNL     1      -2.194  12.520  20.439  0.00  0.00    +0.000 C 
ATOM      7  O   UNL     1      -2.755  12.783  19.382  0.00  0.00    +0.000 OA
ATOM      8  H   UNL     1       0.119  11.661  22.512  0.00  0.00    +0.000 HD
ENDROOT
BRANCH   1  14
ATOM      9  O   UNL     1       2.798   8.220  17.514  0.00  0.00    +0.000 OA
ATOM     10  C   UNL     1       2.420   8.132  18.685  0.00  0.00    +0.000 C 
ATOM     11  N   UNL     1       1.451   8.976  19.218  0.00  0.00    +0.000 N 
ATOM     12  C   UNL     1       1.118   9.060  20.638  0.00  0.00    +0.000 C 
ATOM     13  C   UNL     1      -0.390   9.148  20.853  0.00  0.00    +0.000 C 
ATOM     14  C   UNL     1      -1.071  10.265  20.026  0.00  0.00    +0.000 C 
ATOM     15  C   UNL     1      -0.653  10.065  18.551  0.00  0.00    +0.000 C 
ATOM     16  C   UNL     1       0.860   9.995  18.352  0.00  0.00    +0.000 C 
BRANCH  10  17
ATOM     17  C   UNL     1       2.947   7.003  19.561  0.00  0.00    +0.000 C 
BRANCH  17  18
ATOM     18  C   UNL     1       2.245   5.683  19.314  0.00  0.00    +0.000 A 
ATOM     19  C   UNL     1       2.090   5.174  18.010  0.00  0.00    +0.000 A 
ATOM     20  C   UNL     1       1.452   3.951  17.789  0.00  0.00    +0.000 A 
ATOM     21  C   UNL     1       0.983   3.220  18.872  0.00  0.00    +0.000 A 
ATOM     22  F   UNL     1       0.374   2.045  18.658  0.00  0.00    +0.000 F 
ATOM     23  C   UNL     1       1.146   3.700  20.165  0.00  0.00    +0.000 A 
ATOM     24  F   UNL     1       0.695   2.990  21.210  0.00  0.00    +0.000 F 
ATOM     25  C   UNL     1       1.774   4.922  20.395  0.00  0.00    +0.000 A 
ENDBRANCH  17  18
ENDBRANCH  10  17
ENDBRANCH   1  14
BRANCH   1  26
ATOM     26  C   UNL     1       0.331  12.424  19.989  0.00  0.00    +0.000 A 
ATOM     27  C   UNL     1       0.314  13.009  18.725  0.00  0.00    +0.000 A 
ATOM     28  C   UNL     1       1.450  13.675  18.270  0.00  0.00    +0.000 A 
ATOM     29  C   UNL     1       2.588  13.713  19.065  0.00  0.00    +0.000 A 
ATOM     30  C   UNL     1       2.549  13.075  20.289  0.00  0.00    +0.000 A 
ATOM     31  N   UNL     1       1.455  12.443  20.767  0.00  0.00    +0.000 NA
ENDBRANCH   1  26
BRANCH   5  32
ATOM     32  C   UNL     1      -3.945  13.472  21.954  0.00  0.00    +0.000 C 
BRANCH  32  33
ATOM     33  C   UNL     1      -5.111  12.506  22.189  0.00  0.00    +0.000 C 
ATOM     34  C   UNL     1      -6.370  12.851  21.409  0.00  0.00    +0.000 C 
ATOM     35  C   UNL     1      -7.497  12.571  22.367  0.00  0.00    +0.000 C 
ATOM     36  C   UNL     1      -6.866  12.719  23.731  0.00  0.00    +0.000 C 
ATOM     37  O   UNL     1      -5.455  12.543  23.586  0.00  0.00    +0.000 OA
ENDBRANCH  32  33
ENDBRANCH   5  32
TORSDOF 6
ENDMDL
MODEL 2
REMARK VINA RESULT:      -8.3      0.764      1.405
REMARK  Name = 
REMARK  6 active torsions:
REMARK  status: ('A' for Active; 'I' for Inactive)
REMARK    1  A    between atoms: C_2  and  C_3
REMARK    2  A    between atoms: C_3  and  C_4
REMARK    3  A    between atoms: C_15  and  C_16
REMARK    4  A    between atoms: C_16  and  C_17
REMARK    5  A    between atoms: N_26  and  C_27
REMARK    6  A    between atoms: C_27  and  C_28
REMARK                            x       y       z     vdW  Elec       q    Type
REMARK                         _______ _______ _______ _____ _____    ______ ____
ROOT
ATOM      1  C   UNL     1      -0.845  11.841  20.623  0.00  0.00    +0.000 C 
ATOM      2  N   UNL     1      -0.582  11.953  22.047  0.00  0.00    +0.000 N 
ATOM      3  C   UNL     1      -1.524  12.677  22.721  0.00  0.00    +0.000 C 
ATOM      4  O   UNL     1      -1.449  12.954  23.904  0.00  0.00    +0.000 OA
ATOM      5  N   UNL     1      -2.520  13.005  21.853  0.00  0.00    +0.000 N 
ATOM      6  C   UNL     1      -2.179  12.631  20.580  0.00  0.00    +0.000 C 
ATOM      7  O   UNL     1      -2.856  12.839  19.580  0.00  0.00    +0.000 OA
ATOM      8  H   UNL     1       0.358  11.889  22.422  0.00  0.00    +0.000 HD
ENDROOT
BRANCH   1  14
ATOM      9  O   UNL     1       2.614   8.143  17.534  0.00  0.00    +0.000 OA
ATOM     10  C   UNL     1       2.306   8.124  18.729  0.00  0.00    +0.000 C 
ATOM     11  N   UNL     1       1.377   9.007  19.270  0.00  0.00    +0.000 N 
ATOM     12  C   UNL     1       1.130   9.173  20.700  0.00  0.00    +0.000 C 
ATOM     13  C   UNL     1      -0.362   9.289  20.999  0.00  0.00    +0.000 C 
ATOM     14  C   UNL     1      -1.082  10.366  20.153  0.00  0.00    +0.000 C 
ATOM     15  C   UNL     1      -0.755  10.080  18.669  0.00  0.00    +0.000 C 
ATOM     16  C   UNL     1       0.742   9.982  18.385  0.00  0.00    +0.000 C 
BRANCH  10  17
ATOM     17  C   UNL     1       2.876   7.040  19.634  0.00  0.00    +0.000 C 
BRANCH  17  18
ATOM     18  C   UNL     1       2.275   5.673  19.374  0.00  0.00    +0.000 A 
ATOM     19  C   UNL     1       1.439   5.053  20.323  0.00  0.00    +0.000 A 
ATOM     20  C   UNL     1       0.879   3.798  20.073  0.00  0.00    +0.000 A 
ATOM     21  C   UNL     1       1.135   3.164  18.864  0.00  0.00    +0.000 A 
ATOM     22  F   UNL     1       0.593   1.962  18.626  0.00  0.00    +0.000 F 
ATOM     23  C   UNL     1       1.942   3.772  17.912  0.00  0.00    +0.000 A 
ATOM     24  F   UNL     1       2.185   3.160  16.744  0.00  0.00    +0.000 F 
ATOM     25  C   UNL     1       2.511   5.021  18.155  0.00  0.00    +0.000 A 
ENDBRANCH  17  18
ENDBRANCH  10  17
ENDBRANCH   1  14
BRANCH   1  26
ATOM     26  C   UNL     1       0.281  12.529  19.858  0.00  0.00    +0.000 A 
ATOM     27  C   UNL     1       1.596  12.567  20.316  0.00  0.00    +0.000 A 
ATOM     28  C   UNL     1       2.571  13.182  19.532  0.00  0.00    +0.000 A 
ATOM     29  C   UNL     1       2.211  13.776  18.330  0.00  0.00    +0.000 A 
ATOM     30  C   UNL     1       0.881  13.740  17.957  0.00  0.00    +0.000 A 
ATOM     31  N   UNL     1      -0.081  13.130  18.684  0.00  0.00    +0.000 NA
ENDBRANCH   1  26
BRANCH   5  32
ATOM     32  C   UNL     1      -3.763  13.645  22.232  0.00  0.00    +0.000 C 
BRANCH  32  33
ATOM     33  C   UNL     1      -4.956  12.695  22.391  0.00  0.00    +0.000 C 
ATOM     34  C   UNL     1      -6.260  13.238  21.830  0.00  0.00    +0.000 C 
ATOM     35  C   UNL     1      -7.306  12.812  22.826  0.00  0.00    +0.000 C 
ATOM     36  C   UNL     1      -6.541  12.655  24.119  0.00  0.00    +0.000 C 
ATOM     37  O   UNL     1      -5.163  12.459  23.795  0.00  0.00    +0.000 OA
ENDBRANCH  32  33
ENDBRANCH   5  32
TORSDOF 6
ENDMDL
MODEL 3
REMARK VINA RESULT:      -8.3      4.546      9.560
REMARK  Name = 
REMARK  6 active torsions:
REMARK  status: ('A' for Active; 'I' for Inactive)
REMARK    1  A    between atoms: C_2  and  C_3
REMARK    2  A    between atoms: C_3  and  C_4
REMARK    3  A    between atoms: C_15  and  C_16
REMARK    4  A    between atoms: C_16  and  C_17
REMARK    5  A    between atoms: N_26  and  C_27
REMARK    6  A    between atoms: C_27  and  C_28
REMARK                            x       y       z     vdW  Elec       q    Type
REMARK                         _______ _______ _______ _____ _____    ______ ____
ROOT
ATOM      1  C   UNL     1       4.529   4.710  17.447  0.00  0.00    +0.000 C 
ATOM      2  N   UNL     1       3.170   4.619  16.944  0.00  0.00    +0.000 N 
ATOM      3  C   UNL     1       2.510   3.495  17.355  0.00  0.00    +0.000 C 
ATOM      4  O   UNL     1       1.392   3.192  16.984  0.00  0.00    +0.000 OA
ATOM      5  N   UNL     1       3.308   2.819  18.226  0.00  0.00    +0.000 N 
ATOM      6  C   UNL     1       4.545   3.405  18.286  0.00  0.00    +0.000 C 
ATOM      7  O   UNL     1       5.489   2.992  18.948  0.00  0.00    +0.000 OA
ATOM      8  H   UNL     1       2.888   5.074  16.083  0.00  0.00    +0.000 HD
ENDROOT
BRANCH   1  14
ATOM      9  O   UNL     1       2.155  10.145  17.356  0.00  0.00    +0.000 OA
ATOM     10  C   UNL     1       1.968   9.214  18.144  0.00  0.00    +0.000 C 
ATOM     11  N   UNL     1       2.706   8.036  18.090  0.00  0.00    +0.000 N 
ATOM     12  C   UNL     1       2.392   6.829  18.850  0.00  0.00    +0.000 C 
ATOM     13  C   UNL     1       3.652   6.190  19.428  0.00  0.00    +0.000 C 
ATOM     14  C   UNL     1       4.762   5.947  18.378  0.00  0.00    +0.000 C 
ATOM     15  C   UNL     1       5.010   7.290  17.651  0.00  0.00    +0.000 C 
ATOM     16  C   UNL     1       3.741   7.907  17.066  0.00  0.00    +0.000 C 
BRANCH  10  17
ATOM     17  C   UNL     1       0.972   9.384  19.283  0.00  0.00    +0.000 C 
BRANCH  17  18
ATOM     18  C   UNL     1      -0.314  10.060  18.851  0.00  0.00    +0.000 A 
ATOM     19  C   UNL     1      -0.829  11.163  19.557  0.00  0.00    +0.000 A 
ATOM     20  C   UNL     1      -2.009  11.790  19.147  0.00  0.00    +0.000 A 
ATOM     21  C   UNL     1      -2.670  11.328  18.017  0.00  0.00    +0.000 A 
ATOM     22  F   UNL     1      -3.799  11.933  17.623  0.00  0.00    +0.000 F 
ATOM     23  C   UNL     1      -2.163  10.253  17.299  0.00  0.00    +0.000 A 
ATOM     24  F   UNL     1      -2.800   9.812  16.205  0.00  0.00    +0.000 F 
ATOM     25  C   UNL     1      -0.991   9.618  17.704  0.00  0.00    +0.000 A 
ENDBRANCH  17  18
ENDBRANCH  10  17
ENDBRANCH   1  14
BRANCH   1  26
ATOM     26  C   UNL     1       5.495   4.671  16.266  0.00  0.00    +0.000 A 
ATOM     27  C   UNL     1       5.111   4.282  14.985  0.00  0.00    +0.000 A 
ATOM     28  C   UNL     1       6.049   4.317  13.955  0.00  0.00    +0.000 A 
ATOM     29  C   UNL     1       7.355   4.701  14.228  0.00  0.00    +0.000 A 
ATOM     30  C   UNL     1       7.678   5.031  15.529  0.00  0.00    +0.000 A 
ATOM     31  N   UNL     1       6.785   5.032  16.543  0.00  0.00    +0.000 NA
ENDBRANCH   1  26
BRANCH   5  32
ATOM     32  C   UNL     1       2.896   1.656  18.985  0.00  0.00    +0.000 C 
BRANCH  32  33
ATOM     33  C   UNL     1       2.095   1.966  20.255  0.00  0.00    +0.000 C 
ATOM     34  C   UNL     1       0.976   2.975  20.053  0.00  0.00    +0.000 C 
ATOM     35  C   UNL     1       1.010   3.830  21.292  0.00  0.00    +0.000 C 
ATOM     36  C   UNL     1       2.436   3.717  21.779  0.00  0.00    +0.000 C 
ATOM     37  O   UNL     1       2.994   2.519  21.233  0.00  0.00    +0.000 OA
ENDBRANCH  32  33
ENDBRANCH   5  32
TORSDOF 6
ENDMDL
MODEL 4
REMARK VINA RESULT:      -8.2      4.732      9.596
REMARK  Name = 
REMARK  6 active torsions:
REMARK  status: ('A' for Active; 'I' for Inactive)
REMARK    1  A    between atoms: C_2  and  C_3
REMARK    2  A    between atoms: C_3  and  C_4
REMARK    3  A    between atoms: C_15  and  C_16
REMARK    4  A    between atoms: C_16  and  C_17
REMARK    5  A    between atoms: N_26  and  C_27
REMARK    6  A    between atoms: C_27  and  C_28
REMARK                            x       y       z     vdW  Elec       q    Type
REMARK                         _______ _______ _______ _____ _____    ______ ____
ROOT
ATOM      1  C   UNL     1       4.554   4.775  17.501  0.00  0.00    +0.000 C 
ATOM      2  N   UNL     1       3.204   4.670  16.976  0.00  0.00    +0.000 N 
ATOM      3  C   UNL     1       2.558   3.528  17.358  0.00  0.00    +0.000 C 
ATOM      4  O   UNL     1       1.451   3.211  16.965  0.00  0.00    +0.000 OA
ATOM      5  N   UNL     1       3.355   2.851  18.231  0.00  0.00    +0.000 N 
ATOM      6  C   UNL     1       4.580   3.458  18.319  0.00  0.00    +0.000 C 
ATOM      7  O   UNL     1       5.521   3.050  18.989  0.00  0.00    +0.000 OA
ATOM      8  H   UNL     1       2.927   5.133  16.117  0.00  0.00    +0.000 HD
ENDROOT
BRANCH   1  14
ATOM      9  O   UNL     1       2.160  10.202  17.403  0.00  0.00    +0.000 OA
ATOM     10  C   UNL     1       1.952   9.260  18.173  0.00  0.00    +0.000 C 
ATOM     11  N   UNL     1       2.696   8.086  18.127  0.00  0.00    +0.000 N 
ATOM     12  C   UNL     1       2.363   6.867  18.861  0.00  0.00    +0.000 C 
ATOM     13  C   UNL     1       3.607   6.226  19.471  0.00  0.00    +0.000 C 
ATOM     14  C   UNL     1       4.751   6.002  18.455  0.00  0.00    +0.000 C 
ATOM     15  C   UNL     1       5.016   7.354  17.754  0.00  0.00    +0.000 C 
ATOM     16  C   UNL     1       3.765   7.974  17.136  0.00  0.00    +0.000 C 
BRANCH  10  17
ATOM     17  C   UNL     1       0.919   9.411  19.281  0.00  0.00    +0.000 C 
BRANCH  17  18
ATOM     18  C   UNL     1      -0.349  10.103  18.820  0.00  0.00    +0.000 A 
ATOM     19  C   UNL     1      -1.060   9.644  17.695  0.00  0.00    +0.000 A 
ATOM     20  C   UNL     1      -2.234  10.279  17.281  0.00  0.00    +0.000 A 
ATOM     21  C   UNL     1      -2.714  11.365  18.002  0.00  0.00    +0.000 A 
ATOM     22  F   UNL     1      -3.842  11.969  17.606  0.00  0.00    +0.000 F 
ATOM     23  C   UNL     1      -2.033  11.815  19.126  0.00  0.00    +0.000 A 
ATOM     24  F   UNL     1      -2.501  12.861  19.823  0.00  0.00    +0.000 F 
ATOM     25  C   UNL     1      -0.858  11.193  19.541  0.00  0.00    +0.000 A 
ENDBRANCH  17  18
ENDBRANCH  10  17
ENDBRANCH   1  14
BRANCH   1  26
ATOM     26  C   UNL     1       5.538   4.773  16.334  0.00  0.00    +0.000 A 
ATOM     27  C   UNL     1       6.880   5.120  16.474  0.00  0.00    +0.000 A 
ATOM     28  C   UNL     1       7.718   5.049  15.363  0.00  0.00    +0.000 A 
ATOM     29  C   UNL     1       7.198   4.671  14.132  0.00  0.00    +0.000 A 
ATOM     30  C   UNL     1       5.849   4.383  14.056  0.00  0.00    +0.000 A 
ATOM     31  N   UNL     1       5.017   4.418  15.120  0.00  0.00    +0.000 NA
ENDBRANCH   1  26
BRANCH   5  32
ATOM     32  C   UNL     1       2.952   1.670  18.964  0.00  0.00    +0.000 C 
BRANCH  32  33
ATOM     33  C   UNL     1       2.145   1.945  20.239  0.00  0.00    +0.000 C 
ATOM     34  C   UNL     1       0.991   2.915  20.045  0.00  0.00    +0.000 C 
ATOM     35  C   UNL     1       1.000   3.766  21.288  0.00  0.00    +0.000 C 
ATOM     36  C   UNL     1       2.430   3.701  21.769  0.00  0.00    +0.000 C 
ATOM     37  O   UNL     1       3.028   2.526  21.216  0.00  0.00    +0.000 OA
ENDBRANCH  32  33
ENDBRANCH   5  32
TORSDOF 6
ENDMDL
MODEL 5
REMARK VINA RESULT:      -8.2      1.116      1.704
REMARK  Name = 
REMARK  6 active torsions:
REMARK  status: ('A' for Active; 'I' for Inactive)
REMARK    1  A    between atoms: C_2  and  C_3
REMARK    2  A    between atoms: C_3  and  C_4
REMARK    3  A    between atoms: C_15  and  C_16
REMARK    4  A    between atoms: C_16  and  C_17
REMARK    5  A    between atoms: N_26  and  C_27
REMARK    6  A    between atoms: C_27  and  C_28
REMARK                            x       y       z     vdW  Elec       q    Type
REMARK                         _______ _______ _______ _____ _____    ______ ____
ROOT
ATOM      1  C   UNL     1      -0.888  11.585  20.472  0.00  0.00    +0.000 C 
ATOM      2  N   UNL     1      -0.585  11.594  21.892  0.00  0.00    +0.000 N 
ATOM      3  C   UNL     1      -1.548  12.196  22.653  0.00  0.00    +0.000 C 
ATOM      4  O   UNL     1      -1.451  12.376  23.852  0.00  0.00    +0.000 OA
ATOM      5  N   UNL     1      -2.592  12.529  21.844  0.00  0.00    +0.000 N 
ATOM      6  C   UNL     1      -2.270  12.287  20.534  0.00  0.00    +0.000 C 
ATOM      7  O   UNL     1      -2.992  12.533  19.575  0.00  0.00    +0.000 OA
ATOM      8  H   UNL     1       0.369  11.561  22.235  0.00  0.00    +0.000 HD
ENDROOT
BRANCH   1  14
ATOM      9  O   UNL     1       2.913   8.183  17.445  0.00  0.00    +0.000 OA
ATOM     10  C   UNL     1       2.506   8.074  18.605  0.00  0.00    +0.000 C 
ATOM     11  N   UNL     1       1.513   8.898  19.123  0.00  0.00    +0.000 N 
ATOM     12  C   UNL     1       1.142   8.959  20.535  0.00  0.00    +0.000 C 
ATOM     13  C   UNL     1      -0.372   9.024  20.712  0.00  0.00    +0.000 C 
ATOM     14  C   UNL     1      -1.047  10.143  19.883  0.00  0.00    +0.000 C 
ATOM     15  C   UNL     1      -0.588   9.969  18.417  0.00  0.00    +0.000 C 
ATOM     16  C   UNL     1       0.930   9.921  18.256  0.00  0.00    +0.000 C 
BRANCH  10  17
ATOM     17  C   UNL     1       3.025   6.941  19.479  0.00  0.00    +0.000 C 
BRANCH  17  18
ATOM     18  C   UNL     1       2.293   5.633  19.253  0.00  0.00    +0.000 A 
ATOM     19  C   UNL     1       2.128   5.106  17.958  0.00  0.00    +0.000 A 
ATOM     20  C   UNL     1       1.462   3.895  17.756  0.00  0.00    +0.000 A 
ATOM     21  C   UNL     1       0.974   3.194  18.851  0.00  0.00    +0.000 A 
ATOM     22  F   UNL     1       0.339   2.030  18.654  0.00  0.00    +0.000 F 
ATOM     23  C   UNL     1       1.146   3.692  20.135  0.00  0.00    +0.000 A 
ATOM     24  F   UNL     1       0.677   3.010  21.191  0.00  0.00    +0.000 F 
ATOM     25  C   UNL     1       1.803   4.902  20.345  0.00  0.00    +0.000 A 
ENDBRANCH  17  18
ENDBRANCH  10  17
ENDBRANCH   1  14
BRANCH   1  26
ATOM     26  C   UNL     1       0.167  12.409  19.738  0.00  0.00    +0.000 A 
ATOM     27  C   UNL     1      -0.111  13.141  18.586  0.00  0.00    +0.000 A 
ATOM     28  C   UNL     1       0.903  13.899  18.003  0.00  0.00    +0.000 A 
ATOM     29  C   UNL     1       2.177  13.884  18.556  0.00  0.00    +0.000 A 
ATOM     30  C   UNL     1       2.392  13.101  19.673  0.00  0.00    +0.000 A 
ATOM     31  N   UNL     1       1.424  12.376  20.275  0.00  0.00    +0.000 NA
ENDBRANCH   1  26
BRANCH   5  32
ATOM     32  C   UNL     1      -3.859  13.052  22.311  0.00  0.00    +0.000 C 
BRANCH  32  33
ATOM     33  C   UNL     1      -3.867  14.557  22.602  0.00  0.00    +0.000 C 
ATOM     34  C   UNL     1      -2.723  15.321  21.957  0.00  0.00    +0.000 C 
ATOM     35  C   UNL     1      -2.303  16.325  22.998  0.00  0.00    +0.000 C 
ATOM     36  C   UNL     1      -2.727  15.698  24.305  0.00  0.00    +0.000 C 
ATOM     37  O   UNL     1      -3.753  14.743  24.025  0.00  0.00    +0.000 OA
ENDBRANCH  32  33
ENDBRANCH   5  32
TORSDOF 6
ENDMDL
MODEL 6
REMARK VINA RESULT:      -8.2      1.763      4.964
REMARK  Name = 
REMARK  6 active torsions:
REMARK  status: ('A' for Active; 'I' for Inactive)
REMARK    1  A    between atoms: C_2  and  C_3
REMARK    2  A    between atoms: C_3  and  C_4
REMARK    3  A    between atoms: C_15  and  C_16
REMARK    4  A    between atoms: C_16  and  C_17
REMARK    5  A    between atoms: N_26  and  C_27
REMARK    6  A    between atoms: C_27  and  C_28
REMARK                            x       y       z     vdW  Elec       q    Type
REMARK                         _______ _______ _______ _____ _____    ______ ____
ROOT
ATOM      1  C   UNL     1      -1.022  11.821  20.307  0.00  0.00    +0.000 C 
ATOM      2  N   UNL     1      -0.907  12.771  19.214  0.00  0.00    +0.000 N 
ATOM      3  C   UNL     1       0.289  13.432  19.190  0.00  0.00    +0.000 C 
ATOM      4  O   UNL     1       0.556  14.323  18.406  0.00  0.00    +0.000 OA
ATOM      5  N   UNL     1       1.088  12.917  20.166  0.00  0.00    +0.000 N 
ATOM      6  C   UNL     1       0.384  12.023  20.929  0.00  0.00    +0.000 C 
ATOM      7  O   UNL     1       0.824  11.436  21.909  0.00  0.00    +0.000 OA
ATOM      8  H   UNL     1      -1.722  13.203  18.795  0.00  0.00    +0.000 HD
ENDROOT
BRANCH   1  14
ATOM      9  O   UNL     1       2.632   8.317  17.214  0.00  0.00    +0.000 OA
ATOM     10  C   UNL     1       2.316   8.274  18.406  0.00  0.00    +0.000 C 
ATOM     11  N   UNL     1       1.343   9.107  18.947  0.00  0.00    +0.000 N 
ATOM     12  C   UNL     1       1.078   9.250  20.377  0.00  0.00    +0.000 C 
ATOM     13  C   UNL     1      -0.420   9.292  20.666  0.00  0.00    +0.000 C 
ATOM     14  C   UNL     1      -1.185  10.340  19.823  0.00  0.00    +0.000 C 
ATOM     15  C   UNL     1      -0.834  10.082  18.339  0.00  0.00    +0.000 C 
ATOM     16  C   UNL     1       0.668  10.059  18.065  0.00  0.00    +0.000 C 
BRANCH  10  17
ATOM     17  C   UNL     1       2.931   7.211  19.307  0.00  0.00    +0.000 C 
BRANCH  17  18
ATOM     18  C   UNL     1       2.271   5.854  19.159  0.00  0.00    +0.000 A 
ATOM     19  C   UNL     1       2.128   5.249  17.896  0.00  0.00    +0.000 A 
ATOM     20  C   UNL     1       1.529   3.993  17.768  0.00  0.00    +0.000 A 
ATOM     21  C   UNL     1       1.089   3.327  18.903  0.00  0.00    +0.000 A 
ATOM     22  F   UNL     1       0.518   2.121  18.777  0.00  0.00    +0.000 F 
ATOM     23  C   UNL     1       1.241   3.904  20.157  0.00  0.00    +0.000 A 
ATOM     24  F   UNL     1       0.819   3.256  21.253  0.00  0.00    +0.000 F 
ATOM     25  C   UNL     1       1.831   5.159  20.295  0.00  0.00    +0.000 A 
ENDBRANCH  17  18
ENDBRANCH  10  17
ENDBRANCH   1  14
BRANCH   1  26
ATOM     26  C   UNL     1      -2.153  12.266  21.230  0.00  0.00    +0.000 A 
ATOM     27  C   UNL     1      -3.259  12.984  20.782  0.00  0.00    +0.000 A 
ATOM     28  C   UNL     1      -4.266  13.314  21.686  0.00  0.00    +0.000 A 
ATOM     29  C   UNL     1      -4.135  12.956  23.022  0.00  0.00    +0.000 A 
ATOM     30  C   UNL     1      -2.991  12.284  23.406  0.00  0.00    +0.000 A 
ATOM     31  N   UNL     1      -2.010  11.928  22.548  0.00  0.00    +0.000 NA
ENDBRANCH   1  26
BRANCH   5  32
ATOM     32  C   UNL     1       2.481  13.263  20.353  0.00  0.00    +0.000 C 
BRANCH  32  33
ATOM     33  C   UNL     1       2.726  14.638  20.985  0.00  0.00    +0.000 C 
ATOM     34  C   UNL     1       3.875  15.412  20.361  0.00  0.00    +0.000 C 
ATOM     35  C   UNL     1       4.565  16.071  21.527  0.00  0.00    +0.000 C 
ATOM     36  C   UNL     1       4.228  15.185  22.702  0.00  0.00    +0.000 C 
ATOM     37  O   UNL     1       3.048  14.447  22.374  0.00  0.00    +0.000 OA
ENDBRANCH  32  33
ENDBRANCH   5  32
TORSDOF 6
ENDMDL
MODEL 7
REMARK VINA RESULT:      -8.2      1.162      1.407
REMARK  Name = 
REMARK  6 active torsions:
REMARK  status: ('A' for Active; 'I' for Inactive)
REMARK    1  A    between atoms: C_2  and  C_3
REMARK    2  A    between atoms: C_3  and  C_4
REMARK    3  A    between atoms: C_15  and  C_16
REMARK    4  A    between atoms: C_16  and  C_17
REMARK    5  A    between atoms: N_26  and  C_27
REMARK    6  A    between atoms: C_27  and  C_28
REMARK                            x       y       z     vdW  Elec       q    Type
REMARK                         _______ _______ _______ _____ _____    ______ ____
ROOT
ATOM      1  C   UNL     1      -0.912  11.650  20.487  0.00  0.00    +0.000 C 
ATOM      2  N   UNL     1      -0.594  11.683  21.904  0.00  0.00    +0.000 N 
ATOM      3  C   UNL     1      -1.551  12.296  22.664  0.00  0.00    +0.000 C 
ATOM      4  O   UNL     1      -1.441  12.497  23.858  0.00  0.00    +0.000 OA
ATOM      5  N   UNL     1      -2.603  12.614  21.860  0.00  0.00    +0.000 N 
ATOM      6  C   UNL     1      -2.294  12.351  20.552  0.00  0.00    +0.000 C 
ATOM      7  O   UNL     1      -3.026  12.579  19.596  0.00  0.00    +0.000 OA
ATOM      8  H   UNL     1       0.363  11.657  22.237  0.00  0.00    +0.000 HD
ENDROOT
BRANCH   1  14
ATOM      9  O   UNL     1       2.766   8.298  17.259  0.00  0.00    +0.000 OA
ATOM     10  C   UNL     1       2.436   8.194  18.443  0.00  0.00    +0.000 C 
ATOM     11  N   UNL     1       1.460   9.001  19.016  0.00  0.00    +0.000 N 
ATOM     12  C   UNL     1       1.178   9.070  20.448  0.00  0.00    +0.000 C 
ATOM     13  C   UNL     1      -0.323   9.104  20.720  0.00  0.00    +0.000 C 
ATOM     14  C   UNL     1      -1.074  10.197  19.925  0.00  0.00    +0.000 C 
ATOM     15  C   UNL     1      -0.706  10.016  18.434  0.00  0.00    +0.000 C 
ATOM     16  C   UNL     1       0.799  10.000  18.177  0.00  0.00    +0.000 C 
BRANCH  10  17
ATOM     17  C   UNL     1       3.036   7.083  19.295  0.00  0.00    +0.000 C 
BRANCH  17  18
ATOM     18  C   UNL     1       2.318   5.757  19.132  0.00  0.00    +0.000 A 
ATOM     19  C   UNL     1       2.155   5.168  17.863  0.00  0.00    +0.000 A 
ATOM     20  C   UNL     1       1.503   3.941  17.721  0.00  0.00    +0.000 A 
ATOM     21  C   UNL     1       1.027   3.286  18.849  0.00  0.00    +0.000 A 
ATOM     22  F   UNL     1       0.405   2.108  18.710  0.00  0.00    +0.000 F 
ATOM     23  C   UNL     1       1.198   3.846  20.108  0.00  0.00    +0.000 A 
ATOM     24  F   UNL     1       0.741   3.209  21.196  0.00  0.00    +0.000 F 
ATOM     25  C   UNL     1       1.841   5.072  20.259  0.00  0.00    +0.000 A 
ENDBRANCH  17  18
ENDBRANCH  10  17
ENDBRANCH   1  14
BRANCH   1  26
ATOM     26  C   UNL     1       0.134  12.462  19.728  0.00  0.00    +0.000 A 
ATOM     27  C   UNL     1      -0.171  13.231  18.607  0.00  0.00    +0.000 A 
ATOM     28  C   UNL     1       0.839  13.975  18.000  0.00  0.00    +0.000 A 
ATOM     29  C   UNL     1       2.134  13.910  18.497  0.00  0.00    +0.000 A 
ATOM     30  C   UNL     1       2.374  13.093  19.584  0.00  0.00    +0.000 A 
ATOM     31  N   UNL     1       1.412  12.380  20.209  0.00  0.00    +0.000 NA
ENDBRANCH   1  26
BRANCH   5  32
ATOM     32  C   UNL     1      -3.866  13.143  22.331  0.00  0.00    +0.000 C 
BRANCH  32  33
ATOM     33  C   UNL     1      -3.979  14.672  22.295  0.00  0.00    +0.000 C 
ATOM     34  C   UNL     1      -4.253  15.306  23.649  0.00  0.00    +0.000 C 
ATOM     35  C   UNL     1      -5.234  16.412  23.356  0.00  0.00    +0.000 C 
ATOM     36  C   UNL     1      -5.925  15.965  22.090  0.00  0.00    +0.000 C 
ATOM     37  O   UNL     1      -5.074  15.024  21.431  0.00  0.00    +0.000 OA
ENDBRANCH  32  33
ENDBRANCH   5  32
TORSDOF 6
ENDMDL
MODEL 8
REMARK VINA RESULT:      -8.2      0.728      1.272
REMARK  Name = 
REMARK  6 active torsions:
REMARK  status: ('A' for Active; 'I' for Inactive)
REMARK    1  A    between atoms: C_2  and  C_3
REMARK    2  A    between atoms: C_3  and  C_4
REMARK    3  A    between atoms: C_15  and  C_16
REMARK    4  A    between atoms: C_16  and  C_17
REMARK    5  A    between atoms: N_26  and  C_27
REMARK    6  A    between atoms: C_27  and  C_28
REMARK                            x       y       z     vdW  Elec       q    Type
REMARK                         _______ _______ _______ _____ _____    ______ ____
ROOT
ATOM      1  C   UNL     1      -0.990  11.672  20.508  0.00  0.00    +0.000 C 
ATOM      2  N   UNL     1      -1.020  11.778  21.956  0.00  0.00    +0.000 N 
ATOM      3  C   UNL     1      -2.067  12.518  22.428  0.00  0.00    +0.000 C 
ATOM      4  O   UNL     1      -2.229  12.792  23.602  0.00  0.00    +0.000 OA
ATOM      5  N   UNL     1      -2.860  12.865  21.377  0.00  0.00    +0.000 N 
ATOM      6  C   UNL     1      -2.274  12.487  20.198  0.00  0.00    +0.000 C 
ATOM      7  O   UNL     1      -2.729  12.708  19.083  0.00  0.00    +0.000 OA
ATOM      8  H   UNL     1      -0.178  11.697  22.515  0.00  0.00    +0.000 HD
ENDROOT
BRANCH   1  14
ATOM      9  O   UNL     1       2.757   8.160  17.541  0.00  0.00    +0.000 OA
ATOM     10  C   UNL     1       2.383   8.103  18.715  0.00  0.00    +0.000 C 
ATOM     11  N   UNL     1       1.397   8.943  19.221  0.00  0.00    +0.000 N 
ATOM     12  C   UNL     1       1.064   9.067  20.639  0.00  0.00    +0.000 C 
ATOM     13  C   UNL     1      -0.446   9.129  20.854  0.00  0.00    +0.000 C 
ATOM     14  C   UNL     1      -1.152  10.203  19.992  0.00  0.00    +0.000 C 
ATOM     15  C   UNL     1      -0.732   9.963  18.523  0.00  0.00    +0.000 C 
ATOM     16  C   UNL     1       0.782   9.919  18.323  0.00  0.00    +0.000 C 
BRANCH  10  17
ATOM     17  C   UNL     1       2.935   7.016  19.627  0.00  0.00    +0.000 C 
BRANCH  17  18
ATOM     18  C   UNL     1       2.312   5.657  19.376  0.00  0.00    +0.000 A 
ATOM     19  C   UNL     1       1.483   5.047  20.337  0.00  0.00    +0.000 A 
ATOM     20  C   UNL     1       0.903   3.800  20.095  0.00  0.00    +0.000 A 
ATOM     21  C   UNL     1       1.132   3.163  18.883  0.00  0.00    +0.000 A 
ATOM     22  F   UNL     1       0.571   1.969  18.652  0.00  0.00    +0.000 F 
ATOM     23  C   UNL     1       1.932   3.762  17.918  0.00  0.00    +0.000 A 
ATOM     24  F   UNL     1       2.148   3.147  16.746  0.00  0.00    +0.000 F 
ATOM     25  C   UNL     1       2.521   5.002  18.153  0.00  0.00    +0.000 A 
ENDBRANCH  17  18
ENDBRANCH  10  17
ENDBRANCH   1  14
BRANCH   1  26
ATOM     26  C   UNL     1       0.281  12.342  19.991  0.00  0.00    +0.000 A 
ATOM     27  C   UNL     1       0.384  12.887  18.714  0.00  0.00    +0.000 A 
ATOM     28  C   UNL     1       1.569  13.517  18.339  0.00  0.00    +0.000 A 
ATOM     29  C   UNL     1       2.636  13.559  19.227  0.00  0.00    +0.000 A 
ATOM     30  C   UNL     1       2.479  12.959  20.461  0.00  0.00    +0.000 A 
ATOM     31  N   UNL     1       1.335  12.363  20.862  0.00  0.00    +0.000 NA
ENDBRANCH   1  26
BRANCH   5  32
ATOM     32  C   UNL     1      -4.142  13.527  21.498  0.00  0.00    +0.000 C 
BRANCH  32  33
ATOM     33  C   UNL     1      -5.331  12.590  21.742  0.00  0.00    +0.000 C 
ATOM     34  C   UNL     1      -5.960  12.043  20.471  0.00  0.00    +0.000 C 
ATOM     35  C   UNL     1      -7.441  12.060  20.744  0.00  0.00    +0.000 C 
ATOM     36  C   UNL     1      -7.611  13.142  21.784  0.00  0.00    +0.000 C 
ATOM     37  O   UNL     1      -6.353  13.327  22.437  0.00  0.00    +0.000 OA
ENDBRANCH  32  33
ENDBRANCH   5  32
TORSDOF 6
ENDMDL
MODEL 9
REMARK VINA RESULT:      -8.1      1.951      5.022
REMARK  Name = 
REMARK  6 active torsions:
REMARK  status: ('A' for Active; 'I' for Inactive)
REMARK    1  A    between atoms: C_2  and  C_3
REMARK    2  A    between atoms: C_3  and  C_4
REMARK    3  A    between atoms: C_15  and  C_16
REMARK    4  A    between atoms: C_16  and  C_17
REMARK    5  A    between atoms: N_26  and  C_27
REMARK    6  A    between atoms: C_27  and  C_28
REMARK                            x       y       z     vdW  Elec       q    Type
REMARK                         _______ _______ _______ _____ _____    ______ ____
ROOT
ATOM      1  C   UNL     1      -0.903  12.278  19.873  0.00  0.00    +0.000 C 
ATOM      2  N   UNL     1      -0.284  12.952  18.745  0.00  0.00    +0.000 N 
ATOM      3  C   UNL     1       0.957  13.452  19.022  0.00  0.00    +0.000 C 
ATOM      4  O   UNL     1       1.610  14.116  18.240  0.00  0.00    +0.000 OA
ATOM      5  N   UNL     1       1.305  13.071  20.283  0.00  0.00    +0.000 N 
ATOM      6  C   UNL     1       0.251  12.448  20.896  0.00  0.00    +0.000 C 
ATOM      7  O   UNL     1       0.250  12.038  22.050  0.00  0.00    +0.000 OA
ATOM      8  H   UNL     1      -0.837  13.374  18.007  0.00  0.00    +0.000 HD
ENDROOT
BRANCH   1  14
ATOM      9  O   UNL     1       2.409   8.156  17.186  0.00  0.00    +0.000 OA
ATOM     10  C   UNL     1       2.146   8.301  18.382  0.00  0.00    +0.000 C 
ATOM     11  N   UNL     1       1.245   9.260  18.833  0.00  0.00    +0.000 N 
ATOM     12  C   UNL     1       1.053   9.620  20.236  0.00  0.00    +0.000 C 
ATOM     13  C   UNL     1      -0.425   9.794  20.570  0.00  0.00    +0.000 C 
ATOM     14  C   UNL     1      -1.169  10.757  19.614  0.00  0.00    +0.000 C 
ATOM     15  C   UNL     1      -0.900  10.270  18.171  0.00  0.00    +0.000 C 
ATOM     16  C   UNL     1       0.585  10.116  17.849  0.00  0.00    +0.000 C 
BRANCH  10  17
ATOM     17  C   UNL     1       2.741   7.341  19.404  0.00  0.00    +0.000 C 
BRANCH  17  18
ATOM     18  C   UNL     1       2.223   5.924  19.259  0.00  0.00    +0.000 A 
ATOM     19  C   UNL     1       2.234   5.269  18.013  0.00  0.00    +0.000 A 
ATOM     20  C   UNL     1       1.766   3.959  17.888  0.00  0.00    +0.000 A 
ATOM     21  C   UNL     1       1.301   3.290  19.012  0.00  0.00    +0.000 A 
ATOM     22  F   UNL     1       0.855   2.032  18.889  0.00  0.00    +0.000 F 
ATOM     23  C   UNL     1       1.301   3.917  20.251  0.00  0.00    +0.000 A 
ATOM     24  F   UNL     1       0.855   3.267  21.335  0.00  0.00    +0.000 F 
ATOM     25  C   UNL     1       1.760   5.225  20.384  0.00  0.00    +0.000 A 
ENDBRANCH  17  18
ENDBRANCH  10  17
ENDBRANCH   1  14
BRANCH   1  26
ATOM     26  C   UNL     1      -2.167  13.038  20.268  0.00  0.00    +0.000 A 
ATOM     27  C   UNL     1      -2.140  14.309  20.837  0.00  0.00    +0.000 A 
ATOM     28  C   UNL     1      -3.345  14.948  21.127  0.00  0.00    +0.000 A 
ATOM     29  C   UNL     1      -4.545  14.295  20.882  0.00  0.00    +0.000 A 
ATOM     30  C   UNL     1      -4.497  13.018  20.358  0.00  0.00    +0.000 A 
ATOM     31  N   UNL     1      -3.347  12.383  20.042  0.00  0.00    +0.000 NA
ENDBRANCH   1  26
BRANCH   5  32
ATOM     32  C   UNL     1       2.609  13.287  20.875  0.00  0.00    +0.000 C 
BRANCH  32  33
ATOM     33  C   UNL     1       2.810  14.670  21.505  0.00  0.00    +0.000 C 
ATOM     34  C   UNL     1       3.635  15.624  20.656  0.00  0.00    +0.000 C 
ATOM     35  C   UNL     1       4.502  16.357  21.647  0.00  0.00    +0.000 C 
ATOM     36  C   UNL     1       4.611  15.406  22.815  0.00  0.00    +0.000 C 
ATOM     37  O   UNL     1       3.505  14.503  22.753  0.00  0.00    +0.000 OA
ENDBRANCH  32  33
ENDBRANCH   5  32
TORSDOF 6
ENDMDL
