MODEL 1
REMARK VINA RESULT:      -8.3      0.000      0.000
REMARK  Name = 
REMARK  7 active torsions:
REMARK  status: ('A' for Active; 'I' for Inactive)
REMARK    1  A    between atoms: C_1  and  C_2
REMARK    2  A    between atoms: C_7  and  C_8
REMARK    3  A    between atoms: C_8  and  N_9
REMARK    4  A    between atoms: C_18  and  S_19
REMARK    5  A    between atoms: S_19  and  C_20
REMARK    6  A    between atoms: C_20  and  C_21
REMARK    7  A    between atoms: C_21  and  C_23
REMARK                            x       y       z     vdW  Elec       q    Type
REMARK                         _______ _______ _______ _____ _____    ______ ____
ROOT
ATOM      1  N   UNL     1       0.409  11.211  19.581  0.00  0.00    +0.000 N 
ATOM      2  C   UNL     1      -0.035  10.639  20.836  0.00  0.00    +0.000 A 
ATOM      3  C   UNL     1      -0.771  11.439  21.730  0.00  0.00    +0.000 A 
ATOM      4  C   UNL     1      -1.012  11.039  23.044  0.00  0.00    +0.000 A 
ATOM      5  C   UNL     1      -0.538   9.817  23.485  0.00  0.00    +0.000 A 
ATOM      6  C   UNL     1       0.136   8.979  22.595  0.00  0.00    +0.000 A 
ATOM      7  C   UNL     1       0.398   9.358  21.256  0.00  0.00    +0.000 A 
ATOM      8  C   UNL     1       1.155   8.446  20.373  0.00  0.00    +0.000 A 
ATOM      9  N   UNL     1       1.460   7.219  20.876  0.00  0.00    +0.000 NA
ATOM     10  C   UNL     1       2.194   6.382  20.115  0.00  0.00    +0.000 A 
ATOM     11  N   UNL     1       2.645   6.671  18.884  0.00  0.00    +0.000 NA
ATOM     12  C   UNL     1       2.315   7.886  18.409  0.00  0.00    +0.000 A 
ATOM     13  C   UNL     1       1.549   8.782  19.111  0.00  0.00    +0.000 A 
ATOM     14  S   UNL     1       1.077  10.261  18.369  0.00  0.00    +0.000 S 
ATOM     15  O   UNL     1       0.022   9.939  17.431  0.00  0.00    +0.000 OA
ATOM     16  O   UNL     1       2.295  10.898  17.914  0.00  0.00    +0.000 OA
ENDROOT
BRANCH   1  17
ATOM     17  C   UNL     1       0.277  12.658  19.248  0.00  0.00    +0.000 C 
BRANCH  17  24
ATOM     18  C   UNL     1      -0.931  15.189  20.497  0.00  0.00    +0.000 C 
ATOM     19  C   UNL     1       0.504  14.777  20.696  0.00  0.00    +0.000 A 
ATOM     20  C   UNL     1       1.331  15.662  21.416  0.00  0.00    +0.000 A 
ATOM     21  C   UNL     1       2.670  15.364  21.663  0.00  0.00    +0.000 A 
ATOM     22  C   UNL     1       3.206  14.176  21.198  0.00  0.00    +0.000 A 
ATOM     23  C   UNL     1       2.412  13.309  20.455  0.00  0.00    +0.000 A 
ATOM     24  C   UNL     1       1.061  13.592  20.165  0.00  0.00    +0.000 A 
ENDBRANCH  17  24
ENDBRANCH   1  17
BRANCH  10  25
ATOM     25  S   UNL     1       2.482   4.747  20.744  0.00  0.00    +0.000 S 
BRANCH  25  26
ATOM     26  C   UNL     1       3.050   3.925  19.221  0.00  0.00    +0.000 C 
BRANCH  26  27
ATOM     27  C   UNL     1       4.541   3.619  19.239  0.00  0.00    +0.000 C 
ATOM     28  O   UNL     1       5.038   2.656  19.832  0.00  0.00    +0.000 OA
BRANCH  27  29
ATOM     29  C   UNL     1       5.459   4.517  18.470  0.00  0.00    +0.000 A 
ATOM     30  C   UNL     1       5.469   4.573  17.072  0.00  0.00    +0.000 A 
ATOM     31  C   UNL     1       6.383   5.397  16.408  0.00  0.00    +0.000 A 
ATOM     32  C   UNL     1       7.288   6.171  17.134  0.00  0.00    +0.000 A 
ATOM     33  C   UNL     1       7.274   6.134  18.525  0.00  0.00    +0.000 A 
ATOM     34  C   UNL     1       6.362   5.314  19.191  0.00  0.00    +0.000 A 
ENDBRANCH  27  29
ENDBRANCH  26  27
ENDBRANCH  25  26
ENDBRANCH  10  25
TORSDOF 6
ENDMDL
MODEL 2
REMARK VINA RESULT:      -8.2      0.541      1.029
REMARK  Name = 
REMARK  7 active torsions:
REMARK  status: ('A' for Active; 'I' for Inactive)
REMARK    1  A    between atoms: C_1  and  C_2
REMARK    2  A    between atoms: C_7  and  C_8
REMARK    3  A    between atoms: C_8  and  N_9
REMARK    4  A    between atoms: C_18  and  S_19
REMARK    5  A    between atoms: S_19  and  C_20
REMARK    6  A    between atoms: C_20  and  C_21
REMARK    7  A    between atoms: C_21  and  C_23
REMARK                            x       y       z     vdW  Elec       q    Type
REMARK                         _______ _______ _______ _____ _____    ______ ____
ROOT
ATOM      1  N   UNL     1       0.362  11.248  19.611  0.00  0.00    +0.000 N 
ATOM      2  C   UNL     1      -0.067  10.630  20.848  0.00  0.00    +0.000 A 
ATOM      3  C   UNL     1      -0.812  11.389  21.771  0.00  0.00    +0.000 A 
ATOM      4  C   UNL     1      -1.041  10.944  23.072  0.00  0.00    +0.000 A 
ATOM      5  C   UNL     1      -0.545   9.716  23.472  0.00  0.00    +0.000 A 
ATOM      6  C   UNL     1       0.139   8.918  22.554  0.00  0.00    +0.000 A 
ATOM      7  C   UNL     1       0.389   9.343  21.226  0.00  0.00    +0.000 A 
ATOM      8  C   UNL     1       1.158   8.473  20.313  0.00  0.00    +0.000 A 
ATOM      9  N   UNL     1       1.485   7.235  20.776  0.00  0.00    +0.000 NA
ATOM     10  C   UNL     1       2.229   6.435  19.986  0.00  0.00    +0.000 A 
ATOM     11  N   UNL     1       2.671   6.770  18.762  0.00  0.00    +0.000 NA
ATOM     12  C   UNL     1       2.318   7.994  18.327  0.00  0.00    +0.000 A 
ATOM     13  C   UNL     1       1.540   8.855  19.060  0.00  0.00    +0.000 A 
ATOM     14  S   UNL     1       1.041  10.348  18.367  0.00  0.00    +0.000 S 
ATOM     15  O   UNL     1      -0.013  10.039  17.423  0.00  0.00    +0.000 OA
ATOM     16  O   UNL     1       2.246  11.020  17.928  0.00  0.00    +0.000 OA
ENDROOT
BRANCH   1  17
ATOM     17  C   UNL     1       0.205  12.703  19.324  0.00  0.00    +0.000 C 
BRANCH  17  24
ATOM     18  C   UNL     1      -1.015  15.147  20.724  0.00  0.00    +0.000 C 
ATOM     19  C   UNL     1       0.437  14.766  20.849  0.00  0.00    +0.000 A 
ATOM     20  C   UNL     1       1.270  15.643  21.573  0.00  0.00    +0.000 A 
ATOM     21  C   UNL     1       2.624  15.371  21.755  0.00  0.00    +0.000 A 
ATOM     22  C   UNL     1       3.170  14.217  21.221  0.00  0.00    +0.000 A 
ATOM     23  C   UNL     1       2.370  13.360  20.473  0.00  0.00    +0.000 A 
ATOM     24  C   UNL     1       1.002  13.619  20.249  0.00  0.00    +0.000 A 
ENDBRANCH  17  24
ENDBRANCH   1  17
BRANCH  10  25
ATOM     25  S   UNL     1       2.546   4.786  20.561  0.00  0.00    +0.000 S 
BRANCH  25  26
ATOM     26  C   UNL     1       3.030   3.998  18.991  0.00  0.00    +0.000 C 
BRANCH  26  27
ATOM     27  C   UNL     1       4.510   3.646  18.941  0.00  0.00    +0.000 C 
ATOM     28  O   UNL     1       5.085   2.973  19.803  0.00  0.00    +0.000 OA
BRANCH  27  29
ATOM     29  C   UNL     1       5.311   4.114  17.767  0.00  0.00    +0.000 A 
ATOM     30  C   UNL     1       6.623   4.588  17.886  0.00  0.00    +0.000 A 
ATOM     31  C   UNL     1       7.305   5.057  16.758  0.00  0.00    +0.000 A 
ATOM     32  C   UNL     1       6.685   5.051  15.509  0.00  0.00    +0.000 A 
ATOM     33  C   UNL     1       5.387   4.565  15.379  0.00  0.00    +0.000 A 
ATOM     34  C   UNL     1       4.704   4.095  16.502  0.00  0.00    +0.000 A 
ENDBRANCH  27  29
ENDBRANCH  26  27
ENDBRANCH  25  26
ENDBRANCH  10  25
TORSDOF 6
ENDMDL
MODEL 3
REMARK VINA RESULT:      -8.2      4.302      6.393
REMARK  Name = 
REMARK  7 active torsions:
REMARK  status: ('A' for Active; 'I' for Inactive)
REMARK    1  A    between atoms: C_1  and  C_2
REMARK    2  A    between atoms: C_7  and  C_8
REMARK    3  A    between atoms: C_8  and  N_9
REMARK    4  A    between atoms: C_18  and  S_19
REMARK    5  A    between atoms: S_19  and  C_20
REMARK    6  A    between atoms: C_20  and  C_21
REMARK    7  A    between atoms: C_21  and  C_23
REMARK                            x       y       z     vdW  Elec       q    Type
REMARK                         _______ _______ _______ _____ _____    ______ ____
ROOT
ATOM      1  N   UNL     1      -3.776  12.258  18.994  0.00  0.00    +0.000 N 
ATOM      2  C   UNL     1      -3.309  11.502  17.850  0.00  0.00    +0.000 A 
ATOM      3  C   UNL     1      -4.108  11.451  16.691  0.00  0.00    +0.000 A 
ATOM      4  C   UNL     1      -3.844  10.552  15.659  0.00  0.00    +0.000 A 
ATOM      5  C   UNL     1      -2.760   9.698  15.754  0.00  0.00    +0.000 A 
ATOM      6  C   UNL     1      -1.917   9.780  16.863  0.00  0.00    +0.000 A 
ATOM      7  C   UNL     1      -2.159  10.681  17.929  0.00  0.00    +0.000 A 
ATOM      8  C   UNL     1      -1.255  10.690  19.098  0.00  0.00    +0.000 A 
ATOM      9  N   UNL     1      -0.150   9.897  19.025  0.00  0.00    +0.000 NA
ATOM     10  C   UNL     1       0.668   9.845  20.095  0.00  0.00    +0.000 A 
ATOM     11  N   UNL     1       0.476  10.527  21.236  0.00  0.00    +0.000 NA
ATOM     12  C   UNL     1      -0.617  11.312  21.271  0.00  0.00    +0.000 A 
ATOM     13  C   UNL     1      -1.482  11.441  20.214  0.00  0.00    +0.000 A 
ATOM     14  S   UNL     1      -2.782  12.564  20.311  0.00  0.00    +0.000 S 
ATOM     15  O   UNL     1      -2.209  13.882  20.133  0.00  0.00    +0.000 OA
ATOM     16  O   UNL     1      -3.515  12.239  21.516  0.00  0.00    +0.000 OA
ENDROOT
BRANCH   1  17
ATOM     17  C   UNL     1      -5.140  12.853  19.081  0.00  0.00    +0.000 C 
BRANCH  17  24
ATOM     18  C   UNL     1      -6.841  13.724  21.484  0.00  0.00    +0.000 C 
ATOM     19  C   UNL     1      -6.925  12.351  20.871  0.00  0.00    +0.000 A 
ATOM     20  C   UNL     1      -7.763  11.414  21.508  0.00  0.00    +0.000 A 
ATOM     21  C   UNL     1      -7.916  10.122  21.010  0.00  0.00    +0.000 A 
ATOM     22  C   UNL     1      -7.238   9.743  19.864  0.00  0.00    +0.000 A 
ATOM     23  C   UNL     1      -6.380  10.644  19.244  0.00  0.00    +0.000 A 
ATOM     24  C   UNL     1      -6.182  11.951  19.737  0.00  0.00    +0.000 A 
ENDBRANCH  17  24
ENDBRANCH   1  17
BRANCH  10  25
ATOM     25  S   UNL     1       2.160   8.896  19.936  0.00  0.00    +0.000 S 
BRANCH  25  26
ATOM     26  C   UNL     1       1.825   8.055  18.354  0.00  0.00    +0.000 C 
BRANCH  26  27
ATOM     27  C   UNL     1       2.635   6.777  18.184  0.00  0.00    +0.000 C 
ATOM     28  O   UNL     1       3.737   6.732  17.629  0.00  0.00    +0.000 OA
BRANCH  27  29
ATOM     29  C   UNL     1       2.082   5.506  18.748  0.00  0.00    +0.000 A 
ATOM     30  C   UNL     1       1.945   5.283  20.123  0.00  0.00    +0.000 A 
ATOM     31  C   UNL     1       1.466   4.055  20.591  0.00  0.00    +0.000 A 
ATOM     32  C   UNL     1       1.117   3.048  19.692  0.00  0.00    +0.000 A 
ATOM     33  C   UNL     1       1.234   3.267  18.322  0.00  0.00    +0.000 A 
ATOM     34  C   UNL     1       1.710   4.492  17.852  0.00  0.00    +0.000 A 
ENDBRANCH  27  29
ENDBRANCH  26  27
ENDBRANCH  25  26
ENDBRANCH  10  25
TORSDOF 6
ENDMDL
MODEL 4
REMARK VINA RESULT:      -8.0      2.052      3.094
REMARK  Name = 
REMARK  7 active torsions:
REMARK  status: ('A' for Active; 'I' for Inactive)
REMARK    1  A    between atoms: C_1  and  C_2
REMARK    2  A    between atoms: C_7  and  C_8
REMARK    3  A    between atoms: C_8  and  N_9
REMARK    4  A    between atoms: C_18  and  S_19
REMARK    5  A    between atoms: S_19  and  C_20
REMARK    6  A    between atoms: C_20  and  C_21
REMARK    7  A    between atoms: C_21  and  C_23
REMARK                            x       y       z     vdW  Elec       q    Type
REMARK                         _______ _______ _______ _____ _____    ______ ____
ROOT
ATOM      1  N   UNL     1      -0.537  11.632  19.945  0.00  0.00    +0.000 N 
ATOM      2  C   UNL     1      -0.547  10.773  21.112  0.00  0.00    +0.000 A 
ATOM      3  C   UNL     1      -1.247  11.188  22.261  0.00  0.00    +0.000 A 
ATOM      4  C   UNL     1      -1.095  10.541  23.486  0.00  0.00    +0.000 A 
ATOM      5  C   UNL     1      -0.253   9.448  23.582  0.00  0.00    +0.000 A 
ATOM      6  C   UNL     1       0.399   8.980  22.441  0.00  0.00    +0.000 A 
ATOM      7  C   UNL     1       0.267   9.616  21.183  0.00  0.00    +0.000 A 
ATOM      8  C   UNL     1       1.017   9.100  20.019  0.00  0.00    +0.000 A 
ATOM      9  N   UNL     1       1.714   7.946  20.203  0.00  0.00    +0.000 NA
ATOM     10  C   UNL     1       2.450   7.475  19.176  0.00  0.00    +0.000 A 
ATOM     11  N   UNL     1       2.542   8.064  17.972  0.00  0.00    +0.000 NA
ATOM     12  C   UNL     1       1.830   9.195  17.818  0.00  0.00    +0.000 A 
ATOM     13  C   UNL     1       1.036   9.722  18.805  0.00  0.00    +0.000 A 
ATOM     14  S   UNL     1       0.068  11.105  18.471  0.00  0.00    +0.000 S 
ATOM     15  O   UNL     1      -1.052  10.648  17.675  0.00  0.00    +0.000 OA
ATOM     16  O   UNL     1       0.965  12.120  17.961  0.00  0.00    +0.000 OA
ENDROOT
BRANCH   1  17
ATOM     17  C   UNL     1      -1.088  13.017  19.943  0.00  0.00    +0.000 C 
BRANCH  17  24
ATOM     18  C   UNL     1      -2.364  14.855  22.044  0.00  0.00    +0.000 C 
ATOM     19  C   UNL     1      -3.162  13.916  21.178  0.00  0.00    +0.000 A 
ATOM     20  C   UNL     1      -4.546  13.831  21.430  0.00  0.00    +0.000 A 
ATOM     21  C   UNL     1      -5.371  13.001  20.674  0.00  0.00    +0.000 A 
ATOM     22  C   UNL     1      -4.830  12.243  19.650  0.00  0.00    +0.000 A 
ATOM     23  C   UNL     1      -3.460  12.288  19.412  0.00  0.00    +0.000 A 
ATOM     24  C   UNL     1      -2.594  13.098  20.175  0.00  0.00    +0.000 A 
ENDBRANCH  17  24
ENDBRANCH   1  17
BRANCH  10  25
ATOM     25  S   UNL     1       3.258   5.910  19.400  0.00  0.00    +0.000 S 
BRANCH  25  26
ATOM     26  C   UNL     1       3.284   5.325  17.674  0.00  0.00    +0.000 C 
BRANCH  26  27
ATOM     27  C   UNL     1       4.645   4.786  17.256  0.00  0.00    +0.000 C 
ATOM     28  O   UNL     1       4.800   3.772  16.569  0.00  0.00    +0.000 OA
BRANCH  27  29
ATOM     29  C   UNL     1       5.867   5.541  17.676  0.00  0.00    +0.000 A 
ATOM     30  C   UNL     1       6.733   5.085  18.676  0.00  0.00    +0.000 A 
ATOM     31  C   UNL     1       7.834   5.859  19.058  0.00  0.00    +0.000 A 
ATOM     32  C   UNL     1       8.078   7.087  18.443  0.00  0.00    +0.000 A 
ATOM     33  C   UNL     1       7.231   7.540  17.435  0.00  0.00    +0.000 A 
ATOM     34  C   UNL     1       6.133   6.769  17.050  0.00  0.00    +0.000 A 
ENDBRANCH  27  29
ENDBRANCH  26  27
ENDBRANCH  25  26
ENDBRANCH  10  25
TORSDOF 6
ENDMDL
MODEL 5
REMARK VINA RESULT:      -8.0      1.277      1.539
REMARK  Name = 
REMARK  7 active torsions:
REMARK  status: ('A' for Active; 'I' for Inactive)
REMARK    1  A    between atoms: C_1  and  C_2
REMARK    2  A    between atoms: C_7  and  C_8
REMARK    3  A    between atoms: C_8  and  N_9
REMARK    4  A    between atoms: C_18  and  S_19
REMARK    5  A    between atoms: S_19  and  C_20
REMARK    6  A    between atoms: C_20  and  C_21
REMARK    7  A    between atoms: C_21  and  C_23
REMARK                            x       y       z     vdW  Elec       q    Type
REMARK                         _______ _______ _______ _____ _____    ______ ____
ROOT
ATOM      1  N   UNL     1      -0.200  11.812  19.913  0.00  0.00    +0.000 N 
ATOM      2  C   UNL     1      -0.359  10.936  21.056  0.00  0.00    +0.000 A 
ATOM      3  C   UNL     1      -1.076  11.396  22.177  0.00  0.00    +0.000 A 
ATOM      4  C   UNL     1      -1.055  10.713  23.391  0.00  0.00    +0.000 A 
ATOM      5  C   UNL     1      -0.332   9.539  23.504  0.00  0.00    +0.000 A 
ATOM      6  C   UNL     1       0.331   9.030  22.387  0.00  0.00    +0.000 A 
ATOM      7  C   UNL     1       0.331   9.702  21.140  0.00  0.00    +0.000 A 
ATOM      8  C   UNL     1       1.089   9.136  20.005  0.00  0.00    +0.000 A 
ATOM      9  N   UNL     1       1.657   7.914  20.195  0.00  0.00    +0.000 NA
ATOM     10  C   UNL     1       2.397   7.393  19.196  0.00  0.00    +0.000 A 
ATOM     11  N   UNL     1       2.612   7.993  18.014  0.00  0.00    +0.000 NA
ATOM     12  C   UNL     1       2.025   9.193  17.851  0.00  0.00    +0.000 A 
ATOM     13  C   UNL     1       1.235   9.777  18.809  0.00  0.00    +0.000 A 
ATOM     14  S   UNL     1       0.429  11.256  18.459  0.00  0.00    +0.000 S 
ATOM     15  O   UNL     1      -0.686  10.929  17.595  0.00  0.00    +0.000 OA
ATOM     16  O   UNL     1       1.448  12.186  18.022  0.00  0.00    +0.000 OA
ENDROOT
BRANCH   1  17
ATOM     17  C   UNL     1      -0.611  13.245  19.916  0.00  0.00    +0.000 C 
BRANCH  17  24
ATOM     18  C   UNL     1      -0.459  16.094  18.784  0.00  0.00    +0.000 C 
ATOM     19  C   UNL     1       0.588  15.515  19.698  0.00  0.00    +0.000 A 
ATOM     20  C   UNL     1       1.726  16.307  19.954  0.00  0.00    +0.000 A 
ATOM     21  C   UNL     1       2.743  15.864  20.796  0.00  0.00    +0.000 A 
ATOM     22  C   UNL     1       2.642  14.623  21.401  0.00  0.00    +0.000 A 
ATOM     23  C   UNL     1       1.544  13.815  21.131  0.00  0.00    +0.000 A 
ATOM     24  C   UNL     1       0.509  14.222  20.264  0.00  0.00    +0.000 A 
ENDBRANCH  17  24
ENDBRANCH   1  17
BRANCH  10  25
ATOM     25  S   UNL     1       3.032   5.750  19.423  0.00  0.00    +0.000 S 
BRANCH  25  26
ATOM     26  C   UNL     1       3.191   5.237  17.682  0.00  0.00    +0.000 C 
BRANCH  26  27
ATOM     27  C   UNL     1       4.567   4.672  17.358  0.00  0.00    +0.000 C 
ATOM     28  O   UNL     1       4.749   3.597  16.777  0.00  0.00    +0.000 OA
BRANCH  27  29
ATOM     29  C   UNL     1       5.771   5.477  17.736  0.00  0.00    +0.000 A 
ATOM     30  C   UNL     1       6.627   5.112  18.781  0.00  0.00    +0.000 A 
ATOM     31  C   UNL     1       7.711   5.930  19.119  0.00  0.00    +0.000 A 
ATOM     32  C   UNL     1       7.947   7.110  18.414  0.00  0.00    +0.000 A 
ATOM     33  C   UNL     1       7.110   7.471  17.362  0.00  0.00    +0.000 A 
ATOM     34  C   UNL     1       6.029   6.657  17.022  0.00  0.00    +0.000 A 
ENDBRANCH  27  29
ENDBRANCH  26  27
ENDBRANCH  25  26
ENDBRANCH  10  25
TORSDOF 6
ENDMDL
MODEL 6
REMARK VINA RESULT:      -8.0      3.697      5.643
REMARK  Name = 
REMARK  7 active torsions:
REMARK  status: ('A' for Active; 'I' for Inactive)
REMARK    1  A    between atoms: C_1  and  C_2
REMARK    2  A    between atoms: C_7  and  C_8
REMARK    3  A    between atoms: C_8  and  N_9
REMARK    4  A    between atoms: C_18  and  S_19
REMARK    5  A    between atoms: S_19  and  C_20
REMARK    6  A    between atoms: C_20  and  C_21
REMARK    7  A    between atoms: C_21  and  C_23
REMARK                            x       y       z     vdW  Elec       q    Type
REMARK                         _______ _______ _______ _____ _____    ______ ____
ROOT
ATOM      1  N   UNL     1      -3.564  12.561  20.536  0.00  0.00    +0.000 N 
ATOM      2  C   UNL     1      -3.698  12.133  19.159  0.00  0.00    +0.000 A 
ATOM      3  C   UNL     1      -4.907  12.378  18.480  0.00  0.00    +0.000 A 
ATOM      4  C   UNL     1      -5.193  11.781  17.254  0.00  0.00    +0.000 A 
ATOM      5  C   UNL     1      -4.264  10.940  16.668  0.00  0.00    +0.000 A 
ATOM      6  C   UNL     1      -3.032  10.737  17.292  0.00  0.00    +0.000 A 
ATOM      7  C   UNL     1      -2.712  11.327  18.538  0.00  0.00    +0.000 A 
ATOM      8  C   UNL     1      -1.408  11.039  19.171  0.00  0.00    +0.000 A 
ATOM      9  N   UNL     1      -0.525  10.301  18.444  0.00  0.00    +0.000 NA
ATOM     10  C   UNL     1       0.654   9.978  19.012  0.00  0.00    +0.000 A 
ATOM     11  N   UNL     1       1.027  10.339  20.252  0.00  0.00    +0.000 NA
ATOM     12  C   UNL     1       0.138  11.079  20.938  0.00  0.00    +0.000 A 
ATOM     13  C   UNL     1      -1.070  11.472  20.420  0.00  0.00    +0.000 A 
ATOM     14  S   UNL     1      -2.086  12.521  21.330  0.00  0.00    +0.000 S 
ATOM     15  O   UNL     1      -1.504  13.844  21.243  0.00  0.00    +0.000 OA
ATOM     16  O   UNL     1      -2.280  11.888  22.617  0.00  0.00    +0.000 OA
ENDROOT
BRANCH   1  17
ATOM     17  C   UNL     1      -4.697  13.102  21.340  0.00  0.00    +0.000 C 
BRANCH  17  24
ATOM     18  C   UNL     1      -4.198  14.454  24.050  0.00  0.00    +0.000 C 
ATOM     19  C   UNL     1      -4.489  15.223  22.787  0.00  0.00    +0.000 A 
ATOM     20  C   UNL     1      -4.625  16.621  22.904  0.00  0.00    +0.000 A 
ATOM     21  C   UNL     1      -4.881  17.420  21.792  0.00  0.00    +0.000 A 
ATOM     22  C   UNL     1      -5.004  16.837  20.542  0.00  0.00    +0.000 A 
ATOM     23  C   UNL     1      -4.909  15.456  20.416  0.00  0.00    +0.000 A 
ATOM     24  C   UNL     1      -4.675  14.616  21.524  0.00  0.00    +0.000 A 
ENDBRANCH  17  24
ENDBRANCH   1  17
BRANCH  10  25
ATOM     25  S   UNL     1       1.836   9.115  18.007  0.00  0.00    +0.000 S 
BRANCH  25  26
ATOM     26  C   UNL     1       2.287   7.767  19.147  0.00  0.00    +0.000 C 
BRANCH  26  27
ATOM     27  C   UNL     1       2.682   6.489  18.421  0.00  0.00    +0.000 C 
ATOM     28  O   UNL     1       3.493   6.452  17.490  0.00  0.00    +0.000 OA
BRANCH  27  29
ATOM     29  C   UNL     1       2.080   5.198  18.877  0.00  0.00    +0.000 A 
ATOM     30  C   UNL     1       1.629   4.993  20.187  0.00  0.00    +0.000 A 
ATOM     31  C   UNL     1       1.118   3.747  20.567  0.00  0.00    +0.000 A 
ATOM     32  C   UNL     1       1.052   2.704  19.644  0.00  0.00    +0.000 A 
ATOM     33  C   UNL     1       1.482   2.904  18.335  0.00  0.00    +0.000 A 
ATOM     34  C   UNL     1       1.990   4.146  17.952  0.00  0.00    +0.000 A 
ENDBRANCH  27  29
ENDBRANCH  26  27
ENDBRANCH  25  26
ENDBRANCH  10  25
TORSDOF 6
ENDMDL
MODEL 7
REMARK VINA RESULT:      -8.0      3.637      5.540
REMARK  Name = 
REMARK  7 active torsions:
REMARK  status: ('A' for Active; 'I' for Inactive)
REMARK    1  A    between atoms: C_1  and  C_2
REMARK    2  A    between atoms: C_7  and  C_8
REMARK    3  A    between atoms: C_8  and  N_9
REMARK    4  A    between atoms: C_18  and  S_19
REMARK    5  A    between atoms: S_19  and  C_20
REMARK    6  A    between atoms: C_20  and  C_21
REMARK    7  A    between atoms: C_21  and  C_23
REMARK                            x       y       z     vdW  Elec       q    Type
REMARK                         _______ _______ _______ _____ _____    ______ ____
ROOT
ATOM      1  N   UNL     1      -2.814  13.336  20.135  0.00  0.00    +0.000 N 
ATOM      2  C   UNL     1      -3.304  12.331  19.215  0.00  0.00    +0.000 A 
ATOM      3  C   UNL     1      -4.684  12.266  18.943  0.00  0.00    +0.000 A 
ATOM      4  C   UNL     1      -5.249  11.182  18.272  0.00  0.00    +0.000 A 
ATOM      5  C   UNL     1      -4.440  10.148  17.839  0.00  0.00    +0.000 A 
ATOM      6  C   UNL     1      -3.061  10.225  18.039  0.00  0.00    +0.000 A 
ATOM      7  C   UNL     1      -2.457  11.310  18.718  0.00  0.00    +0.000 A 
ATOM      8  C   UNL     1      -0.996  11.314  18.939  0.00  0.00    +0.000 A 
ATOM      9  N   UNL     1      -0.287  10.308  18.358  0.00  0.00    +0.000 NA
ATOM     10  C   UNL     1       1.042  10.254  18.581  0.00  0.00    +0.000 A 
ATOM     11  N   UNL     1       1.724  11.130  19.337  0.00  0.00    +0.000 NA
ATOM     12  C   UNL     1       0.997  12.121  19.885  0.00  0.00    +0.000 A 
ATOM     13  C   UNL     1      -0.354  12.260  19.682  0.00  0.00    +0.000 A 
ATOM     14  S   UNL     1      -1.173  13.629  20.325  0.00  0.00    +0.000 S 
ATOM     15  O   UNL     1      -0.828  14.756  19.483  0.00  0.00    +0.000 OA
ATOM     16  O   UNL     1      -0.879  13.656  21.742  0.00  0.00    +0.000 OA
ENDROOT
BRANCH   1  17
ATOM     17  C   UNL     1      -3.710  14.207  20.950  0.00  0.00    +0.000 C 
BRANCH  17  24
ATOM     18  C   UNL     1      -6.748  13.897  21.260  0.00  0.00    +0.000 C 
ATOM     19  C   UNL     1      -5.762  13.414  22.290  0.00  0.00    +0.000 A 
ATOM     20  C   UNL     1      -6.290  12.882  23.484  0.00  0.00    +0.000 A 
ATOM     21  C   UNL     1      -5.459  12.397  24.492  0.00  0.00    +0.000 A 
ATOM     22  C   UNL     1      -4.086  12.431  24.325  0.00  0.00    +0.000 A 
ATOM     23  C   UNL     1      -3.548  12.985  23.168  0.00  0.00    +0.000 A 
ATOM     24  C   UNL     1      -4.360  13.508  22.140  0.00  0.00    +0.000 A 
ENDBRANCH  17  24
ENDBRANCH   1  17
BRANCH  10  25
ATOM     25  S   UNL     1       1.964   9.003  17.723  0.00  0.00    +0.000 S 
BRANCH  25  26
ATOM     26  C   UNL     1       2.277   7.849  19.099  0.00  0.00    +0.000 C 
BRANCH  26  27
ATOM     27  C   UNL     1       2.913   6.545  18.640  0.00  0.00    +0.000 C 
ATOM     28  O   UNL     1       3.977   6.482  18.016  0.00  0.00    +0.000 OA
BRANCH  27  29
ATOM     29  C   UNL     1       2.229   5.260  18.988  0.00  0.00    +0.000 A 
ATOM     30  C   UNL     1       1.816   4.336  18.021  0.00  0.00    +0.000 A 
ATOM     31  C   UNL     1       1.138   3.174  18.405  0.00  0.00    +0.000 A 
ATOM     32  C   UNL     1       0.873   2.928  19.752  0.00  0.00    +0.000 A 
ATOM     33  C   UNL     1       1.295   3.833  20.721  0.00  0.00    +0.000 A 
ATOM     34  C   UNL     1       1.973   4.993  20.342  0.00  0.00    +0.000 A 
ENDBRANCH  27  29
ENDBRANCH  26  27
ENDBRANCH  25  26
ENDBRANCH  10  25
TORSDOF 6
ENDMDL
MODEL 8
REMARK VINA RESULT:      -7.9      3.822      5.707
REMARK  Name = 
REMARK  7 active torsions:
REMARK  status: ('A' for Active; 'I' for Inactive)
REMARK    1  A    between atoms: C_1  and  C_2
REMARK    2  A    between atoms: C_7  and  C_8
REMARK    3  A    between atoms: C_8  and  N_9
REMARK    4  A    between atoms: C_18  and  S_19
REMARK    5  A    between atoms: S_19  and  C_20
REMARK    6  A    between atoms: C_20  and  C_21
REMARK    7  A    between atoms: C_21  and  C_23
REMARK                            x       y       z     vdW  Elec       q    Type
REMARK                         _______ _______ _______ _____ _____    ______ ____
ROOT
ATOM      1  N   UNL     1      -3.474  12.500  20.353  0.00  0.00    +0.000 N 
ATOM      2  C   UNL     1      -3.591  12.034  18.987  0.00  0.00    +0.000 A 
ATOM      3  C   UNL     1      -4.792  12.259  18.287  0.00  0.00    +0.000 A 
ATOM      4  C   UNL     1      -5.063  11.628  17.074  0.00  0.00    +0.000 A 
ATOM      5  C   UNL     1      -4.125  10.773  16.522  0.00  0.00    +0.000 A 
ATOM      6  C   UNL     1      -2.901  10.590  17.166  0.00  0.00    +0.000 A 
ATOM      7  C   UNL     1      -2.596  11.214  18.400  0.00  0.00    +0.000 A 
ATOM      8  C   UNL     1      -1.300  10.945  19.056  0.00  0.00    +0.000 A 
ATOM      9  N   UNL     1      -0.406  10.190  18.360  0.00  0.00    +0.000 NA
ATOM     10  C   UNL     1       0.766   9.885  18.951  0.00  0.00    +0.000 A 
ATOM     11  N   UNL     1       1.124  10.279  20.184  0.00  0.00    +0.000 NA
ATOM     12  C   UNL     1       0.225  11.037  20.840  0.00  0.00    +0.000 A 
ATOM     13  C   UNL     1      -0.977  11.413  20.296  0.00  0.00    +0.000 A 
ATOM     14  S   UNL     1      -2.005  12.484  21.165  0.00  0.00    +0.000 S 
ATOM     15  O   UNL     1      -1.425  13.805  21.049  0.00  0.00    +0.000 OA
ATOM     16  O   UNL     1      -2.214  11.886  22.467  0.00  0.00    +0.000 OA
ENDROOT
BRANCH   1  17
ATOM     17  C   UNL     1      -4.618  13.060  21.128  0.00  0.00    +0.000 C 
BRANCH  17  24
ATOM     18  C   UNL     1      -7.430  13.794  20.138  0.00  0.00    +0.000 C 
ATOM     19  C   UNL     1      -6.304  14.790  20.232  0.00  0.00    +0.000 A 
ATOM     20  C   UNL     1      -6.556  16.090  19.748  0.00  0.00    +0.000 A 
ATOM     21  C   UNL     1      -5.582  17.085  19.803  0.00  0.00    +0.000 A 
ATOM     22  C   UNL     1      -4.340  16.801  20.345  0.00  0.00    +0.000 A 
ATOM     23  C   UNL     1      -4.064  15.514  20.793  0.00  0.00    +0.000 A 
ATOM     24  C   UNL     1      -5.018  14.478  20.729  0.00  0.00    +0.000 A 
ENDBRANCH  17  24
ENDBRANCH   1  17
BRANCH  10  25
ATOM     25  S   UNL     1       1.961   8.996  17.984  0.00  0.00    +0.000 S 
BRANCH  25  26
ATOM     26  C   UNL     1       2.343   7.637  19.135  0.00  0.00    +0.000 C 
BRANCH  26  27
ATOM     27  C   UNL     1       2.764   6.361  18.420  0.00  0.00    +0.000 C 
ATOM     28  O   UNL     1       3.613   6.324  17.524  0.00  0.00    +0.000 OA
BRANCH  27  29
ATOM     29  C   UNL     1       2.138   5.070  18.845  0.00  0.00    +0.000 A 
ATOM     30  C   UNL     1       1.935   4.001  17.964  0.00  0.00    +0.000 A 
ATOM     31  C   UNL     1       1.301   2.836  18.409  0.00  0.00    +0.000 A 
ATOM     32  C   UNL     1       0.872   2.730  19.732  0.00  0.00    +0.000 A 
ATOM     33  C   UNL     1       1.086   3.781  20.619  0.00  0.00    +0.000 A 
ATOM     34  C   UNL     1       1.719   4.945  20.179  0.00  0.00    +0.000 A 
ENDBRANCH  27  29
ENDBRANCH  26  27
ENDBRANCH  25  26
ENDBRANCH  10  25
TORSDOF 6
ENDMDL
MODEL 9
REMARK VINA RESULT:      -7.9      2.762      4.004
REMARK  Name = 
REMARK  7 active torsions:
REMARK  status: ('A' for Active; 'I' for Inactive)
REMARK    1  A    between atoms: C_1  and  C_2
REMARK    2  A    between atoms: C_7  and  C_8
REMARK    3  A    between atoms: C_8  and  N_9
REMARK    4  A    between atoms: C_18  and  S_19
REMARK    5  A    between atoms: S_19  and  C_20
REMARK    6  A    between atoms: C_20  and  C_21
REMARK    7  A    between atoms: C_21  and  C_23
REMARK                            x       y       z     vdW  Elec       q    Type
REMARK                         _______ _______ _______ _____ _____    ______ ____
ROOT
ATOM      1  N   UNL     1      -0.572  12.065  20.200  0.00  0.00    +0.000 N 
ATOM      2  C   UNL     1      -0.528  11.019  21.201  0.00  0.00    +0.000 A 
ATOM      3  C   UNL     1      -1.167  11.228  22.438  0.00  0.00    +0.000 A 
ATOM      4  C   UNL     1      -0.957  10.380  23.524  0.00  0.00    +0.000 A 
ATOM      5  C   UNL     1      -0.117   9.289  23.388  0.00  0.00    +0.000 A 
ATOM      6  C   UNL     1       0.473   9.026  22.151  0.00  0.00    +0.000 A 
ATOM      7  C   UNL     1       0.281   9.870  21.030  0.00  0.00    +0.000 A 
ATOM      8  C   UNL     1       0.969   9.564  19.759  0.00  0.00    +0.000 A 
ATOM      9  N   UNL     1       1.668   8.397  19.705  0.00  0.00    +0.000 NA
ATOM     10  C   UNL     1       2.348   8.112  18.576  0.00  0.00    +0.000 A 
ATOM     11  N   UNL     1       2.382   8.900  17.489  0.00  0.00    +0.000 NA
ATOM     12  C   UNL     1       1.670  10.039  17.567  0.00  0.00    +0.000 A 
ATOM     13  C   UNL     1       0.930  10.386  18.670  0.00  0.00    +0.000 A 
ATOM     14  S   UNL     1      -0.046  11.802  18.628  0.00  0.00    +0.000 S 
ATOM     15  O   UNL     1      -1.207  11.485  17.823  0.00  0.00    +0.000 OA
ATOM     16  O   UNL     1       0.830  12.892  18.255  0.00  0.00    +0.000 OA
ENDROOT
BRANCH   1  17
ATOM     17  C   UNL     1      -1.115  13.429  20.464  0.00  0.00    +0.000 C 
BRANCH  17  24
ATOM     18  C   UNL     1      -2.245  14.971  22.865  0.00  0.00    +0.000 C 
ATOM     19  C   UNL     1      -3.099  14.139  21.945  0.00  0.00    +0.000 A 
ATOM     20  C   UNL     1      -4.462  14.006  22.281  0.00  0.00    +0.000 A 
ATOM     21  C   UNL     1      -5.336  13.267  21.485  0.00  0.00    +0.000 A 
ATOM     22  C   UNL     1      -4.865  12.652  20.338  0.00  0.00    +0.000 A 
ATOM     23  C   UNL     1      -3.517  12.744  20.013  0.00  0.00    +0.000 A 
ATOM     24  C   UNL     1      -2.601  13.461  20.810  0.00  0.00    +0.000 A 
ENDBRANCH  17  24
ENDBRANCH   1  17
BRANCH  10  25
ATOM     25  S   UNL     1       3.157   6.535  18.486  0.00  0.00    +0.000 S 
BRANCH  25  26
ATOM     26  C   UNL     1       1.833   5.551  17.711  0.00  0.00    +0.000 C 
BRANCH  26  27
ATOM     27  C   UNL     1       2.063   4.052  17.839  0.00  0.00    +0.000 C 
ATOM     28  O   UNL     1       2.225   3.297  16.876  0.00  0.00    +0.000 OA
BRANCH  27  29
ATOM     29  C   UNL     1       2.126   3.458  19.212  0.00  0.00    +0.000 A 
ATOM     30  C   UNL     1       1.032   3.450  20.085  0.00  0.00    +0.000 A 
ATOM     31  C   UNL     1       1.167   2.923  21.374  0.00  0.00    +0.000 A 
ATOM     32  C   UNL     1       2.389   2.400  21.795  0.00  0.00    +0.000 A 
ATOM     33  C   UNL     1       3.477   2.389  20.928  0.00  0.00    +0.000 A 
ATOM     34  C   UNL     1       3.346   2.913  19.641  0.00  0.00    +0.000 A 
ENDBRANCH  27  29
ENDBRANCH  26  27
ENDBRANCH  25  26
ENDBRANCH  10  25
TORSDOF 6
ENDMDL
