MODEL 1
REMARK VINA RESULT:      -6.9      0.000      0.000
REMARK  Name = 
REMARK  8 active torsions:
REMARK  status: ('A' for Active; 'I' for Inactive)
REMARK    1  A    between atoms: CB_1  and  CA_2
REMARK    2  A    between atoms: CA_2  and  N_3
REMARK    3  A    between atoms: CA_2  and  C_16
REMARK    4  A    between atoms: C_4  and  C_6
REMARK    5  A    between atoms: C_6  and  N_7
REMARK    6  A    between atoms: C_6  and  C_8
REMARK    7  A    between atoms: C_8  and  C_9
REMARK    8  A    between atoms: C_16  and  OXT_18
REMARK                            x       y       z     vdW  Elec       q    Type
REMARK                         _______ _______ _______ _____ _____    ______ ____
ROOT
ATOM      1  C   UNK A   1       6.497   4.269  16.604  0.00  0.00    +0.000 C 
ENDROOT
BRANCH   1   3
ATOM      2  N   ALA A   2       6.544   3.908  14.233  0.00  0.00    +0.000 N 
ATOM      3  C   UNK A   1       6.373   4.867  15.208  0.00  0.00    +0.000 C 
ATOM      4  O   UNK A   1       6.021   6.018  14.986  0.00  0.00    +0.000 OA
ATOM      5  H   ALA A   2       6.353   2.947  14.475  0.00  0.00    +0.000 HD
BRANCH   2   7
ATOM      6  CB  ALA A   2       7.734   4.903  12.412  0.00  0.00    +0.000 C 
ATOM      7  CA  ALA A   2       6.432   4.239  12.845  0.00  0.00    +0.000 C 
BRANCH   7   8
ATOM      8  C   ALA A   2       5.729   3.063  12.105  0.00  0.00    +0.000 C 
ATOM      9  O   ALA A   2       4.575   3.103  11.695  0.00  0.00    +0.000 OA
BRANCH   8  10
ATOM     10  OXT ALA A   2       6.530   2.016  11.793  0.00  0.00    +0.000 OA
ATOM     11  HXT ALA A   2       7.227   1.914  12.481  0.00  0.00    +0.000 HD
ENDBRANCH   8  10
ENDBRANCH   7   8
ENDBRANCH   2   7
ENDBRANCH   1   3
BRANCH   1  12
ATOM     12  N   UNK A   1       7.939   4.220  16.933  0.00  0.00    +0.000 NA
ATOM     13  H   UNK A   1       8.119   4.681  17.820  0.00  0.00    +0.000 HD
ATOM     14  H   UNK A   1       8.431   4.776  16.227  0.00  0.00    +0.000 HD
ENDBRANCH   1  12
BRANCH   1  15
ATOM     15  C   UNK A   1       5.653   5.123  17.578  0.00  0.00    +0.000 C 
BRANCH  15  16
ATOM     16  C   UNK A   1       4.219   4.725  17.671  0.00  0.00    +0.000 A 
ATOM     17  C   UNK A   1       3.258   5.687  17.950  0.00  0.00    +0.000 A 
ATOM     18  C   UNK A   1       1.921   5.305  18.066  0.00  0.00    +0.000 A 
ATOM     19  C   UNK A   1       1.553   3.969  17.898  0.00  0.00    +0.000 A 
ATOM     20  C   UNK A   1       2.529   3.024  17.610  0.00  0.00    +0.000 A 
ATOM     21  F   UNK A   1       2.186   1.741  17.452  0.00  0.00    +0.000 F 
ATOM     22  C   UNK A   1       3.861   3.379  17.490  0.00  0.00    +0.000 A 
ENDBRANCH  15  16
ENDBRANCH   1  15
TORSDOF 7
ENDMDL
MODEL 2
REMARK VINA RESULT:      -6.9      3.285      5.808
REMARK  Name = 
REMARK  8 active torsions:
REMARK  status: ('A' for Active; 'I' for Inactive)
REMARK    1  A    between atoms: CB_1  and  CA_2
REMARK    2  A    between atoms: CA_2  and  N_3
REMARK    3  A    between atoms: CA_2  and  C_16
REMARK    4  A    between atoms: C_4  and  C_6
REMARK    5  A    between atoms: C_6  and  N_7
REMARK    6  A    between atoms: C_6  and  C_8
REMARK    7  A    between atoms: C_8  and  C_9
REMARK    8  A    between atoms: C_16  and  OXT_18
REMARK                            x       y       z     vdW  Elec       q    Type
REMARK                         _______ _______ _______ _____ _____    ______ ____
ROOT
ATOM      1  C   UNK A   1       6.759   5.199  17.030  0.00  0.00    +0.000 C 
ENDROOT
BRANCH   1   3
ATOM      2  N   ALA A   2       4.731   4.282  17.926  0.00  0.00    +0.000 N 
ATOM      3  C   UNK A   1       5.957   4.814  18.266  0.00  0.00    +0.000 C 
ATOM      4  O   UNK A   1       6.403   4.836  19.406  0.00  0.00    +0.000 OA
ATOM      5  H   ALA A   2       4.635   3.863  17.013  0.00  0.00    +0.000 HD
BRANCH   2   7
ATOM      6  CB  ALA A   2       2.474   4.483  18.691  0.00  0.00    +0.000 C 
ATOM      7  CA  ALA A   2       3.824   3.816  18.929  0.00  0.00    +0.000 C 
BRANCH   7   8
ATOM      8  C   ALA A   2       4.052   2.291  19.141  0.00  0.00    +0.000 C 
ATOM      9  O   ALA A   2       3.440   1.416  18.541  0.00  0.00    +0.000 OA
BRANCH   8  10
ATOM     10  OXT ALA A   2       5.101   1.969  19.936  0.00  0.00    +0.000 OA
ATOM     11  HXT ALA A   2       5.430   1.071  19.704  0.00  0.00    +0.000 HD
ENDBRANCH   8  10
ENDBRANCH   7   8
ENDBRANCH   2   7
ENDBRANCH   1   3
BRANCH   1  12
ATOM     12  N   UNK A   1       7.763   4.134  16.811  0.00  0.00    +0.000 NA
ATOM     13  H   UNK A   1       7.486   3.279  17.285  0.00  0.00    +0.000 HD
ATOM     14  H   UNK A   1       8.630   4.435  17.266  0.00  0.00    +0.000 HD
ENDBRANCH   1  12
BRANCH   1  15
ATOM     15  C   UNK A   1       5.778   5.398  15.852  0.00  0.00    +0.000 C 
BRANCH  15  16
ATOM     16  C   UNK A   1       6.283   4.917  14.535  0.00  0.00    +0.000 A 
ATOM     17  C   UNK A   1       7.408   5.509  13.975  0.00  0.00    +0.000 A 
ATOM     18  C   UNK A   1       7.860   5.077  12.728  0.00  0.00    +0.000 A 
ATOM     19  C   UNK A   1       7.192   4.054  12.052  0.00  0.00    +0.000 A 
ATOM     20  C   UNK A   1       6.075   3.468  12.634  0.00  0.00    +0.000 A 
ATOM     21  F   UNK A   1       5.427   2.491  11.992  0.00  0.00    +0.000 F 
ATOM     22  C   UNK A   1       5.608   3.881  13.870  0.00  0.00    +0.000 A 
ENDBRANCH  15  16
ENDBRANCH   1  15
TORSDOF 7
ENDMDL
MODEL 3
REMARK VINA RESULT:      -6.8      3.402      4.451
REMARK  Name = 
REMARK  8 active torsions:
REMARK  status: ('A' for Active; 'I' for Inactive)
REMARK    1  A    between atoms: CB_1  and  CA_2
REMARK    2  A    between atoms: CA_2  and  N_3
REMARK    3  A    between atoms: CA_2  and  C_16
REMARK    4  A    between atoms: C_4  and  C_6
REMARK    5  A    between atoms: C_6  and  N_7
REMARK    6  A    between atoms: C_6  and  C_8
REMARK    7  A    between atoms: C_8  and  C_9
REMARK    8  A    between atoms: C_16  and  OXT_18
REMARK                            x       y       z     vdW  Elec       q    Type
REMARK                         _______ _______ _______ _____ _____    ______ ____
ROOT
ATOM      1  C   UNK A   1       3.335   6.780  18.192  0.00  0.00    +0.000 C 
ENDROOT
BRANCH   1   3
ATOM      2  N   ALA A   2       5.676   6.268  18.079  0.00  0.00    +0.000 N 
ATOM      3  C   UNK A   1       4.610   6.764  17.360  0.00  0.00    +0.000 C 
ATOM      4  O   UNK A   1       4.649   7.018  16.162  0.00  0.00    +0.000 OA
ATOM      5  H   ALA A   2       5.477   5.655  18.856  0.00  0.00    +0.000 HD
BRANCH   2   7
ATOM      6  CB  ALA A   2       7.944   7.004  18.258  0.00  0.00    +0.000 C 
ATOM      7  CA  ALA A   2       6.968   6.127  17.483  0.00  0.00    +0.000 C 
BRANCH   7   8
ATOM      8  C   ALA A   2       7.192   4.629  17.122  0.00  0.00    +0.000 C 
ATOM      9  O   ALA A   2       6.557   4.028  16.264  0.00  0.00    +0.000 OA
BRANCH   8  10
ATOM     10  OXT ALA A   2       8.262   4.046  17.714  0.00  0.00    +0.000 OA
ATOM     11  HXT ALA A   2       8.861   3.675  17.027  0.00  0.00    +0.000 HD
ENDBRANCH   8  10
ENDBRANCH   7   8
ENDBRANCH   2   7
ENDBRANCH   1   3
BRANCH   1  12
ATOM     12  N   UNK A   1       2.759   8.139  18.084  0.00  0.00    +0.000 NA
ATOM     13  H   UNK A   1       3.272   8.691  17.402  0.00  0.00    +0.000 HD
ATOM     14  H   UNK A   1       2.907   8.605  18.985  0.00  0.00    +0.000 HD
ENDBRANCH   1  12
BRANCH   1  15
ATOM     15  C   UNK A   1       2.404   5.655  17.683  0.00  0.00    +0.000 C 
BRANCH  15  16
ATOM     16  C   UNK A   1       2.038   4.640  18.712  0.00  0.00    +0.000 A 
ATOM     17  C   UNK A   1       1.292   3.529  18.342  0.00  0.00    +0.000 A 
ATOM     18  C   UNK A   1       0.925   2.596  19.313  0.00  0.00    +0.000 A 
ATOM     19  C   UNK A   1       1.308   2.777  20.643  0.00  0.00    +0.000 A 
ATOM     20  C   UNK A   1       2.062   3.890  20.991  0.00  0.00    +0.000 A 
ATOM     21  F   UNK A   1       2.430   4.073  22.263  0.00  0.00    +0.000 F 
ATOM     22  C   UNK A   1       2.438   4.828  20.044  0.00  0.00    +0.000 A 
ENDBRANCH  15  16
ENDBRANCH   1  15
TORSDOF 7
ENDMDL
MODEL 4
REMARK VINA RESULT:      -6.8      3.894      6.263
REMARK  Name = 
REMARK  8 active torsions:
REMARK  status: ('A' for Active; 'I' for Inactive)
REMARK    1  A    between atoms: CB_1  and  CA_2
REMARK    2  A    between atoms: CA_2  and  N_3
REMARK    3  A    between atoms: CA_2  and  C_16
REMARK    4  A    between atoms: C_4  and  C_6
REMARK    5  A    between atoms: C_6  and  N_7
REMARK    6  A    between atoms: C_6  and  C_8
REMARK    7  A    between atoms: C_8  and  C_9
REMARK    8  A    between atoms: C_16  and  OXT_18
REMARK                            x       y       z     vdW  Elec       q    Type
REMARK                         _______ _______ _______ _____ _____    ______ ____
ROOT
ATOM      1  C   UNK A   1       6.671   4.846  16.978  0.00  0.00    +0.000 C 
ENDROOT
BRANCH   1   3
ATOM      2  N   ALA A   2       4.704   4.240  18.211  0.00  0.00    +0.000 N 
ATOM      3  C   UNK A   1       5.985   4.735  18.334  0.00  0.00    +0.000 C 
ATOM      4  O   UNK A   1       6.550   4.920  19.404  0.00  0.00    +0.000 OA
ATOM      5  H   ALA A   2       4.489   3.680  17.400  0.00  0.00    +0.000 HD
BRANCH   2   7
ATOM      6  CB  ALA A   2       2.708   4.983  19.299  0.00  0.00    +0.000 C 
ATOM      7  CA  ALA A   2       3.885   4.017  19.362  0.00  0.00    +0.000 C 
BRANCH   7   8
ATOM      8  C   ALA A   2       3.782   2.485  19.614  0.00  0.00    +0.000 C 
ATOM      9  O   ALA A   2       2.800   1.808  19.333  0.00  0.00    +0.000 OA
BRANCH   8  10
ATOM     10  OXT ALA A   2       4.926   1.890  20.033  0.00  0.00    +0.000 OA
ATOM     11  HXT ALA A   2       5.587   1.890  19.303  0.00  0.00    +0.000 HD
ENDBRANCH   8  10
ENDBRANCH   7   8
ENDBRANCH   2   7
ENDBRANCH   1   3
BRANCH   1  12
ATOM     12  N   UNK A   1       7.968   4.142  17.086  0.00  0.00    +0.000 NA
ATOM     13  H   UNK A   1       8.268   3.804  16.175  0.00  0.00    +0.000 HD
ATOM     14  H   UNK A   1       7.813   3.304  17.655  0.00  0.00    +0.000 HD
ENDBRANCH   1  12
BRANCH   1  15
ATOM     15  C   UNK A   1       5.723   4.270  15.902  0.00  0.00    +0.000 C 
BRANCH  15  16
ATOM     16  C   UNK A   1       6.259   4.322  14.511  0.00  0.00    +0.000 A 
ATOM     17  C   UNK A   1       5.733   3.476  13.543  0.00  0.00    +0.000 A 
ATOM     18  C   UNK A   1       6.257   3.506  12.250  0.00  0.00    +0.000 A 
ATOM     19  C   UNK A   1       7.297   4.382  11.932  0.00  0.00    +0.000 A 
ATOM     20  C   UNK A   1       7.802   5.226  12.912  0.00  0.00    +0.000 A 
ATOM     21  F   UNK A   1       8.800   6.065  12.617  0.00  0.00    +0.000 F 
ATOM     22  C   UNK A   1       7.297   5.214  14.202  0.00  0.00    +0.000 A 
ENDBRANCH  15  16
ENDBRANCH   1  15
TORSDOF 7
ENDMDL
MODEL 5
REMARK VINA RESULT:      -6.8      2.947      4.038
REMARK  Name = 
REMARK  8 active torsions:
REMARK  status: ('A' for Active; 'I' for Inactive)
REMARK    1  A    between atoms: CB_1  and  CA_2
REMARK    2  A    between atoms: CA_2  and  N_3
REMARK    3  A    between atoms: CA_2  and  C_16
REMARK    4  A    between atoms: C_4  and  C_6
REMARK    5  A    between atoms: C_6  and  N_7
REMARK    6  A    between atoms: C_6  and  C_8
REMARK    7  A    between atoms: C_8  and  C_9
REMARK    8  A    between atoms: C_16  and  OXT_18
REMARK                            x       y       z     vdW  Elec       q    Type
REMARK                         _______ _______ _______ _____ _____    ______ ____
ROOT
ATOM      1  C   UNK A   1       3.627   6.376  18.206  0.00  0.00    +0.000 C 
ENDROOT
BRANCH   1   3
ATOM      2  N   ALA A   2       4.933   5.379  16.458  0.00  0.00    +0.000 N 
ATOM      3  C   UNK A   1       4.673   5.341  17.811  0.00  0.00    +0.000 C 
ATOM      4  O   UNK A   1       5.307   4.668  18.614  0.00  0.00    +0.000 OA
ATOM      5  H   ALA A   2       4.747   6.239  15.965  0.00  0.00    +0.000 HD
BRANCH   2   7
ATOM      6  CB  ALA A   2       5.479   4.218  14.439  0.00  0.00    +0.000 C 
ATOM      7  CA  ALA A   2       5.912   4.517  15.870  0.00  0.00    +0.000 C 
BRANCH   7   8
ATOM      8  C   ALA A   2       7.328   4.999  16.302  0.00  0.00    +0.000 C 
ATOM      9  O   ALA A   2       7.763   6.125  16.091  0.00  0.00    +0.000 OA
BRANCH   8  10
ATOM     10  OXT ALA A   2       8.020   4.134  17.081  0.00  0.00    +0.000 OA
ATOM     11  HXT ALA A   2       8.984   4.316  17.005  0.00  0.00    +0.000 HD
ENDBRANCH   8  10
ENDBRANCH   7   8
ENDBRANCH   2   7
ENDBRANCH   1   3
BRANCH   1  12
ATOM     12  N   UNK A   1       3.881   7.586  17.394  0.00  0.00    +0.000 NA
ATOM     13  H   UNK A   1       3.018   8.099  17.237  0.00  0.00    +0.000 HD
ATOM     14  H   UNK A   1       4.190   7.273  16.469  0.00  0.00    +0.000 HD
ENDBRANCH   1  12
BRANCH   1  15
ATOM     15  C   UNK A   1       2.225   5.757  18.001  0.00  0.00    +0.000 C 
BRANCH  15  16
ATOM     16  C   UNK A   1       1.941   4.567  18.852  0.00  0.00    +0.000 A 
ATOM     17  C   UNK A   1       1.445   3.409  18.268  0.00  0.00    +0.000 A 
ATOM     18  C   UNK A   1       1.151   2.307  19.072  0.00  0.00    +0.000 A 
ATOM     19  C   UNK A   1       1.361   2.366  20.451  0.00  0.00    +0.000 A 
ATOM     20  C   UNK A   1       1.868   3.530  21.015  0.00  0.00    +0.000 A 
ATOM     21  F   UNK A   1       2.068   3.597  22.335  0.00  0.00    +0.000 F 
ATOM     22  C   UNK A   1       2.166   4.635  20.236  0.00  0.00    +0.000 A 
ENDBRANCH  15  16
ENDBRANCH   1  15
TORSDOF 7
ENDMDL
MODEL 6
REMARK VINA RESULT:      -6.7      1.021      1.438
REMARK  Name = 
REMARK  8 active torsions:
REMARK  status: ('A' for Active; 'I' for Inactive)
REMARK    1  A    between atoms: CB_1  and  CA_2
REMARK    2  A    between atoms: CA_2  and  N_3
REMARK    3  A    between atoms: CA_2  and  C_16
REMARK    4  A    between atoms: C_4  and  C_6
REMARK    5  A    between atoms: C_6  and  N_7
REMARK    6  A    between atoms: C_6  and  C_8
REMARK    7  A    between atoms: C_8  and  C_9
REMARK    8  A    between atoms: C_16  and  OXT_18
REMARK                            x       y       z     vdW  Elec       q    Type
REMARK                         _______ _______ _______ _____ _____    ______ ____
ROOT
ATOM      1  C   UNK A   1       6.523   4.196  16.882  0.00  0.00    +0.000 C 
ENDROOT
BRANCH   1   3
ATOM      2  N   ALA A   2       6.667   4.007  14.495  0.00  0.00    +0.000 N 
ATOM      3  C   UNK A   1       6.372   4.873  15.526  0.00  0.00    +0.000 C 
ATOM      4  O   UNK A   1       5.906   5.994  15.369  0.00  0.00    +0.000 OA
ATOM      5  H   ALA A   2       6.573   3.017  14.667  0.00  0.00    +0.000 HD
BRANCH   2   7
ATOM      6  CB  ALA A   2       7.865   5.092  12.732  0.00  0.00    +0.000 C 
ATOM      7  CA  ALA A   2       6.556   4.419  13.130  0.00  0.00    +0.000 C 
BRANCH   7   8
ATOM      8  C   ALA A   2       5.836   3.298  12.325  0.00  0.00    +0.000 C 
ATOM      9  O   ALA A   2       4.676   3.368  11.938  0.00  0.00    +0.000 OA
BRANCH   8  10
ATOM     10  OXT ALA A   2       6.629   2.273  11.928  0.00  0.00    +0.000 OA
ATOM     11  HXT ALA A   2       7.505   2.339  12.372  0.00  0.00    +0.000 HD
ENDBRANCH   8  10
ENDBRANCH   7   8
ENDBRANCH   2   7
ENDBRANCH   1   3
BRANCH   1  12
ATOM     12  N   UNK A   1       7.953   4.276  17.254  0.00  0.00    +0.000 NA
ATOM     13  H   UNK A   1       8.353   5.159  16.949  0.00  0.00    +0.000 HD
ATOM     14  H   UNK A   1       8.447   3.550  16.724  0.00  0.00    +0.000 HD
ENDBRANCH   1  12
BRANCH   1  15
ATOM     15  C   UNK A   1       5.568   4.887  17.883  0.00  0.00    +0.000 C 
BRANCH  15  16
ATOM     16  C   UNK A   1       4.270   4.184  18.088  0.00  0.00    +0.000 A 
ATOM     17  C   UNK A   1       4.242   2.988  18.792  0.00  0.00    +0.000 A 
ATOM     18  C   UNK A   1       3.030   2.317  18.956  0.00  0.00    +0.000 A 
ATOM     19  C   UNK A   1       1.854   2.847  18.422  0.00  0.00    +0.000 A 
ATOM     20  C   UNK A   1       1.901   4.050  17.729  0.00  0.00    +0.000 A 
ATOM     21  F   UNK A   1       0.781   4.563  17.211  0.00  0.00    +0.000 F 
ATOM     22  C   UNK A   1       3.093   4.733  17.554  0.00  0.00    +0.000 A 
ENDBRANCH  15  16
ENDBRANCH   1  15
TORSDOF 7
ENDMDL
MODEL 7
REMARK VINA RESULT:      -6.7      2.747      4.636
REMARK  Name = 
REMARK  8 active torsions:
REMARK  status: ('A' for Active; 'I' for Inactive)
REMARK    1  A    between atoms: CB_1  and  CA_2
REMARK    2  A    between atoms: CA_2  and  N_3
REMARK    3  A    between atoms: CA_2  and  C_16
REMARK    4  A    between atoms: C_4  and  C_6
REMARK    5  A    between atoms: C_6  and  N_7
REMARK    6  A    between atoms: C_6  and  C_8
REMARK    7  A    between atoms: C_8  and  C_9
REMARK    8  A    between atoms: C_16  and  OXT_18
REMARK                            x       y       z     vdW  Elec       q    Type
REMARK                         _______ _______ _______ _____ _____    ______ ____
ROOT
ATOM      1  C   UNK A   1       5.424   4.615  15.496  0.00  0.00    +0.000 C 
ENDROOT
BRANCH   1   3
ATOM      2  N   ALA A   2       6.515   5.837  17.249  0.00  0.00    +0.000 N 
ATOM      3  C   UNK A   1       6.734   5.031  16.154  0.00  0.00    +0.000 C 
ATOM      4  O   UNK A   1       7.830   4.585  15.838  0.00  0.00    +0.000 OA
ATOM      5  H   ALA A   2       5.623   5.767  17.717  0.00  0.00    +0.000 HD
BRANCH   2   7
ATOM      6  CB  ALA A   2       7.783   7.802  17.750  0.00  0.00    +0.000 C 
ATOM      7  CA  ALA A   2       7.603   6.317  18.043  0.00  0.00    +0.000 C 
BRANCH   7   8
ATOM      8  C   ALA A   2       7.507   5.683  19.462  0.00  0.00    +0.000 C 
ATOM      9  O   ALA A   2       6.463   5.282  19.964  0.00  0.00    +0.000 OA
BRANCH   8  10
ATOM     10  OXT ALA A   2       8.693   5.450  20.072  0.00  0.00    +0.000 OA
ATOM     11  HXT ALA A   2       9.303   4.991  19.450  0.00  0.00    +0.000 HD
ENDBRANCH   8  10
ENDBRANCH   7   8
ENDBRANCH   2   7
ENDBRANCH   1   3
BRANCH   1  12
ATOM     12  N   UNK A   1       5.715   4.354  14.069  0.00  0.00    +0.000 NA
ATOM     13  H   UNK A   1       6.679   4.592  13.851  0.00  0.00    +0.000 HD
ATOM     14  H   UNK A   1       5.139   4.998  13.519  0.00  0.00    +0.000 HD
ENDBRANCH   1  12
BRANCH   1  15
ATOM     15  C   UNK A   1       4.859   3.396  16.262  0.00  0.00    +0.000 C 
BRANCH  15  16
ATOM     16  C   UNK A   1       3.675   3.695  17.116  0.00  0.00    +0.000 A 
ATOM     17  C   UNK A   1       2.802   2.670  17.458  0.00  0.00    +0.000 A 
ATOM     18  C   UNK A   1       1.678   2.958  18.233  0.00  0.00    +0.000 A 
ATOM     19  C   UNK A   1       1.436   4.264  18.664  0.00  0.00    +0.000 A 
ATOM     20  C   UNK A   1       2.326   5.272  18.319  0.00  0.00    +0.000 A 
ATOM     21  F   UNK A   1       2.101   6.526  18.725  0.00  0.00    +0.000 F 
ATOM     22  C   UNK A   1       3.448   5.010  17.552  0.00  0.00    +0.000 A 
ENDBRANCH  15  16
ENDBRANCH   1  15
TORSDOF 7
ENDMDL
MODEL 8
REMARK VINA RESULT:      -6.6      3.771      4.828
REMARK  Name = 
REMARK  8 active torsions:
REMARK  status: ('A' for Active; 'I' for Inactive)
REMARK    1  A    between atoms: CB_1  and  CA_2
REMARK    2  A    between atoms: CA_2  and  N_3
REMARK    3  A    between atoms: CA_2  and  C_16
REMARK    4  A    between atoms: C_4  and  C_6
REMARK    5  A    between atoms: C_6  and  N_7
REMARK    6  A    between atoms: C_6  and  C_8
REMARK    7  A    between atoms: C_8  and  C_9
REMARK    8  A    between atoms: C_16  and  OXT_18
REMARK                            x       y       z     vdW  Elec       q    Type
REMARK                         _______ _______ _______ _____ _____    ______ ____
ROOT
ATOM      1  C   UNK A   1       3.335   6.621  18.153  0.00  0.00    +0.000 C 
ENDROOT
BRANCH   1   3
ATOM      2  N   ALA A   2       5.733   6.698  18.191  0.00  0.00    +0.000 N 
ATOM      3  C   UNK A   1       4.642   6.403  17.401  0.00  0.00    +0.000 C 
ATOM      4  O   UNK A   1       4.716   5.891  16.291  0.00  0.00    +0.000 OA
ATOM      5  H   ALA A   2       5.619   6.646  19.192  0.00  0.00    +0.000 HD
BRANCH   2   7
ATOM      6  CB  ALA A   2       7.690   7.911  17.545  0.00  0.00    +0.000 C 
ATOM      7  CA  ALA A   2       7.066   6.529  17.701  0.00  0.00    +0.000 C 
BRANCH   7   8
ATOM      8  C   ALA A   2       7.720   5.322  18.434  0.00  0.00    +0.000 C 
ATOM      9  O   ALA A   2       8.066   4.287  17.876  0.00  0.00    +0.000 OA
BRANCH   8  10
ATOM     10  OXT ALA A   2       8.038   5.538  19.733  0.00  0.00    +0.000 OA
ATOM     11  HXT ALA A   2       8.569   6.363  19.812  0.00  0.00    +0.000 HD
ENDBRANCH   8  10
ENDBRANCH   7   8
ENDBRANCH   2   7
ENDBRANCH   1   3
BRANCH   1  12
ATOM     12  N   UNK A   1       2.741   7.877  17.643  0.00  0.00    +0.000 NA
ATOM     13  H   UNK A   1       2.641   7.840  16.632  0.00  0.00    +0.000 HD
ATOM     14  H   UNK A   1       3.413   8.628  17.828  0.00  0.00    +0.000 HD
ENDBRANCH   1  12
BRANCH   1  15
ATOM     15  C   UNK A   1       2.444   5.373  17.957  0.00  0.00    +0.000 C 
BRANCH  15  16
ATOM     16  C   UNK A   1       2.458   4.415  19.099  0.00  0.00    +0.000 A 
ATOM     17  C   UNK A   1       1.368   4.356  19.957  0.00  0.00    +0.000 A 
ATOM     18  C   UNK A   1       1.397   3.480  21.042  0.00  0.00    +0.000 A 
ATOM     19  C   UNK A   1       2.510   2.666  21.261  0.00  0.00    +0.000 A 
ATOM     20  C   UNK A   1       3.586   2.733  20.385  0.00  0.00    +0.000 A 
ATOM     21  F   UNK A   1       4.658   1.960  20.589  0.00  0.00    +0.000 F 
ATOM     22  C   UNK A   1       3.579   3.594  19.302  0.00  0.00    +0.000 A 
ENDBRANCH  15  16
ENDBRANCH   1  15
TORSDOF 7
ENDMDL
MODEL 9
REMARK VINA RESULT:      -6.6      3.598      4.903
REMARK  Name = 
REMARK  8 active torsions:
REMARK  status: ('A' for Active; 'I' for Inactive)
REMARK    1  A    between atoms: CB_1  and  CA_2
REMARK    2  A    between atoms: CA_2  and  N_3
REMARK    3  A    between atoms: CA_2  and  C_16
REMARK    4  A    between atoms: C_4  and  C_6
REMARK    5  A    between atoms: C_6  and  N_7
REMARK    6  A    between atoms: C_6  and  C_8
REMARK    7  A    between atoms: C_8  and  C_9
REMARK    8  A    between atoms: C_16  and  OXT_18
REMARK                            x       y       z     vdW  Elec       q    Type
REMARK                         _______ _______ _______ _____ _____    ______ ____
ROOT
ATOM      1  C   UNK A   1       2.771   5.020  17.810  0.00  0.00    +0.000 C 
ENDROOT
BRANCH   1   3
ATOM      2  N   ALA A   2       4.790   4.905  16.519  0.00  0.00    +0.000 N 
ATOM      3  C   UNK A   1       3.864   4.148  17.203  0.00  0.00    +0.000 C 
ATOM      4  O   UNK A   1       3.983   2.949  17.422  0.00  0.00    +0.000 OA
ATOM      5  H   ALA A   2       4.894   5.875  16.779  0.00  0.00    +0.000 HD
BRANCH   2   7
ATOM      6  CB  ALA A   2       5.651   4.196  14.403  0.00  0.00    +0.000 C 
ATOM      7  CA  ALA A   2       5.927   4.298  15.898  0.00  0.00    +0.000 C 
BRANCH   7   8
ATOM      8  C   ALA A   2       7.220   4.882  16.539  0.00  0.00    +0.000 C 
ATOM      9  O   ALA A   2       8.031   4.219  17.175  0.00  0.00    +0.000 OA
BRANCH   8  10
ATOM     10  OXT ALA A   2       7.490   6.171  16.220  0.00  0.00    +0.000 OA
ATOM     11  HXT ALA A   2       6.716   6.569  15.761  0.00  0.00    +0.000 HD
ENDBRANCH   8  10
ENDBRANCH   7   8
ENDBRANCH   2   7
ENDBRANCH   1   3
BRANCH   1  12
ATOM     12  N   UNK A   1       1.946   4.147  18.674  0.00  0.00    +0.000 NA
ATOM     13  H   UNK A   1       2.085   3.170  18.432  0.00  0.00    +0.000 HD
ATOM     14  H   UNK A   1       0.964   4.349  18.462  0.00  0.00    +0.000 HD
ENDBRANCH   1  12
BRANCH   1  15
ATOM     15  C   UNK A   1       3.442   6.198  18.553  0.00  0.00    +0.000 C 
BRANCH  15  16
ATOM     16  C   UNK A   1       2.549   7.366  18.797  0.00  0.00    +0.000 A 
ATOM     17  C   UNK A   1       2.294   8.261  17.767  0.00  0.00    +0.000 A 
ATOM     18  C   UNK A   1       1.482   9.370  18.007  0.00  0.00    +0.000 A 
ATOM     19  C   UNK A   1       0.926   9.575  19.272  0.00  0.00    +0.000 A 
ATOM     20  C   UNK A   1       1.186   8.662  20.286  0.00  0.00    +0.000 A 
ATOM     21  F   UNK A   1       0.661   8.852  21.501  0.00  0.00    +0.000 F 
ATOM     22  C   UNK A   1       1.988   7.555  20.070  0.00  0.00    +0.000 A 
ENDBRANCH  15  16
ENDBRANCH   1  15
TORSDOF 7
ENDMDL
