MODEL 1
REMARK VINA RESULT:      -9.5      0.000      0.000
REMARK  Name = 
REMARK  4 active torsions:
REMARK  status: ('A' for Active; 'I' for Inactive)
REMARK    1  A    between atoms: C_1  and  N_2
REMARK    2  A    between atoms: C_13  and  N_14
REMARK    3  A    between atoms: C_15  and  C_17
REMARK    4  A    between atoms: C_17  and  N_18
REMARK                            x       y       z     vdW  Elec       q    Type
REMARK                         _______ _______ _______ _____ _____    ______ ____
ROOT
ATOM      1  N   UNL     1       0.788  10.651  18.768  0.00  0.00    +0.000 N 
ATOM      2  C   UNL     1      -0.523  11.134  18.501  0.00  0.00    +0.000 C 
ATOM      3  O   UNL     1      -1.537  10.436  18.583  0.00  0.00    +0.000 OA
ATOM      4  H   UNL     1       1.542  11.268  18.465  0.00  0.00    +0.000 HD
ENDROOT
BRANCH   1  17
ATOM      5  C   UNL     1       1.512   3.112  18.366  0.00  0.00    +0.000 C 
ATOM      6  N   UNL     1       2.883   3.523  18.591  0.00  0.00    +0.000 N 
ATOM      7  C   UNL     1       3.903   2.586  18.639  0.00  0.00    +0.000 C 
ATOM      8  O   UNL     1       3.832   1.397  18.448  0.00  0.00    +0.000 OA
ATOM      9  N   UNL     1       5.056   3.257  18.959  0.00  0.00    +0.000 N 
ATOM     10  C   UNL     1       4.814   4.576  19.144  0.00  0.00    +0.000 C 
ATOM     11  O   UNL     1       5.686   5.382  19.431  0.00  0.00    +0.000 OA
ATOM     12  C   UNL     1       3.303   4.881  18.987  0.00  0.00    +0.000 C 
ATOM     13  C   UNL     1       2.726   5.360  20.345  0.00  0.00    +0.000 C 
ATOM     14  C   UNL     1       2.141   6.719  20.040  0.00  0.00    +0.000 A 
ATOM     15  C   UNL     1       1.487   7.565  20.931  0.00  0.00    +0.000 A 
ATOM     16  C   UNL     1       1.035   8.848  20.509  0.00  0.00    +0.000 A 
ATOM     17  C   UNL     1       1.218   9.318  19.203  0.00  0.00    +0.000 A 
ATOM     18  C   UNL     1       1.871   8.411  18.301  0.00  0.00    +0.000 A 
ATOM     19  C   UNL     1       2.325   7.125  18.728  0.00  0.00    +0.000 A 
ATOM     20  C   UNL     1       3.049   6.029  17.949  0.00  0.00    +0.000 C 
ATOM     21  H   UNL     1       5.943   2.807  19.028  0.00  0.00    +0.000 HD
ENDBRANCH   1  17
BRANCH   2  22
ATOM     22  C   UNL     1      -0.695  12.708  18.061  0.00  0.00    +0.000 C 
BRANCH  22  23
ATOM     23  N   UNL     1      -0.618  13.661  19.153  0.00  0.00    +0.000 N 
ATOM     24  C   UNL     1       0.668  14.258  19.339  0.00  0.00    +0.000 A 
ATOM     25  O   UNL     1       1.715  13.878  18.798  0.00  0.00    +0.000 OA
ATOM     26  N   UNL     1       0.546  15.195  20.384  0.00  0.00    +0.000 N 
ATOM     27  C   UNL     1      -0.070  16.347  19.791  0.00  0.00    +0.000 A 
ATOM     28  N   UNL     1      -0.214  16.539  18.493  0.00  0.00    +0.000 NA
ATOM     29  C   UNL     1      -1.039  17.614  18.242  0.00  0.00    +0.000 A 
ATOM     30  C   UNL     1      -1.450  18.305  19.359  0.00  0.00    +0.000 A 
ATOM     31  S   UNL     1      -0.813  17.554  20.773  0.00  0.00    +0.000 S 
ATOM     32  C   UNL     1      -0.378  14.537  21.228  0.00  0.00    +0.000 A 
ATOM     33  C   UNL     1      -0.299  14.464  22.610  0.00  0.00    +0.000 A 
ATOM     34  C   UNL     1      -1.333  13.822  23.269  0.00  0.00    +0.000 A 
ATOM     35  C   UNL     1      -2.429  13.356  22.519  0.00  0.00    +0.000 A 
ATOM     36  C   UNL     1      -2.388  13.286  21.090  0.00  0.00    +0.000 A 
ATOM     37  C   UNL     1      -1.254  13.759  20.451  0.00  0.00    +0.000 A 
ENDBRANCH  22  23
ENDBRANCH   2  22
TORSDOF 3
ENDMDL
MODEL 2
REMARK VINA RESULT:      -9.2      2.542      3.917
REMARK  Name = 
REMARK  4 active torsions:
REMARK  status: ('A' for Active; 'I' for Inactive)
REMARK    1  A    between atoms: C_1  and  N_2
REMARK    2  A    between atoms: C_13  and  N_14
REMARK    3  A    between atoms: C_15  and  C_17
REMARK    4  A    between atoms: C_17  and  N_18
REMARK                            x       y       z     vdW  Elec       q    Type
REMARK                         _______ _______ _______ _____ _____    ______ ____
ROOT
ATOM      1  N   UNL     1       0.391   9.275  20.668  0.00  0.00    +0.000 N 
ATOM      2  C   UNL     1       0.425  10.515  21.364  0.00  0.00    +0.000 C 
ATOM      3  O   UNL     1       1.348  11.329  21.264  0.00  0.00    +0.000 OA
ATOM      4  H   UNL     1      -0.317   8.619  20.997  0.00  0.00    +0.000 HD
ENDROOT
BRANCH   1  17
ATOM      5  C   UNL     1       7.101   6.657  18.292  0.00  0.00    +0.000 C 
ATOM      6  N   UNL     1       6.209   5.597  17.866  0.00  0.00    +0.000 N 
ATOM      7  C   UNL     1       6.704   4.466  17.237  0.00  0.00    +0.000 C 
ATOM      8  O   UNL     1       7.856   4.175  17.027  0.00  0.00    +0.000 OA
ATOM      9  N   UNL     1       5.628   3.699  16.871  0.00  0.00    +0.000 N 
ATOM     10  C   UNL     1       4.464   4.302  17.214  0.00  0.00    +0.000 C 
ATOM     11  O   UNL     1       3.367   3.811  16.997  0.00  0.00    +0.000 OA
ATOM     12  C   UNL     1       4.736   5.686  17.857  0.00  0.00    +0.000 C 
ATOM     13  C   UNL     1       4.167   6.803  16.943  0.00  0.00    +0.000 C 
ATOM     14  C   UNL     1       3.202   7.553  17.833  0.00  0.00    +0.000 A 
ATOM     15  C   UNL     1       2.439   8.663  17.486  0.00  0.00    +0.000 A 
ATOM     16  C   UNL     1       1.526   9.233  18.420  0.00  0.00    +0.000 A 
ATOM     17  C   UNL     1       1.353   8.719  19.710  0.00  0.00    +0.000 A 
ATOM     18  C   UNL     1       2.175   7.591  20.047  0.00  0.00    +0.000 A 
ATOM     19  C   UNL     1       3.088   7.020  19.107  0.00  0.00    +0.000 A 
ATOM     20  C   UNL     1       4.029   5.825  19.249  0.00  0.00    +0.000 C 
ATOM     21  H   UNL     1       5.720   2.813  16.423  0.00  0.00    +0.000 HD
ENDBRANCH   1  17
BRANCH   2  22
ATOM     22  C   UNL     1      -0.834  10.884  22.354  0.00  0.00    +0.000 C 
BRANCH  22  23
ATOM     23  N   UNL     1      -1.800  11.812  21.796  0.00  0.00    +0.000 N 
ATOM     24  C   UNL     1      -2.827  12.227  22.700  0.00  0.00    +0.000 A 
ATOM     25  O   UNL     1      -3.057  11.710  23.802  0.00  0.00    +0.000 OA
ATOM     26  N   UNL     1      -3.626  13.166  22.022  0.00  0.00    +0.000 N 
ATOM     27  C   UNL     1      -2.886  14.395  22.061  0.00  0.00    +0.000 A 
ATOM     28  N   UNL     1      -1.827  14.611  22.819  0.00  0.00    +0.000 NA
ATOM     29  C   UNL     1      -1.204  15.790  22.471  0.00  0.00    +0.000 A 
ATOM     30  C   UNL     1      -1.850  16.525  21.503  0.00  0.00    +0.000 A 
ATOM     31  S   UNL     1      -3.263  15.687  20.985  0.00  0.00    +0.000 S 
ATOM     32  C   UNL     1      -3.610  12.637  20.712  0.00  0.00    +0.000 A 
ATOM     33  C   UNL     1      -4.701  12.547  19.863  0.00  0.00    +0.000 A 
ATOM     34  C   UNL     1      -4.474  12.049  18.591  0.00  0.00    +0.000 A 
ATOM     35  C   UNL     1      -3.156  11.741  18.209  0.00  0.00    +0.000 A 
ATOM     36  C   UNL     1      -2.091  11.673  19.165  0.00  0.00    +0.000 A 
ATOM     37  C   UNL     1      -2.383  11.989  20.481  0.00  0.00    +0.000 A 
ENDBRANCH  22  23
ENDBRANCH   2  22
TORSDOF 3
ENDMDL
MODEL 3
REMARK VINA RESULT:      -9.1      2.614      3.657
REMARK  Name = 
REMARK  4 active torsions:
REMARK  status: ('A' for Active; 'I' for Inactive)
REMARK    1  A    between atoms: C_1  and  N_2
REMARK    2  A    between atoms: C_13  and  N_14
REMARK    3  A    between atoms: C_15  and  C_17
REMARK    4  A    between atoms: C_17  and  N_18
REMARK                            x       y       z     vdW  Elec       q    Type
REMARK                         _______ _______ _______ _____ _____    ______ ____
ROOT
ATOM      1  N   UNL     1       1.079   9.883  20.550  0.00  0.00    +0.000 N 
ATOM      2  C   UNL     1      -0.149  10.591  20.442  0.00  0.00    +0.000 C 
ATOM      3  O   UNL     1      -1.042  10.292  19.644  0.00  0.00    +0.000 OA
ATOM      4  H   UNL     1       1.799  10.355  21.097  0.00  0.00    +0.000 HD
ENDROOT
BRANCH   1  17
ATOM      5  C   UNL     1       5.075   3.538  19.411  0.00  0.00    +0.000 C 
ATOM      6  N   UNL     1       3.732   3.093  19.101  0.00  0.00    +0.000 N 
ATOM      7  C   UNL     1       3.486   1.776  18.749  0.00  0.00    +0.000 C 
ATOM      8  O   UNL     1       4.266   0.856  18.716  0.00  0.00    +0.000 OA
ATOM      9  N   UNL     1       2.157   1.682  18.423  0.00  0.00    +0.000 N 
ATOM     10  C   UNL     1       1.547   2.887  18.524  0.00  0.00    +0.000 C 
ATOM     11  O   UNL     1       0.361   3.058  18.291  0.00  0.00    +0.000 OA
ATOM     12  C   UNL     1       2.568   3.984  18.923  0.00  0.00    +0.000 C 
ATOM     13  C   UNL     1       2.713   5.004  17.763  0.00  0.00    +0.000 C 
ATOM     14  C   UNL     1       2.361   6.332  18.393  0.00  0.00    +0.000 A 
ATOM     15  C   UNL     1       2.354   7.575  17.768  0.00  0.00    +0.000 A 
ATOM     16  C   UNL     1       1.944   8.739  18.480  0.00  0.00    +0.000 A 
ATOM     17  C   UNL     1       1.537   8.697  19.818  0.00  0.00    +0.000 A 
ATOM     18  C   UNL     1       1.582   7.404  20.443  0.00  0.00    +0.000 A 
ATOM     19  C   UNL     1       1.992   6.238  19.725  0.00  0.00    +0.000 A 
ATOM     20  C   UNL     1       2.093   4.785  20.184  0.00  0.00    +0.000 C 
ATOM     21  H   UNL     1       1.722   0.825  18.159  0.00  0.00    +0.000 HD
ENDBRANCH   1  17
BRANCH   2  22
ATOM     22  C   UNL     1      -0.394  11.876  21.438  0.00  0.00    +0.000 C 
BRANCH  22  23
ATOM     23  N   UNL     1      -1.744  12.409  21.429  0.00  0.00    +0.000 N 
ATOM     24  C   UNL     1      -1.937  13.541  20.579  0.00  0.00    +0.000 A 
ATOM     25  O   UNL     1      -1.031  14.194  20.043  0.00  0.00    +0.000 OA
ATOM     26  N   UNL     1      -3.302  13.881  20.639  0.00  0.00    +0.000 N 
ATOM     27  C   UNL     1      -3.968  12.938  19.788  0.00  0.00    +0.000 A 
ATOM     28  N   UNL     1      -3.358  12.130  18.939  0.00  0.00    +0.000 NA
ATOM     29  C   UNL     1      -4.234  11.192  18.437  0.00  0.00    +0.000 A 
ATOM     30  C   UNL     1      -5.543  11.347  18.833  0.00  0.00    +0.000 A 
ATOM     31  S   UNL     1      -5.670  12.690  19.905  0.00  0.00    +0.000 S 
ATOM     32  C   UNL     1      -3.591  13.593  21.993  0.00  0.00    +0.000 A 
ATOM     33  C   UNL     1      -4.358  14.377  22.840  0.00  0.00    +0.000 A 
ATOM     34  C   UNL     1      -4.576  13.897  24.121  0.00  0.00    +0.000 A 
ATOM     35  C   UNL     1      -4.082  12.624  24.461  0.00  0.00    +0.000 A 
ATOM     36  C   UNL     1      -3.146  11.932  23.627  0.00  0.00    +0.000 A 
ATOM     37  C   UNL     1      -2.787  12.524  22.428  0.00  0.00    +0.000 A 
ENDBRANCH  22  23
ENDBRANCH   2  22
TORSDOF 3
ENDMDL
MODEL 4
REMARK VINA RESULT:      -9.1      2.713      3.962
REMARK  Name = 
REMARK  4 active torsions:
REMARK  status: ('A' for Active; 'I' for Inactive)
REMARK    1  A    between atoms: C_1  and  N_2
REMARK    2  A    between atoms: C_13  and  N_14
REMARK    3  A    between atoms: C_15  and  C_17
REMARK    4  A    between atoms: C_17  and  N_18
REMARK                            x       y       z     vdW  Elec       q    Type
REMARK                         _______ _______ _______ _____ _____    ______ ____
ROOT
ATOM      1  N   UNL     1       0.588   7.793  21.172  0.00  0.00    +0.000 N 
ATOM      2  C   UNL     1       0.810   8.908  22.027  0.00  0.00    +0.000 C 
ATOM      3  O   UNL     1       1.922   9.226  22.458  0.00  0.00    +0.000 OA
ATOM      4  H   UNL     1      -0.391   7.527  21.061  0.00  0.00    +0.000 HD
ENDROOT
BRANCH   1  17
ATOM      5  C   UNL     1       4.776   4.530  15.756  0.00  0.00    +0.000 C 
ATOM      6  N   UNL     1       5.775   4.801  16.770  0.00  0.00    +0.000 N 
ATOM      7  C   UNL     1       7.107   4.487  16.553  0.00  0.00    +0.000 C 
ATOM      8  O   UNL     1       7.614   4.046  15.551  0.00  0.00    +0.000 OA
ATOM      9  N   UNL     1       7.785   4.766  17.712  0.00  0.00    +0.000 N 
ATOM     10  C   UNL     1       6.942   5.218  18.670  0.00  0.00    +0.000 C 
ATOM     11  O   UNL     1       7.311   5.538  19.789  0.00  0.00    +0.000 OA
ATOM     12  C   UNL     1       5.480   5.218  18.154  0.00  0.00    +0.000 C 
ATOM     13  C   UNL     1       4.643   4.196  18.968  0.00  0.00    +0.000 C 
ATOM     14  C   UNL     1       3.516   5.019  19.548  0.00  0.00    +0.000 A 
ATOM     15  C   UNL     1       2.476   4.560  20.351  0.00  0.00    +0.000 A 
ATOM     16  C   UNL     1       1.512   5.469  20.873  0.00  0.00    +0.000 A 
ATOM     17  C   UNL     1       1.555   6.843  20.611  0.00  0.00    +0.000 A 
ATOM     18  C   UNL     1       2.624   7.281  19.757  0.00  0.00    +0.000 A 
ATOM     19  C   UNL     1       3.591   6.366  19.237  0.00  0.00    +0.000 A 
ATOM     20  C   UNL     1       4.801   6.619  18.340  0.00  0.00    +0.000 C 
ATOM     21  H   UNL     1       8.771   4.650  17.805  0.00  0.00    +0.000 HD
ENDBRANCH   1  17
BRANCH   2  22
ATOM     22  C   UNL     1      -0.485   9.822  22.462  0.00  0.00    +0.000 C 
BRANCH  22  23
ATOM     23  N   UNL     1      -0.835  10.873  21.525  0.00  0.00    +0.000 N 
ATOM     24  C   UNL     1      -1.674  11.899  22.060  0.00  0.00    +0.000 A 
ATOM     25  O   UNL     1      -2.265  11.842  23.147  0.00  0.00    +0.000 OA
ATOM     26  N   UNL     1      -1.856  12.861  21.048  0.00  0.00    +0.000 N 
ATOM     27  C   UNL     1      -0.651  13.640  21.042  0.00  0.00    +0.000 A 
ATOM     28  N   UNL     1       0.274  13.602  21.984  0.00  0.00    +0.000 NA
ATOM     29  C   UNL     1       1.407  14.281  21.590  0.00  0.00    +0.000 A 
ATOM     30  C   UNL     1       1.308  14.922  20.377  0.00  0.00    +0.000 A 
ATOM     31  S   UNL     1      -0.245  14.628  19.690  0.00  0.00    +0.000 S 
ATOM     32  C   UNL     1      -1.900  12.037  19.900  0.00  0.00    +0.000 A 
ATOM     33  C   UNL     1      -2.782  12.174  18.841  0.00  0.00    +0.000 A 
ATOM     34  C   UNL     1      -2.633  11.302  17.776  0.00  0.00    +0.000 A 
ATOM     35  C   UNL     1      -1.561  10.391  17.791  0.00  0.00    +0.000 A 
ATOM     36  C   UNL     1      -0.788  10.157  18.974  0.00  0.00    +0.000 A 
ATOM     37  C   UNL     1      -1.084  10.909  20.099  0.00  0.00    +0.000 A 
ENDBRANCH  22  23
ENDBRANCH   2  22
TORSDOF 3
ENDMDL
MODEL 5
REMARK VINA RESULT:      -9.0      7.379      8.700
REMARK  Name = 
REMARK  4 active torsions:
REMARK  status: ('A' for Active; 'I' for Inactive)
REMARK    1  A    between atoms: C_1  and  N_2
REMARK    2  A    between atoms: C_13  and  N_14
REMARK    3  A    between atoms: C_15  and  C_17
REMARK    4  A    between atoms: C_17  and  N_18
REMARK                            x       y       z     vdW  Elec       q    Type
REMARK                         _______ _______ _______ _____ _____    ______ ____
ROOT
ATOM      1  N   UNL     1       8.476   9.379  17.590  0.00  0.00    +0.000 N 
ATOM      2  C   UNL     1       9.175  10.288  18.431  0.00  0.00    +0.000 C 
ATOM      3  O   UNL     1       9.252  10.164  19.656  0.00  0.00    +0.000 OA
ATOM      4  H   UNL     1       8.320   9.709  16.638  0.00  0.00    +0.000 HD
ENDROOT
BRANCH   1  17
ATOM      5  C   UNL     1       2.634   5.207  20.041  0.00  0.00    +0.000 C 
ATOM      6  N   UNL     1       2.959   4.545  18.794  0.00  0.00    +0.000 N 
ATOM      7  C   UNL     1       2.214   3.465  18.351  0.00  0.00    +0.000 C 
ATOM      8  O   UNL     1       1.223   2.989  18.850  0.00  0.00    +0.000 OA
ATOM      9  N   UNL     1       2.813   2.997  17.209  0.00  0.00    +0.000 N 
ATOM     10  C   UNL     1       3.924   3.714  16.916  0.00  0.00    +0.000 C 
ATOM     11  O   UNL     1       4.625   3.492  15.941  0.00  0.00    +0.000 OA
ATOM     12  C   UNL     1       4.180   4.791  18.001  0.00  0.00    +0.000 C 
ATOM     13  C   UNL     1       5.503   4.472  18.746  0.00  0.00    +0.000 C 
ATOM     14  C   UNL     1       6.342   5.715  18.557  0.00  0.00    +0.000 A 
ATOM     15  C   UNL     1       7.624   5.938  19.051  0.00  0.00    +0.000 A 
ATOM     16  C   UNL     1       8.317   7.144  18.742  0.00  0.00    +0.000 A 
ATOM     17  C   UNL     1       7.758   8.149  17.944  0.00  0.00    +0.000 A 
ATOM     18  C   UNL     1       6.424   7.900  17.472  0.00  0.00    +0.000 A 
ATOM     19  C   UNL     1       5.733   6.688  17.782  0.00  0.00    +0.000 A 
ATOM     20  C   UNL     1       4.338   6.219  17.373  0.00  0.00    +0.000 C 
ATOM     21  H   UNL     1       2.449   2.235  16.679  0.00  0.00    +0.000 HD
ENDBRANCH   1  17
BRANCH   2  22
ATOM     22  C   UNL     1       9.923  11.573  17.730  0.00  0.00    +0.000 C 
BRANCH  22  23
ATOM     23  N   UNL     1      10.232  12.668  18.631  0.00  0.00    +0.000 N 
ATOM     24  C   UNL     1      11.531  12.610  19.225  0.00  0.00    +0.000 A 
ATOM     25  O   UNL     1      12.287  11.629  19.190  0.00  0.00    +0.000 OA
ATOM     26  N   UNL     1      11.686  13.771  20.006  0.00  0.00    +0.000 N 
ATOM     27  C   UNL     1      11.993  14.818  19.075  0.00  0.00    +0.000 A 
ATOM     28  N   UNL     1      12.323  14.628  17.811  0.00  0.00    +0.000 NA
ATOM     29  C   UNL     1      12.333  15.820  17.120  0.00  0.00    +0.000 A 
ATOM     30  C   UNL     1      12.104  16.939  17.887  0.00  0.00    +0.000 A 
ATOM     31  S   UNL     1      11.824  16.474  19.522  0.00  0.00    +0.000 S 
ATOM     32  C   UNL     1      10.372  13.938  20.501  0.00  0.00    +0.000 A 
ATOM     33  C   UNL     1      10.037  14.284  21.801  0.00  0.00    +0.000 A 
ATOM     34  C   UNL     1       8.692  14.457  22.082  0.00  0.00    +0.000 A 
ATOM     35  C   UNL     1       7.761  14.352  21.032  0.00  0.00    +0.000 A 
ATOM     36  C   UNL     1       8.124  13.818  19.754  0.00  0.00    +0.000 A 
ATOM     37  C   UNL     1       9.448  13.465  19.553  0.00  0.00    +0.000 A 
ENDBRANCH  22  23
ENDBRANCH   2  22
TORSDOF 3
ENDMDL
MODEL 6
REMARK VINA RESULT:      -9.0      2.535      3.689
REMARK  Name = 
REMARK  4 active torsions:
REMARK  status: ('A' for Active; 'I' for Inactive)
REMARK    1  A    between atoms: C_1  and  N_2
REMARK    2  A    between atoms: C_13  and  N_14
REMARK    3  A    between atoms: C_15  and  C_17
REMARK    4  A    between atoms: C_17  and  N_18
REMARK                            x       y       z     vdW  Elec       q    Type
REMARK                         _______ _______ _______ _____ _____    ______ ____
ROOT
ATOM      1  N   UNL     1       0.879   9.743  20.778  0.00  0.00    +0.000 N 
ATOM      2  C   UNL     1      -0.113   9.776  21.796  0.00  0.00    +0.000 C 
ATOM      3  O   UNL     1      -0.732   8.779  22.179  0.00  0.00    +0.000 OA
ATOM      4  H   UNL     1       1.158  10.657  20.422  0.00  0.00    +0.000 HD
ENDROOT
BRANCH   1  17
ATOM      5  C   UNL     1       5.076   3.553  19.515  0.00  0.00    +0.000 C 
ATOM      6  N   UNL     1       3.755   3.087  19.144  0.00  0.00    +0.000 N 
ATOM      7  C   UNL     1       3.556   1.779  18.733  0.00  0.00    +0.000 C 
ATOM      8  O   UNL     1       4.361   0.882  18.688  0.00  0.00    +0.000 OA
ATOM      9  N   UNL     1       2.240   1.666  18.361  0.00  0.00    +0.000 N 
ATOM     10  C   UNL     1       1.596   2.850  18.491  0.00  0.00    +0.000 C 
ATOM     11  O   UNL     1       0.413   2.999  18.227  0.00  0.00    +0.000 OA
ATOM     12  C   UNL     1       2.574   3.954  18.965  0.00  0.00    +0.000 C 
ATOM     13  C   UNL     1       2.727   5.024  17.852  0.00  0.00    +0.000 C 
ATOM     14  C   UNL     1       2.321   6.316  18.522  0.00  0.00    +0.000 A 
ATOM     15  C   UNL     1       2.300   7.583  17.947  0.00  0.00    +0.000 A 
ATOM     16  C   UNL     1       1.837   8.706  18.692  0.00  0.00    +0.000 A 
ATOM     17  C   UNL     1       1.390   8.599  20.014  0.00  0.00    +0.000 A 
ATOM     18  C   UNL     1       1.451   7.284  20.587  0.00  0.00    +0.000 A 
ATOM     19  C   UNL     1       1.914   6.159  19.837  0.00  0.00    +0.000 A 
ATOM     20  C   UNL     1       2.039   4.691  20.241  0.00  0.00    +0.000 C 
ATOM     21  H   UNL     1       1.837   0.809  18.049  0.00  0.00    +0.000 HD
ENDBRANCH   1  17
BRANCH   2  22
ATOM     22  C   UNL     1      -0.450  11.220  22.505  0.00  0.00    +0.000 C 
BRANCH  22  23
ATOM     23  N   UNL     1      -1.485  11.997  21.850  0.00  0.00    +0.000 N 
ATOM     24  C   UNL     1      -2.655  12.226  22.639  0.00  0.00    +0.000 A 
ATOM     25  O   UNL     1      -2.917  11.654  23.706  0.00  0.00    +0.000 OA
ATOM     26  N   UNL     1      -3.516  13.043  21.882  0.00  0.00    +0.000 N 
ATOM     27  C   UNL     1      -2.989  14.371  22.009  0.00  0.00    +0.000 A 
ATOM     28  N   UNL     1      -2.064  14.734  22.879  0.00  0.00    +0.000 NA
ATOM     29  C   UNL     1      -1.602  16.004  22.607  0.00  0.00    +0.000 A 
ATOM     30  C   UNL     1      -2.249  16.650  21.579  0.00  0.00    +0.000 A 
ATOM     31  S   UNL     1      -3.448  15.613  20.904  0.00  0.00    +0.000 S 
ATOM     32  C   UNL     1      -3.276  12.553  20.578  0.00  0.00    +0.000 A 
ATOM     33  C   UNL     1      -4.242  12.313  19.615  0.00  0.00    +0.000 A 
ATOM     34  C   UNL     1      -3.804  11.885  18.373  0.00  0.00    +0.000 A 
ATOM     35  C   UNL     1      -2.420  11.796  18.136  0.00  0.00    +0.000 A 
ATOM     36  C   UNL     1      -1.467  11.874  19.202  0.00  0.00    +0.000 A 
ATOM     37  C   UNL     1      -1.944  12.111  20.480  0.00  0.00    +0.000 A 
ENDBRANCH  22  23
ENDBRANCH   2  22
TORSDOF 3
ENDMDL
MODEL 7
REMARK VINA RESULT:      -9.0      1.105      1.107
REMARK  Name = 
REMARK  4 active torsions:
REMARK  status: ('A' for Active; 'I' for Inactive)
REMARK    1  A    between atoms: C_1  and  N_2
REMARK    2  A    between atoms: C_13  and  N_14
REMARK    3  A    between atoms: C_15  and  C_17
REMARK    4  A    between atoms: C_17  and  N_18
REMARK                            x       y       z     vdW  Elec       q    Type
REMARK                         _______ _______ _______ _____ _____    ______ ____
ROOT
ATOM      1  N   UNL     1       1.108  10.733  18.595  0.00  0.00    +0.000 N 
ATOM      2  C   UNL     1       1.176  11.971  19.292  0.00  0.00    +0.000 C 
ATOM      3  O   UNL     1       1.523  12.072  20.472  0.00  0.00    +0.000 OA
ATOM      4  H   UNL     1       0.615  10.770  17.703  0.00  0.00    +0.000 HD
ENDROOT
BRANCH   1  17
ATOM      5  C   UNL     1       1.552   3.170  18.229  0.00  0.00    +0.000 C 
ATOM      6  N   UNL     1       2.911   3.523  18.584  0.00  0.00    +0.000 N 
ATOM      7  C   UNL     1       3.882   2.544  18.725  0.00  0.00    +0.000 C 
ATOM      8  O   UNL     1       3.780   1.359  18.522  0.00  0.00    +0.000 OA
ATOM      9  N   UNL     1       5.027   3.165  19.155  0.00  0.00    +0.000 N 
ATOM     10  C   UNL     1       4.824   4.494  19.323  0.00  0.00    +0.000 C 
ATOM     11  O   UNL     1       5.698   5.262  19.694  0.00  0.00    +0.000 OA
ATOM     12  C   UNL     1       3.348   4.862  19.025  0.00  0.00    +0.000 C 
ATOM     13  C   UNL     1       2.666   5.364  20.324  0.00  0.00    +0.000 C 
ATOM     14  C   UNL     1       2.169   6.747  19.972  0.00  0.00    +0.000 A 
ATOM     15  C   UNL     1       1.470   7.618  20.801  0.00  0.00    +0.000 A 
ATOM     16  C   UNL     1       1.114   8.920  20.344  0.00  0.00    +0.000 A 
ATOM     17  C   UNL     1       1.439   9.382  19.064  0.00  0.00    +0.000 A 
ATOM     18  C   UNL     1       2.136   8.449  18.223  0.00  0.00    +0.000 A 
ATOM     19  C   UNL     1       2.494   7.145  18.685  0.00  0.00    +0.000 A 
ATOM     20  C   UNL     1       3.242   6.020  17.973  0.00  0.00    +0.000 C 
ATOM     21  H   UNL     1       5.884   2.679  19.306  0.00  0.00    +0.000 HD
ENDBRANCH   1  17
BRANCH   2  22
ATOM     22  C   UNL     1       0.773  13.341  18.479  0.00  0.00    +0.000 C 
BRANCH  22  23
ATOM     23  N   UNL     1       0.224  14.402  19.302  0.00  0.00    +0.000 N 
ATOM     24  C   UNL     1       1.180  15.359  19.766  0.00  0.00    +0.000 A 
ATOM     25  O   UNL     1       2.410  15.230  19.695  0.00  0.00    +0.000 OA
ATOM     26  N   UNL     1       0.472  16.343  20.484  0.00  0.00    +0.000 N 
ATOM     27  C   UNL     1      -0.117  17.190  19.488  0.00  0.00    +0.000 A 
ATOM     28  N   UNL     1       0.197  17.174  18.205  0.00  0.00    +0.000 NA
ATOM     29  C   UNL     1      -0.691  17.930  17.471  0.00  0.00    +0.000 A 
ATOM     30  C   UNL     1      -1.632  18.607  18.214  0.00  0.00    +0.000 A 
ATOM     31  S   UNL     1      -1.419  18.247  19.885  0.00  0.00    +0.000 S 
ATOM     32  C   UNL     1      -0.529  15.558  21.099  0.00  0.00    +0.000 A 
ATOM     33  C   UNL     1      -0.958  15.680  22.411  0.00  0.00    +0.000 A 
ATOM     34  C   UNL     1      -1.994  14.855  22.817  0.00  0.00    +0.000 A 
ATOM     35  C   UNL     1      -2.597  14.008  21.869  0.00  0.00    +0.000 A 
ATOM     36  C   UNL     1      -2.011  13.779  20.583  0.00  0.00    +0.000 A 
ATOM     37  C   UNL     1      -0.856  14.473  20.266  0.00  0.00    +0.000 A 
ENDBRANCH  22  23
ENDBRANCH   2  22
TORSDOF 3
ENDMDL
MODEL 8
REMARK VINA RESULT:      -8.9      1.255      1.629
REMARK  Name = 
REMARK  4 active torsions:
REMARK  status: ('A' for Active; 'I' for Inactive)
REMARK    1  A    between atoms: C_1  and  N_2
REMARK    2  A    between atoms: C_13  and  N_14
REMARK    3  A    between atoms: C_15  and  C_17
REMARK    4  A    between atoms: C_17  and  N_18
REMARK                            x       y       z     vdW  Elec       q    Type
REMARK                         _______ _______ _______ _____ _____    ______ ____
ROOT
ATOM      1  N   UNL     1       0.746  10.654  19.650  0.00  0.00    +0.000 N 
ATOM      2  C   UNL     1      -0.487  11.170  19.166  0.00  0.00    +0.000 C 
ATOM      3  O   UNL     1      -1.436  10.460  18.821  0.00  0.00    +0.000 OA
ATOM      4  H   UNL     1       1.504  11.335  19.701  0.00  0.00    +0.000 HD
ENDROOT
BRANCH   1  17
ATOM      5  C   UNL     1       1.506   3.296  17.977  0.00  0.00    +0.000 C 
ATOM      6  N   UNL     1       2.860   3.647  18.356  0.00  0.00    +0.000 N 
ATOM      7  C   UNL     1       3.876   2.708  18.303  0.00  0.00    +0.000 C 
ATOM      8  O   UNL     1       3.819   1.571  17.902  0.00  0.00    +0.000 OA
ATOM      9  N   UNL     1       5.006   3.300  18.807  0.00  0.00    +0.000 N 
ATOM     10  C   UNL     1       4.750   4.569  19.205  0.00  0.00    +0.000 C 
ATOM     11  O   UNL     1       5.601   5.304  19.683  0.00  0.00    +0.000 OA
ATOM     12  C   UNL     1       3.251   4.911  19.010  0.00  0.00    +0.000 C 
ATOM     13  C   UNL     1       2.589   5.150  20.392  0.00  0.00    +0.000 C 
ATOM     14  C   UNL     1       2.022   6.547  20.294  0.00  0.00    +0.000 A 
ATOM     15  C   UNL     1       1.311   7.230  21.277  0.00  0.00    +0.000 A 
ATOM     16  C   UNL     1       0.885   8.572  21.060  0.00  0.00    +0.000 A 
ATOM     17  C   UNL     1       1.150   9.261  19.871  0.00  0.00    +0.000 A 
ATOM     18  C   UNL     1       1.860   8.520  18.866  0.00  0.00    +0.000 A 
ATOM     19  C   UNL     1       2.288   7.175  19.088  0.00  0.00    +0.000 A 
ATOM     20  C   UNL     1       3.062   6.226  18.176  0.00  0.00    +0.000 C 
ATOM     21  H   UNL     1       5.887   2.837  18.852  0.00  0.00    +0.000 HD
ENDBRANCH   1  17
BRANCH   2  22
ATOM     22  C   UNL     1      -0.659  12.802  19.063  0.00  0.00    +0.000 C 
BRANCH  22  23
ATOM     23  N   UNL     1      -1.267  13.428  20.222  0.00  0.00    +0.000 N 
ATOM     24  C   UNL     1      -0.371  13.676  21.309  0.00  0.00    +0.000 A 
ATOM     25  O   UNL     1       0.777  13.222  21.404  0.00  0.00    +0.000 OA
ATOM     26  N   UNL     1      -1.104  14.341  22.311  0.00  0.00    +0.000 N 
ATOM     27  C   UNL     1      -1.193  15.705  21.875  0.00  0.00    +0.000 A 
ATOM     28  N   UNL     1      -0.488  16.227  20.888  0.00  0.00    +0.000 NA
ATOM     29  C   UNL     1      -0.956  17.481  20.558  0.00  0.00    +0.000 A 
ATOM     30  C   UNL     1      -1.964  17.957  21.365  0.00  0.00    +0.000 A 
ATOM     31  S   UNL     1      -2.366  16.773  22.551  0.00  0.00    +0.000 S 
ATOM     32  C   UNL     1      -2.364  13.713  22.183  0.00  0.00    +0.000 A 
ATOM     33  C   UNL     1      -3.169  13.298  23.232  0.00  0.00    +0.000 A 
ATOM     34  C   UNL     1      -4.400  12.752  22.907  0.00  0.00    +0.000 A 
ATOM     35  C   UNL     1      -4.792  12.721  21.556  0.00  0.00    +0.000 A 
ATOM     36  C   UNL     1      -3.865  12.987  20.497  0.00  0.00    +0.000 A 
ATOM     37  C   UNL     1      -2.574  13.346  20.842  0.00  0.00    +0.000 A 
ENDBRANCH  22  23
ENDBRANCH   2  22
TORSDOF 3
ENDMDL
MODEL 9
REMARK VINA RESULT:      -8.9      2.536      3.712
REMARK  Name = 
REMARK  4 active torsions:
REMARK  status: ('A' for Active; 'I' for Inactive)
REMARK    1  A    between atoms: C_1  and  N_2
REMARK    2  A    between atoms: C_13  and  N_14
REMARK    3  A    between atoms: C_15  and  C_17
REMARK    4  A    between atoms: C_17  and  N_18
REMARK                            x       y       z     vdW  Elec       q    Type
REMARK                         _______ _______ _______ _____ _____    ______ ____
ROOT
ATOM      1  N   UNL     1       1.036  10.050  20.019  0.00  0.00    +0.000 N 
ATOM      2  C   UNL     1       1.000  10.422  21.391  0.00  0.00    +0.000 C 
ATOM      3  O   UNL     1       1.402   9.697  22.306  0.00  0.00    +0.000 OA
ATOM      4  H   UNL     1       0.490  10.648  19.398  0.00  0.00    +0.000 HD
ENDROOT
BRANCH   1  17
ATOM      5  C   UNL     1       5.167   3.705  19.566  0.00  0.00    +0.000 C 
ATOM      6  N   UNL     1       3.849   3.217  19.214  0.00  0.00    +0.000 N 
ATOM      7  C   UNL     1       3.640   1.875  18.945  0.00  0.00    +0.000 C 
ATOM      8  O   UNL     1       4.431   0.967  19.022  0.00  0.00    +0.000 OA
ATOM      9  N   UNL     1       2.332   1.737  18.553  0.00  0.00    +0.000 N 
ATOM     10  C   UNL     1       1.703   2.936  18.533  0.00  0.00    +0.000 C 
ATOM     11  O   UNL     1       0.530   3.070  18.223  0.00  0.00    +0.000 OA
ATOM     12  C   UNL     1       2.687   4.074  18.908  0.00  0.00    +0.000 C 
ATOM     13  C   UNL     1       2.884   5.011  17.687  0.00  0.00    +0.000 C 
ATOM     14  C   UNL     1       2.481   6.375  18.198  0.00  0.00    +0.000 A 
ATOM     15  C   UNL     1       2.495   7.570  17.485  0.00  0.00    +0.000 A 
ATOM     16  C   UNL     1       2.031   8.775  18.088  0.00  0.00    +0.000 A 
ATOM     17  C   UNL     1       1.549   8.822  19.401  0.00  0.00    +0.000 A 
ATOM     18  C   UNL     1       1.575   7.578  20.119  0.00  0.00    +0.000 A 
ATOM     19  C   UNL     1       2.039   6.370  19.511  0.00  0.00    +0.000 A 
ATOM     20  C   UNL     1       2.131   4.956  20.079  0.00  0.00    +0.000 C 
ATOM     21  H   UNL     1       1.924   0.856  18.328  0.00  0.00    +0.000 HD
ENDBRANCH   1  17
BRANCH   2  22
ATOM     22  C   UNL     1       0.393  11.899  21.778  0.00  0.00    +0.000 C 
BRANCH  22  23
ATOM     23  N   UNL     1      -0.869  12.229  21.142  0.00  0.00    +0.000 N 
ATOM     24  C   UNL     1      -0.759  13.073  19.993  0.00  0.00    +0.000 A 
ATOM     25  O   UNL     1       0.264  13.683  19.651  0.00  0.00    +0.000 OA
ATOM     26  N   UNL     1      -2.056  13.234  19.467  0.00  0.00    +0.000 N 
ATOM     27  C   UNL     1      -2.324  12.026  18.741  0.00  0.00    +0.000 A 
ATOM     28  N   UNL     1      -1.418  11.117  18.431  0.00  0.00    +0.000 NA
ATOM     29  C   UNL     1      -2.013   9.975  17.940  0.00  0.00    +0.000 A 
ATOM     30  C   UNL     1      -3.378  10.051  17.786  0.00  0.00    +0.000 A 
ATOM     31  S   UNL     1      -3.937  11.593  18.313  0.00  0.00    +0.000 S 
ATOM     32  C   UNL     1      -2.825  13.262  20.653  0.00  0.00    +0.000 A 
ATOM     33  C   UNL     1      -3.876  14.127  20.914  0.00  0.00    +0.000 A 
ATOM     34  C   UNL     1      -4.547  13.963  22.114  0.00  0.00    +0.000 A 
ATOM     35  C   UNL     1      -4.182  12.895  22.954  0.00  0.00    +0.000 A 
ATOM     36  C   UNL     1      -2.982  12.144  22.739  0.00  0.00    +0.000 A 
ATOM     37  C   UNL     1      -2.214  12.454  21.629  0.00  0.00    +0.000 A 
ENDBRANCH  22  23
ENDBRANCH   2  22
TORSDOF 3
ENDMDL
