MODEL 1
REMARK VINA RESULT:      -7.9      0.000      0.000
REMARK  Name = 
REMARK  6 active torsions:
REMARK  status: ('A' for Active; 'I' for Inactive)
REMARK    1  A    between atoms: C_1  and  C_2
REMARK    2  A    between atoms: C_2  and  O_3
REMARK    3  A    between atoms: O_3  and  C_4
REMARK    4  A    between atoms: C_6  and  C_7
REMARK    5  A    between atoms: C_15  and  N_16
REMARK    6  A    between atoms: C_21  and  C_22
REMARK                            x       y       z     vdW  Elec       q    Type
REMARK                         _______ _______ _______ _____ _____    ______ ____
ROOT
ATOM      1  C   UNL     1       2.139   6.101  20.076  0.00  0.00    +0.000 A 
ATOM      2  C   UNL     1       1.458   7.064  20.844  0.00  0.00    +0.000 A 
ATOM      3  C   UNL     1       1.275   8.374  20.404  0.00  0.00    +0.000 A 
ATOM      4  C   UNL     1       1.785   8.658  19.158  0.00  0.00    +0.000 A 
ATOM      5  N   UNL     1       2.421   7.760  18.385  0.00  0.00    +0.000 NA
ATOM      6  C   UNL     1       2.588   6.483  18.802  0.00  0.00    +0.000 A 
ENDROOT
BRANCH   6   7
ATOM      7  N   UNL     1       3.225   5.589  17.917  0.00  0.00    +0.000 N 
ATOM      8  C   UNL     1       4.617   5.350  17.836  0.00  0.00    +0.000 A 
ATOM      9  C   UNL     1       5.465   5.476  18.941  0.00  0.00    +0.000 A 
ATOM     10  C   UNL     1       6.845   5.425  18.794  0.00  0.00    +0.000 A 
ATOM     11  C   UNL     1       7.368   5.163  17.545  0.00  0.00    +0.000 A 
ATOM     12  C   UNL     1       6.489   4.951  16.494  0.00  0.00    +0.000 A 
ATOM     13  C   UNL     1       7.034   4.597  15.143  0.00  0.00    +0.000 C 
ATOM     14  N   UNL     1       5.130   5.038  16.623  0.00  0.00    +0.000 NA
ATOM     15  H   UNL     1       2.817   5.572  16.991  0.00  0.00    +0.000 HD
ENDBRANCH   6   7
BRANCH   3  16
ATOM     16  C   UNL     1       0.606   9.378  21.234  0.00  0.00    +0.000 A 
ATOM     17  C   UNL     1      -0.051   9.052  22.420  0.00  0.00    +0.000 A 
ATOM     18  C   UNL     1      -0.719  10.047  23.117  0.00  0.00    +0.000 A 
ATOM     19  C   UNL     1      -0.717  11.344  22.623  0.00  0.00    +0.000 A 
ATOM     20  C   UNL     1      -0.038  11.591  21.448  0.00  0.00    +0.000 A 
ATOM     21  N   UNL     1       0.615  10.643  20.745  0.00  0.00    +0.000 NA
ENDBRANCH   3  16
BRANCH   1  22
ATOM     22  O   UNL     1       2.351   4.811  20.522  0.00  0.00    +0.000 OA
BRANCH  22  24
ATOM     23  C   UNL     1       1.349   2.797  21.442  0.00  0.00    +0.000 C 
ATOM     24  C   UNL     1       1.177   3.983  20.523  0.00  0.00    +0.000 C 
ENDBRANCH  22  24
ENDBRANCH   1  22
TORSDOF 4
ENDMDL
MODEL 2
REMARK VINA RESULT:      -7.6      0.888      1.029
REMARK  Name = 
REMARK  6 active torsions:
REMARK  status: ('A' for Active; 'I' for Inactive)
REMARK    1  A    between atoms: C_1  and  C_2
REMARK    2  A    between atoms: C_2  and  O_3
REMARK    3  A    between atoms: O_3  and  C_4
REMARK    4  A    between atoms: C_6  and  C_7
REMARK    5  A    between atoms: C_15  and  N_16
REMARK    6  A    between atoms: C_21  and  C_22
REMARK                            x       y       z     vdW  Elec       q    Type
REMARK                         _______ _______ _______ _____ _____    ______ ____
ROOT
ATOM      1  C   UNL     1       2.340   5.561  19.873  0.00  0.00    +0.000 A 
ATOM      2  C   UNL     1       1.709   6.599  20.582  0.00  0.00    +0.000 A 
ATOM      3  C   UNL     1       1.602   7.893  20.074  0.00  0.00    +0.000 A 
ATOM      4  C   UNL     1       2.135   8.082  18.818  0.00  0.00    +0.000 A 
ATOM      5  N   UNL     1       2.724   7.110  18.099  0.00  0.00    +0.000 NA
ATOM      6  C   UNL     1       2.816   5.850  18.584  0.00  0.00    +0.000 A 
ENDROOT
BRANCH   6   7
ATOM      7  N   UNL     1       3.407   4.876  17.753  0.00  0.00    +0.000 N 
ATOM      8  C   UNL     1       4.713   4.926  17.213  0.00  0.00    +0.000 A 
ATOM      9  C   UNL     1       5.768   5.579  17.860  0.00  0.00    +0.000 A 
ATOM     10  C   UNL     1       6.985   5.779  17.222  0.00  0.00    +0.000 A 
ATOM     11  C   UNL     1       7.168   5.246  15.963  0.00  0.00    +0.000 A 
ATOM     12  C   UNL     1       6.128   4.525  15.395  0.00  0.00    +0.000 A 
ATOM     13  C   UNL     1       6.329   3.880  14.057  0.00  0.00    +0.000 C 
ATOM     14  N   UNL     1       4.913   4.357  16.000  0.00  0.00    +0.000 NA
ATOM     15  H   UNL     1       2.769   4.476  17.077  0.00  0.00    +0.000 HD
ENDBRANCH   6   7
BRANCH   3  16
ATOM     16  C   UNL     1       0.987   8.975  20.844  0.00  0.00    +0.000 A 
ATOM     17  C   UNL     1       0.774   8.888  22.219  0.00  0.00    +0.000 A 
ATOM     18  C   UNL     1       0.124   9.926  22.869  0.00  0.00    +0.000 A 
ATOM     19  C   UNL     1      -0.298  11.028  22.140  0.00  0.00    +0.000 A 
ATOM     20  C   UNL     1      -0.045  11.046  20.783  0.00  0.00    +0.000 A 
ATOM     21  N   UNL     1       0.580  10.049  20.123  0.00  0.00    +0.000 NA
ENDBRANCH   3  16
BRANCH   1  22
ATOM     22  O   UNL     1       2.476   4.286  20.386  0.00  0.00    +0.000 OA
BRANCH  22  24
ATOM     23  C   UNL     1       0.891   2.809  19.285  0.00  0.00    +0.000 C 
ATOM     24  C   UNL     1       1.238   3.574  20.541  0.00  0.00    +0.000 C 
ENDBRANCH  22  24
ENDBRANCH   1  22
TORSDOF 4
ENDMDL
MODEL 3
REMARK VINA RESULT:      -7.5      0.746      1.135
REMARK  Name = 
REMARK  6 active torsions:
REMARK  status: ('A' for Active; 'I' for Inactive)
REMARK    1  A    between atoms: C_1  and  C_2
REMARK    2  A    between atoms: C_2  and  O_3
REMARK    3  A    between atoms: O_3  and  C_4
REMARK    4  A    between atoms: C_6  and  C_7
REMARK    5  A    between atoms: C_15  and  N_16
REMARK    6  A    between atoms: C_21  and  C_22
REMARK                            x       y       z     vdW  Elec       q    Type
REMARK                         _______ _______ _______ _____ _____    ______ ____
ROOT
ATOM      1  C   UNL     1       2.193   5.994  20.064  0.00  0.00    +0.000 A 
ATOM      2  C   UNL     1       1.515   7.013  20.758  0.00  0.00    +0.000 A 
ATOM      3  C   UNL     1       1.302   8.276  20.207  0.00  0.00    +0.000 A 
ATOM      4  C   UNL     1       1.781   8.453  18.928  0.00  0.00    +0.000 A 
ATOM      5  N   UNL     1       2.412   7.497  18.224  0.00  0.00    +0.000 NA
ATOM      6  C   UNL     1       2.607   6.265  18.751  0.00  0.00    +0.000 A 
ENDROOT
BRANCH   6   7
ATOM      7  N   UNL     1       3.237   5.303  17.935  0.00  0.00    +0.000 N 
ATOM      8  C   UNL     1       4.581   5.339  17.494  0.00  0.00    +0.000 A 
ATOM      9  C   UNL     1       5.598   5.947  18.238  0.00  0.00    +0.000 A 
ATOM     10  C   UNL     1       6.864   6.137  17.698  0.00  0.00    +0.000 A 
ATOM     11  C   UNL     1       7.128   5.638  16.440  0.00  0.00    +0.000 A 
ATOM     12  C   UNL     1       6.118   4.959  15.774  0.00  0.00    +0.000 A 
ATOM     13  C   UNL     1       6.405   4.350  14.434  0.00  0.00    +0.000 C 
ATOM     14  N   UNL     1       4.858   4.802  16.283  0.00  0.00    +0.000 NA
ATOM     15  H   UNL     1       2.643   4.938  17.202  0.00  0.00    +0.000 HD
ENDBRANCH   6   7
BRANCH   3  16
ATOM     16  C   UNL     1       0.638   9.342  20.959  0.00  0.00    +0.000 A 
ATOM     17  C   UNL     1       0.673  10.677  20.556  0.00  0.00    +0.000 A 
ATOM     18  C   UNL     1       0.078  11.639  21.356  0.00  0.00    +0.000 A 
ATOM     19  C   UNL     1      -0.543  11.256  22.537  0.00  0.00    +0.000 A 
ATOM     20  C   UNL     1      -0.544   9.915  22.865  0.00  0.00    +0.000 A 
ATOM     21  N   UNL     1       0.032   8.957  22.109  0.00  0.00    +0.000 NA
ENDBRANCH   3  16
BRANCH   1  22
ATOM     22  O   UNL     1       2.434   4.752  20.619  0.00  0.00    +0.000 OA
BRANCH  22  24
ATOM     23  C   UNL     1       1.553   2.689  21.555  0.00  0.00    +0.000 C 
ATOM     24  C   UNL     1       1.277   3.904  20.700  0.00  0.00    +0.000 C 
ENDBRANCH  22  24
ENDBRANCH   1  22
TORSDOF 4
ENDMDL
MODEL 4
REMARK VINA RESULT:      -7.0      1.049      1.255
REMARK  Name = 
REMARK  6 active torsions:
REMARK  status: ('A' for Active; 'I' for Inactive)
REMARK    1  A    between atoms: C_1  and  C_2
REMARK    2  A    between atoms: C_2  and  O_3
REMARK    3  A    between atoms: O_3  and  C_4
REMARK    4  A    between atoms: C_6  and  C_7
REMARK    5  A    between atoms: C_15  and  N_16
REMARK    6  A    between atoms: C_21  and  C_22
REMARK                            x       y       z     vdW  Elec       q    Type
REMARK                         _______ _______ _______ _____ _____    ______ ____
ROOT
ATOM      1  C   UNL     1       2.259   6.622  19.696  0.00  0.00    +0.000 A 
ATOM      2  C   UNL     1       1.615   7.762  20.210  0.00  0.00    +0.000 A 
ATOM      3  C   UNL     1       1.474   8.936  19.472  0.00  0.00    +0.000 A 
ATOM      4  C   UNL     1       1.989   8.899  18.195  0.00  0.00    +0.000 A 
ATOM      5  N   UNL     1       2.590   7.821  17.660  0.00  0.00    +0.000 NA
ATOM      6  C   UNL     1       2.715   6.675  18.370  0.00  0.00    +0.000 A 
ENDROOT
BRANCH   6   7
ATOM      7  N   UNL     1       3.317   5.575  17.725  0.00  0.00    +0.000 N 
ATOM      8  C   UNL     1       4.641   5.525  17.229  0.00  0.00    +0.000 A 
ATOM      9  C   UNL     1       5.684   6.262  17.800  0.00  0.00    +0.000 A 
ATOM     10  C   UNL     1       6.925   6.345  17.181  0.00  0.00    +0.000 A 
ATOM     11  C   UNL     1       7.140   5.617  16.030  0.00  0.00    +0.000 A 
ATOM     12  C   UNL     1       6.108   4.825  15.549  0.00  0.00    +0.000 A 
ATOM     13  C   UNL     1       6.343   3.972  14.338  0.00  0.00    +0.000 C 
ATOM     14  N   UNL     1       4.872   4.768  16.131  0.00  0.00    +0.000 NA
ATOM     15  H   UNL     1       2.695   5.079  17.100  0.00  0.00    +0.000 HD
ENDBRANCH   6   7
BRANCH   3  16
ATOM     16  C   UNL     1       0.844  10.130  20.037  0.00  0.00    +0.000 A 
ATOM     17  C   UNL     1       0.545  10.249  21.393  0.00  0.00    +0.000 A 
ATOM     18  C   UNL     1      -0.114  11.382  21.843  0.00  0.00    +0.000 A 
ATOM     19  C   UNL     1      -0.458  12.375  20.937  0.00  0.00    +0.000 A 
ATOM     20  C   UNL     1      -0.122  12.191  19.612  0.00  0.00    +0.000 A 
ATOM     21  N   UNL     1       0.513  11.096  19.144  0.00  0.00    +0.000 NA
ENDBRANCH   3  16
BRANCH   1  22
ATOM     22  O   UNL     1       2.429   5.468  20.436  0.00  0.00    +0.000 OA
BRANCH  22  24
ATOM     23  C   UNL     1       1.559   3.324  21.180  0.00  0.00    +0.000 C 
ATOM     24  C   UNL     1       1.242   4.670  20.571  0.00  0.00    +0.000 C 
ENDBRANCH  22  24
ENDBRANCH   1  22
TORSDOF 4
ENDMDL
MODEL 5
REMARK VINA RESULT:      -6.9      1.376      1.753
REMARK  Name = 
REMARK  6 active torsions:
REMARK  status: ('A' for Active; 'I' for Inactive)
REMARK    1  A    between atoms: C_1  and  C_2
REMARK    2  A    between atoms: C_2  and  O_3
REMARK    3  A    between atoms: O_3  and  C_4
REMARK    4  A    between atoms: C_6  and  C_7
REMARK    5  A    between atoms: C_15  and  N_16
REMARK    6  A    between atoms: C_21  and  C_22
REMARK                            x       y       z     vdW  Elec       q    Type
REMARK                         _______ _______ _______ _____ _____    ______ ____
ROOT
ATOM      1  C   UNL     1       2.438   4.769  19.682  0.00  0.00    +0.000 A 
ATOM      2  C   UNL     1       1.838   5.687  20.564  0.00  0.00    +0.000 A 
ATOM      3  C   UNL     1       1.723   7.044  20.265  0.00  0.00    +0.000 A 
ATOM      4  C   UNL     1       2.216   7.423  19.036  0.00  0.00    +0.000 A 
ATOM      5  N   UNL     1       2.773   6.573  18.157  0.00  0.00    +0.000 NA
ATOM      6  C   UNL     1       2.873   5.252  18.438  0.00  0.00    +0.000 A 
ENDROOT
BRANCH   6   7
ATOM      7  N   UNL     1       3.430   4.417  17.448  0.00  0.00    +0.000 N 
ATOM      8  C   UNL     1       4.762   4.464  16.974  0.00  0.00    +0.000 A 
ATOM      9  C   UNL     1       5.829   4.882  17.776  0.00  0.00    +0.000 A 
ATOM     10  C   UNL     1       7.089   5.102  17.234  0.00  0.00    +0.000 A 
ATOM     11  C   UNL     1       7.294   4.817  15.901  0.00  0.00    +0.000 A 
ATOM     12  C   UNL     1       6.233   4.314  15.163  0.00  0.00    +0.000 A 
ATOM     13  C   UNL     1       6.452   3.935  13.729  0.00  0.00    +0.000 C 
ATOM     14  N   UNL     1       4.979   4.133  15.679  0.00  0.00    +0.000 NA
ATOM     15  H   UNL     1       2.798   4.215  16.683  0.00  0.00    +0.000 HD
ENDBRANCH   6   7
BRANCH   3  16
ATOM     16  C   UNL     1       1.140   7.995  21.212  0.00  0.00    +0.000 A 
ATOM     17  C   UNL     1       1.921   8.829  22.011  0.00  0.00    +0.000 A 
ATOM     18  C   UNL     1       1.299   9.656  22.934  0.00  0.00    +0.000 A 
ATOM     19  C   UNL     1      -0.084   9.639  23.041  0.00  0.00    +0.000 A 
ATOM     20  C   UNL     1      -0.790   8.792  22.210  0.00  0.00    +0.000 A 
ATOM     21  N   UNL     1      -0.212   7.973  21.308  0.00  0.00    +0.000 NA
ENDBRANCH   3  16
BRANCH   1  22
ATOM     22  O   UNL     1       2.583   3.430  19.989  0.00  0.00    +0.000 OA
BRANCH  22  24
ATOM     23  C   UNL     1       0.690   2.392  18.871  0.00  0.00    +0.000 C 
ATOM     24  C   UNL     1       1.344   2.731  20.191  0.00  0.00    +0.000 C 
ENDBRANCH  22  24
ENDBRANCH   1  22
TORSDOF 4
ENDMDL
MODEL 6
REMARK VINA RESULT:      -6.8      1.304      1.744
REMARK  Name = 
REMARK  6 active torsions:
REMARK  status: ('A' for Active; 'I' for Inactive)
REMARK    1  A    between atoms: C_1  and  C_2
REMARK    2  A    between atoms: C_2  and  O_3
REMARK    3  A    between atoms: O_3  and  C_4
REMARK    4  A    between atoms: C_6  and  C_7
REMARK    5  A    between atoms: C_15  and  N_16
REMARK    6  A    between atoms: C_21  and  C_22
REMARK                            x       y       z     vdW  Elec       q    Type
REMARK                         _______ _______ _______ _____ _____    ______ ____
ROOT
ATOM      1  C   UNL     1       2.301   5.155  19.242  0.00  0.00    +0.000 A 
ATOM      2  C   UNL     1       1.689   6.162  20.010  0.00  0.00    +0.000 A 
ATOM      3  C   UNL     1       1.761   7.511  19.664  0.00  0.00    +0.000 A 
ATOM      4  C   UNL     1       2.454   7.791  18.508  0.00  0.00    +0.000 A 
ATOM      5  N   UNL     1       3.032   6.855  17.735  0.00  0.00    +0.000 NA
ATOM      6  C   UNL     1       2.951   5.543  18.059  0.00  0.00    +0.000 A 
ENDROOT
BRANCH   6   7
ATOM      7  N   UNL     1       3.545   4.618  17.176  0.00  0.00    +0.000 N 
ATOM      8  C   UNL     1       4.843   4.713  16.622  0.00  0.00    +0.000 A 
ATOM      9  C   UNL     1       5.896   5.352  17.285  0.00  0.00    +0.000 A 
ATOM     10  C   UNL     1       7.102   5.600  16.641  0.00  0.00    +0.000 A 
ATOM     11  C   UNL     1       7.275   5.129  15.356  0.00  0.00    +0.000 A 
ATOM     12  C   UNL     1       6.238   4.419  14.769  0.00  0.00    +0.000 A 
ATOM     13  C   UNL     1       6.430   3.840  13.399  0.00  0.00    +0.000 C 
ATOM     14  N   UNL     1       5.034   4.204  15.382  0.00  0.00    +0.000 NA
ATOM     15  H   UNL     1       2.903   4.239  16.491  0.00  0.00    +0.000 HD
ENDBRANCH   6   7
BRANCH   3  16
ATOM     16  C   UNL     1       1.160   8.553  20.499  0.00  0.00    +0.000 A 
ATOM     17  C   UNL     1       0.583   9.703  19.962  0.00  0.00    +0.000 A 
ATOM     18  C   UNL     1       0.094  10.676  20.819  0.00  0.00    +0.000 A 
ATOM     19  C   UNL     1       0.186  10.486  22.190  0.00  0.00    +0.000 A 
ATOM     20  C   UNL     1       0.762   9.318  22.647  0.00  0.00    +0.000 A 
ATOM     21  N   UNL     1       1.252   8.356  21.838  0.00  0.00    +0.000 NA
ENDBRANCH   3  16
BRANCH   1  22
ATOM     22  O   UNL     1       2.259   3.821  19.597  0.00  0.00    +0.000 OA
BRANCH  22  24
ATOM     23  C   UNL     1       1.492   2.832  21.681  0.00  0.00    +0.000 C 
ATOM     24  C   UNL     1       2.607   3.562  20.967  0.00  0.00    +0.000 C 
ENDBRANCH  22  24
ENDBRANCH   1  22
TORSDOF 4
ENDMDL
MODEL 7
REMARK VINA RESULT:      -6.8      1.620      7.511
REMARK  Name = 
REMARK  6 active torsions:
REMARK  status: ('A' for Active; 'I' for Inactive)
REMARK    1  A    between atoms: C_1  and  C_2
REMARK    2  A    between atoms: C_2  and  O_3
REMARK    3  A    between atoms: O_3  and  C_4
REMARK    4  A    between atoms: C_6  and  C_7
REMARK    5  A    between atoms: C_15  and  N_16
REMARK    6  A    between atoms: C_21  and  C_22
REMARK                            x       y       z     vdW  Elec       q    Type
REMARK                         _______ _______ _______ _____ _____    ______ ____
ROOT
ATOM      1  C   UNL     1       2.314   6.201  19.799  0.00  0.00    +0.000 A 
ATOM      2  C   UNL     1       3.167   5.555  18.886  0.00  0.00    +0.000 A 
ATOM      3  C   UNL     1       3.744   6.219  17.804  0.00  0.00    +0.000 A 
ATOM      4  C   UNL     1       3.440   7.558  17.701  0.00  0.00    +0.000 A 
ATOM      5  N   UNL     1       2.648   8.216  18.566  0.00  0.00    +0.000 NA
ATOM      6  C   UNL     1       2.099   7.578  19.626  0.00  0.00    +0.000 A 
ENDROOT
BRANCH   6   7
ATOM      7  N   UNL     1       1.317   8.346  20.513  0.00  0.00    +0.000 N 
ATOM      8  C   UNL     1       0.588   9.512  20.181  0.00  0.00    +0.000 A 
ATOM      9  C   UNL     1       0.055   9.725  18.906  0.00  0.00    +0.000 A 
ATOM     10  C   UNL     1      -0.486  10.955  18.553  0.00  0.00    +0.000 A 
ATOM     11  C   UNL     1      -0.568  11.942  19.512  0.00  0.00    +0.000 A 
ATOM     12  C   UNL     1      -0.113  11.657  20.791  0.00  0.00    +0.000 A 
ATOM     13  C   UNL     1      -0.255  12.692  21.867  0.00  0.00    +0.000 C 
ATOM     14  N   UNL     1       0.457  10.462  21.136  0.00  0.00    +0.000 NA
ATOM     15  H   UNL     1       1.723   8.443  21.434  0.00  0.00    +0.000 HD
ENDBRANCH   6   7
BRANCH   3  16
ATOM     16  C   UNL     1       4.591   5.522  16.835  0.00  0.00    +0.000 A 
ATOM     17  C   UNL     1       5.182   6.172  15.753  0.00  0.00    +0.000 A 
ATOM     18  C   UNL     1       5.916   5.432  14.840  0.00  0.00    +0.000 A 
ATOM     19  C   UNL     1       6.049   4.063  15.021  0.00  0.00    +0.000 A 
ATOM     20  C   UNL     1       5.442   3.491  16.121  0.00  0.00    +0.000 A 
ATOM     21  N   UNL     1       4.717   4.185  17.023  0.00  0.00    +0.000 NA
ENDBRANCH   3  16
BRANCH   1  22
ATOM     22  O   UNL     1       1.716   5.539  20.853  0.00  0.00    +0.000 OA
BRANCH  22  24
ATOM     23  C   UNL     1       1.685   3.181  21.439  0.00  0.00    +0.000 C 
ATOM     24  C   UNL     1       1.166   4.256  20.513  0.00  0.00    +0.000 C 
ENDBRANCH  22  24
ENDBRANCH   1  22
TORSDOF 4
ENDMDL
MODEL 8
REMARK VINA RESULT:      -6.8      2.911      7.489
REMARK  Name = 
REMARK  6 active torsions:
REMARK  status: ('A' for Active; 'I' for Inactive)
REMARK    1  A    between atoms: C_1  and  C_2
REMARK    2  A    between atoms: C_2  and  O_3
REMARK    3  A    between atoms: O_3  and  C_4
REMARK    4  A    between atoms: C_6  and  C_7
REMARK    5  A    between atoms: C_15  and  N_16
REMARK    6  A    between atoms: C_21  and  C_22
REMARK                            x       y       z     vdW  Elec       q    Type
REMARK                         _______ _______ _______ _____ _____    ______ ____
ROOT
ATOM      1  C   UNL     1       0.965   9.379  19.814  0.00  0.00    +0.000 A 
ATOM      2  C   UNL     1       1.653   8.159  19.954  0.00  0.00    +0.000 A 
ATOM      3  C   UNL     1       2.389   7.594  18.913  0.00  0.00    +0.000 A 
ATOM      4  C   UNL     1       2.417   8.322  17.744  0.00  0.00    +0.000 A 
ATOM      5  N   UNL     1       1.793   9.502  17.580  0.00  0.00    +0.000 NA
ATOM      6  C   UNL     1       1.090  10.060  18.593  0.00  0.00    +0.000 A 
ENDROOT
BRANCH   6   7
ATOM      7  N   UNL     1       0.501  11.319  18.358  0.00  0.00    +0.000 N 
ATOM      8  C   UNL     1       1.147  12.573  18.472  0.00  0.00    +0.000 A 
ATOM      9  C   UNL     1       2.517  12.734  18.243  0.00  0.00    +0.000 A 
ATOM     10  C   UNL     1       3.158  13.928  18.547  0.00  0.00    +0.000 A 
ATOM     11  C   UNL     1       2.402  14.988  19.002  0.00  0.00    +0.000 A 
ATOM     12  C   UNL     1       1.031  14.814  19.125  0.00  0.00    +0.000 A 
ATOM     13  C   UNL     1       0.182  15.974  19.553  0.00  0.00    +0.000 C 
ATOM     14  N   UNL     1       0.398  13.630  18.866  0.00  0.00    +0.000 NA
ATOM     15  H   UNL     1      -0.453  11.390  18.688  0.00  0.00    +0.000 HD
ENDBRANCH   6   7
BRANCH   3  16
ATOM     16  C   UNL     1       3.060   6.301  19.057  0.00  0.00    +0.000 A 
ATOM     17  C   UNL     1       4.148   5.930  18.269  0.00  0.00    +0.000 A 
ATOM     18  C   UNL     1       4.688   4.662  18.418  0.00  0.00    +0.000 A 
ATOM     19  C   UNL     1       4.137   3.791  19.347  0.00  0.00    +0.000 A 
ATOM     20  C   UNL     1       3.066   4.233  20.097  0.00  0.00    +0.000 A 
ATOM     21  N   UNL     1       2.516   5.458  19.970  0.00  0.00    +0.000 NA
ENDBRANCH   3  16
BRANCH   1  22
ATOM     22  O   UNL     1       0.209   9.925  20.833  0.00  0.00    +0.000 OA
BRANCH  22  24
ATOM     23  C   UNL     1      -0.047   9.517  23.215  0.00  0.00    +0.000 C 
ATOM     24  C   UNL     1      -0.235   8.976  21.816  0.00  0.00    +0.000 C 
ENDBRANCH  22  24
ENDBRANCH   1  22
TORSDOF 4
ENDMDL
MODEL 9
REMARK VINA RESULT:      -6.8      1.660      7.450
REMARK  Name = 
REMARK  6 active torsions:
REMARK  status: ('A' for Active; 'I' for Inactive)
REMARK    1  A    between atoms: C_1  and  C_2
REMARK    2  A    between atoms: C_2  and  O_3
REMARK    3  A    between atoms: O_3  and  C_4
REMARK    4  A    between atoms: C_6  and  C_7
REMARK    5  A    between atoms: C_15  and  N_16
REMARK    6  A    between atoms: C_21  and  C_22
REMARK                            x       y       z     vdW  Elec       q    Type
REMARK                         _______ _______ _______ _____ _____    ______ ____
ROOT
ATOM      1  C   UNL     1       2.420   6.159  19.729  0.00  0.00    +0.000 A 
ATOM      2  C   UNL     1       3.262   5.519  18.801  0.00  0.00    +0.000 A 
ATOM      3  C   UNL     1       3.804   6.185  17.702  0.00  0.00    +0.000 A 
ATOM      4  C   UNL     1       3.478   7.519  17.598  0.00  0.00    +0.000 A 
ATOM      5  N   UNL     1       2.697   8.171  18.477  0.00  0.00    +0.000 NA
ATOM      6  C   UNL     1       2.181   7.531  19.553  0.00  0.00    +0.000 A 
ENDROOT
BRANCH   6   7
ATOM      7  N   UNL     1       1.408   8.294  20.453  0.00  0.00    +0.000 N 
ATOM      8  C   UNL     1       0.663   9.453  20.133  0.00  0.00    +0.000 A 
ATOM      9  C   UNL     1       0.106   9.661  18.867  0.00  0.00    +0.000 A 
ATOM     10  C   UNL     1      -0.452  10.885  18.523  0.00  0.00    +0.000 A 
ATOM     11  C   UNL     1      -0.525  11.873  19.483  0.00  0.00    +0.000 A 
ATOM     12  C   UNL     1      -0.046  11.592  20.754  0.00  0.00    +0.000 A 
ATOM     13  C   UNL     1      -0.177  12.627  21.831  0.00  0.00    +0.000 C 
ATOM     14  N   UNL     1       0.541  10.403  21.090  0.00  0.00    +0.000 NA
ATOM     15  H   UNL     1       1.830   8.395  21.367  0.00  0.00    +0.000 HD
ENDBRANCH   6   7
BRANCH   3  16
ATOM     16  C   UNL     1       4.639   5.495  16.718  0.00  0.00    +0.000 A 
ATOM     17  C   UNL     1       4.770   4.107  16.690  0.00  0.00    +0.000 A 
ATOM     18  C   UNL     1       5.632   3.529  15.771  0.00  0.00    +0.000 A 
ATOM     19  C   UNL     1       6.342   4.341  14.898  0.00  0.00    +0.000 A 
ATOM     20  C   UNL     1       6.153   5.706  14.980  0.00  0.00    +0.000 A 
ATOM     21  N   UNL     1       5.326   6.297  15.867  0.00  0.00    +0.000 NA
ENDBRANCH   3  16
BRANCH   1  22
ATOM     22  O   UNL     1       1.855   5.495  20.800  0.00  0.00    +0.000 OA
BRANCH  22  24
ATOM     23  C   UNL     1       1.532   3.139  21.304  0.00  0.00    +0.000 C 
ATOM     24  C   UNL     1       1.121   4.313  20.444  0.00  0.00    +0.000 C 
ENDBRANCH  22  24
ENDBRANCH   1  22
TORSDOF 4
ENDMDL
