MODEL 1
REMARK VINA RESULT:      -8.4      0.000      0.000
REMARK  Name = 
REMARK  4 active torsions:
REMARK  status: ('A' for Active; 'I' for Inactive)
REMARK    1  A    between atoms: C_1  and  O_2
REMARK    2  A    between atoms: O_2  and  C_3
REMARK    3  A    between atoms: C_6  and  C_7
REMARK    4  A    between atoms: C_7  and  N_8
REMARK                            x       y       z     vdW  Elec       q    Type
REMARK                         _______ _______ _______ _____ _____    ______ ____
ROOT
ATOM      1  N   UNL     1       0.427  10.529  19.368  0.00  0.00    +0.000 NA
ATOM      2  C   UNL     1       0.825   9.780  18.171  0.00  0.00    +0.000 C 
ATOM      3  C   UNL     1       1.937   8.707  18.300  0.00  0.00    +0.000 C 
ATOM      4  N   UNL     1       1.912   7.887  19.524  0.00  0.00    +0.000 N 
ATOM      5  C   UNL     1       2.458   6.587  19.646  0.00  0.00    +0.000 A 
ATOM      6  N   UNL     1       2.163   5.927  20.745  0.00  0.00    +0.000 NA
ATOM      7  N   UNL     1       2.390   4.594  20.713  0.00  0.00    +0.000 N 
ATOM      8  N   UNL     1       2.221   3.790  21.766  0.00  0.00    +0.000 NA
ATOM      9  N   UNL     1       2.437   2.559  21.312  0.00  0.00    +0.000 NA
ATOM     10  N   UNL     1       2.748   2.565  19.967  0.00  0.00    +0.000 NA
ATOM     11  C   UNL     1       2.726   3.836  19.616  0.00  0.00    +0.000 A 
ATOM     12  C   UNL     1       3.170   4.525  18.430  0.00  0.00    +0.000 A 
ATOM     13  C   UNL     1       3.703   3.831  17.341  0.00  0.00    +0.000 A 
ATOM     14  C   UNL     1       4.521   4.512  16.451  0.00  0.00    +0.000 A 
ATOM     15  C   UNL     1       4.835   5.853  16.685  0.00  0.00    +0.000 A 
ATOM     16  C   UNL     1       4.203   6.569  17.720  0.00  0.00    +0.000 A 
ATOM     17  C   UNL     1       3.276   5.922  18.533  0.00  0.00    +0.000 A 
ATOM     18  C   UNL     1       1.209   8.461  20.707  0.00  0.00    +0.000 C 
ATOM     19  C   UNL     1       0.144   9.545  20.428  0.00  0.00    +0.000 C 
ENDROOT
BRANCH   1  20
ATOM     20  C   UNL     1       1.384  11.545  19.824  0.00  0.00    +0.000 C 
BRANCH  20  24
ATOM     21  C   UNL     1       0.963  15.711  18.611  0.00  0.00    +0.000 A 
ATOM     22  C   UNL     1      -0.163  14.998  18.977  0.00  0.00    +0.000 A 
ATOM     23  C   UNL     1      -0.065  13.641  19.378  0.00  0.00    +0.000 A 
ATOM     24  C   UNL     1       1.169  12.976  19.361  0.00  0.00    +0.000 A 
ATOM     25  C   UNL     1       2.293  13.726  18.996  0.00  0.00    +0.000 A 
ATOM     26  C   UNL     1       2.199  15.071  18.629  0.00  0.00    +0.000 A 
BRANCH  21  28
ATOM     27  C   UNL     1      -0.607  17.351  17.906  0.00  0.00    +0.000 C 
ATOM     28  O   UNL     1       0.737  17.006  18.237  0.00  0.00    +0.000 OA
ENDBRANCH  21  28
ENDBRANCH  20  24
ENDBRANCH   1  20
TORSDOF 3
ENDMDL
MODEL 2
REMARK VINA RESULT:      -8.0      0.830      1.090
REMARK  Name = 
REMARK  4 active torsions:
REMARK  status: ('A' for Active; 'I' for Inactive)
REMARK    1  A    between atoms: C_1  and  O_2
REMARK    2  A    between atoms: O_2  and  C_3
REMARK    3  A    between atoms: C_6  and  C_7
REMARK    4  A    between atoms: C_7  and  N_8
REMARK                            x       y       z     vdW  Elec       q    Type
REMARK                         _______ _______ _______ _____ _____    ______ ____
ROOT
ATOM      1  N   UNL     1       0.298  10.594  19.268  0.00  0.00    +0.000 NA
ATOM      2  C   UNL     1       0.747   9.880  18.068  0.00  0.00    +0.000 C 
ATOM      3  C   UNL     1       1.892   8.843  18.203  0.00  0.00    +0.000 C 
ATOM      4  N   UNL     1       1.869   8.002  19.413  0.00  0.00    +0.000 N 
ATOM      5  C   UNL     1       2.456   6.719  19.525  0.00  0.00    +0.000 A 
ATOM      6  N   UNL     1       2.162   6.030  20.606  0.00  0.00    +0.000 NA
ATOM      7  N   UNL     1       2.434   4.707  20.557  0.00  0.00    +0.000 N 
ATOM      8  N   UNL     1       2.271   3.879  21.592  0.00  0.00    +0.000 NA
ATOM      9  N   UNL     1       2.538   2.664  21.124  0.00  0.00    +0.000 NA
ATOM     10  N   UNL     1       2.876   2.704  19.786  0.00  0.00    +0.000 NA
ATOM     11  C   UNL     1       2.819   3.980  19.455  0.00  0.00    +0.000 A 
ATOM     12  C   UNL     1       3.263   4.703  18.290  0.00  0.00    +0.000 A 
ATOM     13  C   UNL     1       3.842   4.047  17.202  0.00  0.00    +0.000 A 
ATOM     14  C   UNL     1       4.655   4.770  16.341  0.00  0.00    +0.000 A 
ATOM     15  C   UNL     1       4.918   6.116  16.603  0.00  0.00    +0.000 A 
ATOM     16  C   UNL     1       4.241   6.793  17.636  0.00  0.00    +0.000 A 
ATOM     17  C   UNL     1       3.319   6.101  18.419  0.00  0.00    +0.000 A 
ATOM     18  C   UNL     1       1.123   8.531  20.590  0.00  0.00    +0.000 C 
ATOM     19  C   UNL     1       0.027   9.583  20.306  0.00  0.00    +0.000 C 
ENDROOT
BRANCH   1  20
ATOM     20  C   UNL     1       1.211  11.635  19.761  0.00  0.00    +0.000 C 
BRANCH  20  24
ATOM     21  C   UNL     1      -0.413  15.670  20.044  0.00  0.00    +0.000 A 
ATOM     22  C   UNL     1      -0.124  15.145  18.798  0.00  0.00    +0.000 A 
ATOM     23  C   UNL     1       0.404  13.835  18.667  0.00  0.00    +0.000 A 
ATOM     24  C   UNL     1       0.697  13.064  19.800  0.00  0.00    +0.000 A 
ATOM     25  C   UNL     1       0.385  13.617  21.047  0.00  0.00    +0.000 A 
ATOM     26  C   UNL     1      -0.162  14.897  21.174  0.00  0.00    +0.000 A 
BRANCH  21  28
ATOM     27  C   UNL     1      -1.272  17.484  18.769  0.00  0.00    +0.000 C 
ATOM     28  O   UNL     1      -0.908  16.944  20.038  0.00  0.00    +0.000 OA
ENDBRANCH  21  28
ENDBRANCH  20  24
ENDBRANCH   1  20
TORSDOF 3
ENDMDL
MODEL 3
REMARK VINA RESULT:      -8.0      0.776      1.249
REMARK  Name = 
REMARK  4 active torsions:
REMARK  status: ('A' for Active; 'I' for Inactive)
REMARK    1  A    between atoms: C_1  and  O_2
REMARK    2  A    between atoms: O_2  and  C_3
REMARK    3  A    between atoms: C_6  and  C_7
REMARK    4  A    between atoms: C_7  and  N_8
REMARK                            x       y       z     vdW  Elec       q    Type
REMARK                         _______ _______ _______ _____ _____    ______ ____
ROOT
ATOM      1  N   UNL     1       0.450  10.101  19.682  0.00  0.00    +0.000 NA
ATOM      2  C   UNL     1       0.921   9.652  18.368  0.00  0.00    +0.000 C 
ATOM      3  C   UNL     1       2.142   8.698  18.300  0.00  0.00    +0.000 C 
ATOM      4  N   UNL     1       2.209   7.653  19.337  0.00  0.00    +0.000 N 
ATOM      5  C   UNL     1       2.892   6.420  19.209  0.00  0.00    +0.000 A 
ATOM      6  N   UNL     1       2.675   5.527  20.150  0.00  0.00    +0.000 NA
ATOM      7  N   UNL     1       3.042   4.259  19.858  0.00  0.00    +0.000 N 
ATOM      8  N   UNL     1       2.965   3.248  20.728  0.00  0.00    +0.000 NA
ATOM      9  N   UNL     1       3.310   2.162  20.043  0.00  0.00    +0.000 NA
ATOM     10  N   UNL     1       3.612   2.468  18.732  0.00  0.00    +0.000 NA
ATOM     11  C   UNL     1       3.453   3.774  18.639  0.00  0.00    +0.000 A 
ATOM     12  C   UNL     1       3.815   4.728  17.620  0.00  0.00    +0.000 A 
ATOM     13  C   UNL     1       4.415   4.325  16.425  0.00  0.00    +0.000 A 
ATOM     14  C   UNL     1       5.152   5.251  15.702  0.00  0.00    +0.000 A 
ATOM     15  C   UNL     1       5.321   6.544  16.202  0.00  0.00    +0.000 A 
ATOM     16  C   UNL     1       4.621   6.969  17.347  0.00  0.00    +0.000 A 
ATOM     17  C   UNL     1       3.772   6.080  18.000  0.00  0.00    +0.000 A 
ATOM     18  C   UNL     1       1.455   7.903  20.598  0.00  0.00    +0.000 C 
ATOM     19  C   UNL     1       0.278   8.902  20.522  0.00  0.00    +0.000 C 
ENDROOT
BRANCH   1  20
ATOM     20  C   UNL     1       1.295  11.102  20.347  0.00  0.00    +0.000 C 
BRANCH  20  24
ATOM     21  C   UNL     1       0.804  15.188  18.909  0.00  0.00    +0.000 A 
ATOM     22  C   UNL     1       1.937  14.480  18.554  0.00  0.00    +0.000 A 
ATOM     23  C   UNL     1       2.131  13.148  19.002  0.00  0.00    +0.000 A 
ATOM     24  C   UNL     1       1.204  12.538  19.860  0.00  0.00    +0.000 A 
ATOM     25  C   UNL     1       0.062  13.276  20.193  0.00  0.00    +0.000 A 
ATOM     26  C   UNL     1      -0.141  14.578  19.728  0.00  0.00    +0.000 A 
BRANCH  21  28
ATOM     27  C   UNL     1      -0.565  16.993  18.188  0.00  0.00    +0.000 C 
ATOM     28  O   UNL     1       0.738  16.463  18.421  0.00  0.00    +0.000 OA
ENDBRANCH  21  28
ENDBRANCH  20  24
ENDBRANCH   1  20
TORSDOF 3
ENDMDL
MODEL 4
REMARK VINA RESULT:      -8.0      3.352      4.428
REMARK  Name = 
REMARK  4 active torsions:
REMARK  status: ('A' for Active; 'I' for Inactive)
REMARK    1  A    between atoms: C_1  and  O_2
REMARK    2  A    between atoms: O_2  and  C_3
REMARK    3  A    between atoms: C_6  and  C_7
REMARK    4  A    between atoms: C_7  and  N_8
REMARK                            x       y       z     vdW  Elec       q    Type
REMARK                         _______ _______ _______ _____ _____    ______ ____
ROOT
ATOM      1  N   UNL     1       0.935  10.151  19.090  0.00  0.00    +0.000 NA
ATOM      2  C   UNL     1       1.166   9.024  19.999  0.00  0.00    +0.000 C 
ATOM      3  C   UNL     1       1.614   7.664  19.402  0.00  0.00    +0.000 C 
ATOM      4  N   UNL     1       2.577   7.729  18.288  0.00  0.00    +0.000 N 
ATOM      5  C   UNL     1       3.478   6.698  17.929  0.00  0.00    +0.000 A 
ATOM      6  N   UNL     1       4.401   7.006  17.045  0.00  0.00    +0.000 NA
ATOM      7  N   UNL     1       5.446   6.153  16.960  0.00  0.00    +0.000 N 
ATOM      8  N   UNL     1       6.428   6.274  16.062  0.00  0.00    +0.000 NA
ATOM      9  N   UNL     1       7.308   5.324  16.365  0.00  0.00    +0.000 NA
ATOM     10  N   UNL     1       6.896   4.587  17.457  0.00  0.00    +0.000 NA
ATOM     11  C   UNL     1       5.734   5.106  17.804  0.00  0.00    +0.000 A 
ATOM     12  C   UNL     1       4.701   4.663  18.706  0.00  0.00    +0.000 A 
ATOM     13  C   UNL     1       4.844   3.497  19.462  0.00  0.00    +0.000 A 
ATOM     14  C   UNL     1       3.705   2.866  19.938  0.00  0.00    +0.000 A 
ATOM     15  C   UNL     1       2.445   3.373  19.614  0.00  0.00    +0.000 A 
ATOM     16  C   UNL     1       2.316   4.608  18.949  0.00  0.00    +0.000 A 
ATOM     17  C   UNL     1       3.461   5.314  18.589  0.00  0.00    +0.000 A 
ATOM     18  C   UNL     1       2.633   9.002  17.516  0.00  0.00    +0.000 C 
ATOM     19  C   UNL     1       2.126  10.275  18.231  0.00  0.00    +0.000 C 
ENDROOT
BRANCH   1  20
ATOM     20  C   UNL     1      -0.295  10.075  18.291  0.00  0.00    +0.000 C 
BRANCH  20  24
ATOM     21  C   UNL     1      -3.817  12.360  19.466  0.00  0.00    +0.000 A 
ATOM     22  C   UNL     1      -2.657  12.476  20.211  0.00  0.00    +0.000 A 
ATOM     23  C   UNL     1      -1.492  11.748  19.859  0.00  0.00    +0.000 A 
ATOM     24  C   UNL     1      -1.504  10.854  18.779  0.00  0.00    +0.000 A 
ATOM     25  C   UNL     1      -2.688  10.765  18.037  0.00  0.00    +0.000 A 
ATOM     26  C   UNL     1      -3.827  11.503  18.369  0.00  0.00    +0.000 A 
BRANCH  21  28
ATOM     27  C   UNL     1      -5.333  12.833  21.235  0.00  0.00    +0.000 C 
ATOM     28  O   UNL     1      -4.873  13.104  19.913  0.00  0.00    +0.000 OA
ENDBRANCH  21  28
ENDBRANCH  20  24
ENDBRANCH   1  20
TORSDOF 3
ENDMDL
MODEL 5
REMARK VINA RESULT:      -8.0      5.255      9.579
REMARK  Name = 
REMARK  4 active torsions:
REMARK  status: ('A' for Active; 'I' for Inactive)
REMARK    1  A    between atoms: C_1  and  O_2
REMARK    2  A    between atoms: O_2  and  C_3
REMARK    3  A    between atoms: C_6  and  C_7
REMARK    4  A    between atoms: C_7  and  N_8
REMARK                            x       y       z     vdW  Elec       q    Type
REMARK                         _______ _______ _______ _____ _____    ______ ____
ROOT
ATOM      1  N   UNL     1       7.083   5.209  15.214  0.00  0.00    +0.000 NA
ATOM      2  C   UNL     1       6.727   6.297  16.131  0.00  0.00    +0.000 C 
ATOM      3  C   UNL     1       5.265   6.395  16.640  0.00  0.00    +0.000 C 
ATOM      4  N   UNL     1       4.600   5.118  16.957  0.00  0.00    +0.000 N 
ATOM      5  C   UNL     1       3.524   4.963  17.863  0.00  0.00    +0.000 A 
ATOM      6  N   UNL     1       3.193   3.729  18.176  0.00  0.00    +0.000 NA
ATOM      7  N   UNL     1       2.418   3.585  19.273  0.00  0.00    +0.000 N 
ATOM      8  N   UNL     1       1.927   2.412  19.684  0.00  0.00    +0.000 NA
ATOM      9  N   UNL     1       1.317   2.665  20.838  0.00  0.00    +0.000 NA
ATOM     10  N   UNL     1       1.410   4.001  21.174  0.00  0.00    +0.000 NA
ATOM     11  C   UNL     1       2.084   4.557  20.187  0.00  0.00    +0.000 A 
ATOM     12  C   UNL     1       2.323   5.932  19.827  0.00  0.00    +0.000 A 
ATOM     13  C   UNL     1       1.848   6.985  20.613  0.00  0.00    +0.000 A 
ATOM     14  C   UNL     1       1.684   8.233  20.029  0.00  0.00    +0.000 A 
ATOM     15  C   UNL     1       1.947   8.402  18.668  0.00  0.00    +0.000 A 
ATOM     16  C   UNL     1       2.531   7.365  17.915  0.00  0.00    +0.000 A 
ATOM     17  C   UNL     1       2.824   6.151  18.533  0.00  0.00    +0.000 A 
ATOM     18  C   UNL     1       5.142   3.894  16.303  0.00  0.00    +0.000 C 
ATOM     19  C   UNL     1       6.609   3.951  15.819  0.00  0.00    +0.000 C 
ENDROOT
BRANCH   1  20
ATOM     20  C   UNL     1       6.592   5.359  13.838  0.00  0.00    +0.000 C 
BRANCH  20  24
ATOM     21  C   UNL     1       6.361   1.844  11.270  0.00  0.00    +0.000 A 
ATOM     22  C   UNL     1       5.204   2.338  11.844  0.00  0.00    +0.000 A 
ATOM     23  C   UNL     1       5.240   3.479  12.684  0.00  0.00    +0.000 A 
ATOM     24  C   UNL     1       6.457   4.101  12.996  0.00  0.00    +0.000 A 
ATOM     25  C   UNL     1       7.611   3.586  12.393  0.00  0.00    +0.000 A 
ATOM     26  C   UNL     1       7.570   2.478  11.543  0.00  0.00    +0.000 A 
BRANCH  21  28
ATOM     27  C   UNL     1       5.987  -0.502  11.168  0.00  0.00    +0.000 C 
ATOM     28  O   UNL     1       6.197   0.735  10.489  0.00  0.00    +0.000 OA
ENDBRANCH  21  28
ENDBRANCH  20  24
ENDBRANCH   1  20
TORSDOF 3
ENDMDL
MODEL 6
REMARK VINA RESULT:      -7.9      2.201      2.665
REMARK  Name = 
REMARK  4 active torsions:
REMARK  status: ('A' for Active; 'I' for Inactive)
REMARK    1  A    between atoms: C_1  and  O_2
REMARK    2  A    between atoms: O_2  and  C_3
REMARK    3  A    between atoms: C_6  and  C_7
REMARK    4  A    between atoms: C_7  and  N_8
REMARK                            x       y       z     vdW  Elec       q    Type
REMARK                         _______ _______ _______ _____ _____    ______ ____
ROOT
ATOM      1  N   UNL     1       0.320   9.972  19.663  0.00  0.00    +0.000 NA
ATOM      2  C   UNL     1       0.817   9.538  18.353  0.00  0.00    +0.000 C 
ATOM      3  C   UNL     1       2.080   8.639  18.296  0.00  0.00    +0.000 C 
ATOM      4  N   UNL     1       2.189   7.603  19.339  0.00  0.00    +0.000 N 
ATOM      5  C   UNL     1       2.927   6.401  19.219  0.00  0.00    +0.000 A 
ATOM      6  N   UNL     1       2.745   5.504  20.163  0.00  0.00    +0.000 NA
ATOM      7  N   UNL     1       3.170   4.253  19.880  0.00  0.00    +0.000 N 
ATOM      8  N   UNL     1       3.134   3.243  20.754  0.00  0.00    +0.000 NA
ATOM      9  N   UNL     1       3.530   2.170  20.077  0.00  0.00    +0.000 NA
ATOM     10  N   UNL     1       3.825   2.483  18.765  0.00  0.00    +0.000 NA
ATOM     11  C   UNL     1       3.608   3.780  18.665  0.00  0.00    +0.000 A 
ATOM     12  C   UNL     1       3.932   4.744  17.644  0.00  0.00    +0.000 A 
ATOM     13  C   UNL     1       4.555   4.363  16.453  0.00  0.00    +0.000 A 
ATOM     14  C   UNL     1       5.253   5.318  15.729  0.00  0.00    +0.000 A 
ATOM     15  C   UNL     1       5.362   6.620  16.223  0.00  0.00    +0.000 A 
ATOM     16  C   UNL     1       4.638   7.019  17.363  0.00  0.00    +0.000 A 
ATOM     17  C   UNL     1       3.826   6.095  18.016  0.00  0.00    +0.000 A 
ATOM     18  C   UNL     1       1.418   7.825  20.595  0.00  0.00    +0.000 C 
ATOM     19  C   UNL     1       0.198   8.770  20.508  0.00  0.00    +0.000 C 
ENDROOT
BRANCH   1  20
ATOM     20  C   UNL     1       1.116  11.013  20.327  0.00  0.00    +0.000 C 
BRANCH  20  24
ATOM     21  C   UNL     1      -0.775  13.949  22.935  0.00  0.00    +0.000 A 
ATOM     22  C   UNL     1      -1.183  12.630  22.997  0.00  0.00    +0.000 A 
ATOM     23  C   UNL     1      -0.590  11.646  22.165  0.00  0.00    +0.000 A 
ATOM     24  C   UNL     1       0.385  11.999  21.221  0.00  0.00    +0.000 A 
ATOM     25  C   UNL     1       0.785  13.340  21.187  0.00  0.00    +0.000 A 
ATOM     26  C   UNL     1       0.219  14.303  22.028  0.00  0.00    +0.000 A 
BRANCH  21  28
ATOM     27  C   UNL     1      -2.828  14.583  23.954  0.00  0.00    +0.000 C 
ATOM     28  O   UNL     1      -1.429  14.801  23.780  0.00  0.00    +0.000 OA
ENDBRANCH  21  28
ENDBRANCH  20  24
ENDBRANCH   1  20
TORSDOF 3
ENDMDL
MODEL 7
REMARK VINA RESULT:      -7.7      1.945      2.166
REMARK  Name = 
REMARK  4 active torsions:
REMARK  status: ('A' for Active; 'I' for Inactive)
REMARK    1  A    between atoms: C_1  and  O_2
REMARK    2  A    between atoms: O_2  and  C_3
REMARK    3  A    between atoms: C_6  and  C_7
REMARK    4  A    between atoms: C_7  and  N_8
REMARK                            x       y       z     vdW  Elec       q    Type
REMARK                         _______ _______ _______ _____ _____    ______ ____
ROOT
ATOM      1  N   UNL     1       0.235  10.518  19.565  0.00  0.00    +0.000 NA
ATOM      2  C   UNL     1       0.686   9.869  18.329  0.00  0.00    +0.000 C 
ATOM      3  C   UNL     1       1.848   8.845  18.407  0.00  0.00    +0.000 C 
ATOM      4  N   UNL     1       1.847   7.947  19.576  0.00  0.00    +0.000 N 
ATOM      5  C   UNL     1       2.456   6.670  19.623  0.00  0.00    +0.000 A 
ATOM      6  N   UNL     1       2.180   5.926  20.671  0.00  0.00    +0.000 NA
ATOM      7  N   UNL     1       2.472   4.611  20.558  0.00  0.00    +0.000 N 
ATOM      8  N   UNL     1       2.330   3.733  21.554  0.00  0.00    +0.000 NA
ATOM      9  N   UNL     1       2.613   2.545  21.026  0.00  0.00    +0.000 NA
ATOM     10  N   UNL     1       2.941   2.655  19.689  0.00  0.00    +0.000 NA
ATOM     11  C   UNL     1       2.861   3.943  19.420  0.00  0.00    +0.000 A 
ATOM     12  C   UNL     1       3.285   4.728  18.288  0.00  0.00    +0.000 A 
ATOM     13  C   UNL     1       3.867   4.134  17.166  0.00  0.00    +0.000 A 
ATOM     14  C   UNL     1       4.662   4.910  16.336  0.00  0.00    +0.000 A 
ATOM     15  C   UNL     1       4.905   6.246  16.660  0.00  0.00    +0.000 A 
ATOM     16  C   UNL     1       4.225   6.862  17.728  0.00  0.00    +0.000 A 
ATOM     17  C   UNL     1       3.320   6.119  18.483  0.00  0.00    +0.000 A 
ATOM     18  C   UNL     1       1.102   8.408  20.781  0.00  0.00    +0.000 C 
ATOM     19  C   UNL     1      -0.013   9.454  20.555  0.00  0.00    +0.000 C 
ENDROOT
BRANCH   1  20
ATOM     20  C   UNL     1       1.134  11.548  20.101  0.00  0.00    +0.000 C 
BRANCH  20  24
ATOM     21  C   UNL     1      -0.369  14.658  22.759  0.00  0.00    +0.000 A 
ATOM     22  C   UNL     1      -0.955  13.406  22.786  0.00  0.00    +0.000 A 
ATOM     23  C   UNL     1      -0.493  12.369  21.936  0.00  0.00    +0.000 A 
ATOM     24  C   UNL     1       0.534  12.605  21.011  0.00  0.00    +0.000 A 
ATOM     25  C   UNL     1       1.116  13.879  21.014  0.00  0.00    +0.000 A 
ATOM     26  C   UNL     1       0.678  14.891  21.872  0.00  0.00    +0.000 A 
BRANCH  21  28
ATOM     27  C   UNL     1      -0.863  16.939  23.212  0.00  0.00    +0.000 C 
ATOM     28  O   UNL     1      -0.910  15.573  23.618  0.00  0.00    +0.000 OA
ENDBRANCH  21  28
ENDBRANCH  20  24
ENDBRANCH   1  20
TORSDOF 3
ENDMDL
MODEL 8
REMARK VINA RESULT:      -7.7      3.297      4.324
REMARK  Name = 
REMARK  4 active torsions:
REMARK  status: ('A' for Active; 'I' for Inactive)
REMARK    1  A    between atoms: C_1  and  O_2
REMARK    2  A    between atoms: O_2  and  C_3
REMARK    3  A    between atoms: C_6  and  C_7
REMARK    4  A    between atoms: C_7  and  N_8
REMARK                            x       y       z     vdW  Elec       q    Type
REMARK                         _______ _______ _______ _____ _____    ______ ____
ROOT
ATOM      1  N   UNL     1       0.729  10.375  19.515  0.00  0.00    +0.000 NA
ATOM      2  C   UNL     1       1.079   9.239  20.375  0.00  0.00    +0.000 C 
ATOM      3  C   UNL     1       1.470   7.894  19.711  0.00  0.00    +0.000 C 
ATOM      4  N   UNL     1       2.295   7.985  18.492  0.00  0.00    +0.000 N 
ATOM      5  C   UNL     1       3.160   6.971  18.016  0.00  0.00    +0.000 A 
ATOM      6  N   UNL     1       3.969   7.303  17.034  0.00  0.00    +0.000 NA
ATOM      7  N   UNL     1       5.007   6.466  16.815  0.00  0.00    +0.000 N 
ATOM      8  N   UNL     1       5.875   6.611  15.810  0.00  0.00    +0.000 NA
ATOM      9  N   UNL     1       6.796   5.669  15.994  0.00  0.00    +0.000 NA
ATOM     10  N   UNL     1       6.524   4.913  17.117  0.00  0.00    +0.000 NA
ATOM     11  C   UNL     1       5.405   5.413  17.605  0.00  0.00    +0.000 A 
ATOM     12  C   UNL     1       4.491   4.944  18.616  0.00  0.00    +0.000 A 
ATOM     13  C   UNL     1       4.736   3.771  19.333  0.00  0.00    +0.000 A 
ATOM     14  C   UNL     1       3.668   3.118  19.931  0.00  0.00    +0.000 A 
ATOM     15  C   UNL     1       2.372   3.612  19.765  0.00  0.00    +0.000 A 
ATOM     16  C   UNL     1       2.152   4.853  19.136  0.00  0.00    +0.000 A 
ATOM     17  C   UNL     1       3.238   5.579  18.654  0.00  0.00    +0.000 A 
ATOM     18  C   UNL     1       2.244   9.269  17.737  0.00  0.00    +0.000 C 
ATOM     19  C   UNL     1       1.809  10.526  18.524  0.00  0.00    +0.000 C 
ENDROOT
BRANCH   1  20
ATOM     20  C   UNL     1      -0.586  10.291  18.865  0.00  0.00    +0.000 C 
BRANCH  20  24
ATOM     21  C   UNL     1      -3.657  12.948  20.449  0.00  0.00    +0.000 A 
ATOM     22  C   UNL     1      -3.894  12.272  19.266  0.00  0.00    +0.000 A 
ATOM     23  C   UNL     1      -2.919  11.399  18.721  0.00  0.00    +0.000 A 
ATOM     24  C   UNL     1      -1.671  11.242  19.340  0.00  0.00    +0.000 A 
ATOM     25  C   UNL     1      -1.463  11.930  20.541  0.00  0.00    +0.000 A 
ATOM     26  C   UNL     1      -2.436  12.769  21.092  0.00  0.00    +0.000 A 
BRANCH  21  28
ATOM     27  C   UNL     1      -5.619  13.200  21.769  0.00  0.00    +0.000 C 
ATOM     28  O   UNL     1      -4.670  13.765  20.866  0.00  0.00    +0.000 OA
ENDBRANCH  21  28
ENDBRANCH  20  24
ENDBRANCH   1  20
TORSDOF 3
ENDMDL
MODEL 9
REMARK VINA RESULT:      -7.6      3.084      4.248
REMARK  Name = 
REMARK  4 active torsions:
REMARK  status: ('A' for Active; 'I' for Inactive)
REMARK    1  A    between atoms: C_1  and  O_2
REMARK    2  A    between atoms: O_2  and  C_3
REMARK    3  A    between atoms: C_6  and  C_7
REMARK    4  A    between atoms: C_7  and  N_8
REMARK                            x       y       z     vdW  Elec       q    Type
REMARK                         _______ _______ _______ _____ _____    ______ ____
ROOT
ATOM      1  N   UNL     1       0.844  10.351  20.655  0.00  0.00    +0.000 NA
ATOM      2  C   UNL     1       1.154   9.222  21.539  0.00  0.00    +0.000 C 
ATOM      3  C   UNL     1       1.206   7.795  20.934  0.00  0.00    +0.000 C 
ATOM      4  N   UNL     1       1.812   7.678  19.595  0.00  0.00    +0.000 N 
ATOM      5  C   UNL     1       2.410   6.507  19.071  0.00  0.00    +0.000 A 
ATOM      6  N   UNL     1       3.079   6.642  17.947  0.00  0.00    +0.000 NA
ATOM      7  N   UNL     1       3.919   5.630  17.633  0.00  0.00    +0.000 N 
ATOM      8  N   UNL     1       4.611   5.571  16.492  0.00  0.00    +0.000 NA
ATOM      9  N   UNL     1       5.390   4.498  16.603  0.00  0.00    +0.000 NA
ATOM     10  N   UNL     1       5.200   3.862  17.813  0.00  0.00    +0.000 NA
ATOM     11  C   UNL     1       4.276   4.570  18.433  0.00  0.00    +0.000 A 
ATOM     12  C   UNL     1       3.488   4.320  19.613  0.00  0.00    +0.000 A 
ATOM     13  C   UNL     1       3.665   3.164  20.376  0.00  0.00    +0.000 A 
ATOM     14  C   UNL     1       2.627   2.735  21.191  0.00  0.00    +0.000 A 
ATOM     15  C   UNL     1       1.417   3.432  21.196  0.00  0.00    +0.000 A 
ATOM     16  C   UNL     1       1.289   4.656  20.510  0.00  0.00    +0.000 A 
ATOM     17  C   UNL     1       2.377   5.159  19.800  0.00  0.00    +0.000 A 
ATOM     18  C   UNL     1       1.834   8.908  18.753  0.00  0.00    +0.000 C 
ATOM     19  C   UNL     1       1.746  10.262  19.493  0.00  0.00    +0.000 C 
ENDROOT
BRANCH   1  20
ATOM     20  C   UNL     1      -0.560  10.456  20.235  0.00  0.00    +0.000 C 
BRANCH  20  24
ATOM     21  C   UNL     1      -3.076  13.365  22.288  0.00  0.00    +0.000 A 
ATOM     22  C   UNL     1      -3.081  13.324  20.906  0.00  0.00    +0.000 A 
ATOM     23  C   UNL     1      -2.276  12.391  20.203  0.00  0.00    +0.000 A 
ATOM     24  C   UNL     1      -1.416  11.525  20.893  0.00  0.00    +0.000 A 
ATOM     25  C   UNL     1      -1.439  11.582  22.291  0.00  0.00    +0.000 A 
ATOM     26  C   UNL     1      -2.253  12.483  22.982  0.00  0.00    +0.000 A 
BRANCH  21  28
ATOM     27  C   UNL     1      -4.872  13.852  23.766  0.00  0.00    +0.000 C 
ATOM     28  O   UNL     1      -3.886  14.314  22.845  0.00  0.00    +0.000 OA
ENDBRANCH  21  28
ENDBRANCH  20  24
ENDBRANCH   1  20
TORSDOF 3
ENDMDL
