MODEL 1
REMARK VINA RESULT:      -7.8      0.000      0.000
REMARK  Name = 
REMARK  6 active torsions:
REMARK  status: ('A' for Active; 'I' for Inactive)
REMARK    1  A    between atoms: C_1  and  C_2
REMARK    2  A    between atoms: C_2  and  O_4
REMARK    3  A    between atoms: O_4  and  C_5
REMARK    4  A    between atoms: C_7  and  O_8
REMARK    5  A    between atoms: C_12  and  C_13
REMARK    6  A    between atoms: C_16  and  O_17
REMARK                            x       y       z     vdW  Elec       q    Type
REMARK                         _______ _______ _______ _____ _____    ______ ____
ROOT
ATOM      1  C   UNL     1       4.803   4.331  17.006  0.00  0.00    +0.000 A 
ATOM      2  C   UNL     1       4.362   3.672  18.152  0.00  0.00    +0.000 A 
ATOM      3  C   UNL     1       3.540   4.334  19.061  0.00  0.00    +0.000 A 
ATOM      4  C   UNL     1       3.180   5.671  18.851  0.00  0.00    +0.000 A 
ATOM      5  C   UNL     1       2.326   6.426  19.800  0.00  0.00    +0.000 A 
ATOM      6  O   UNL     1       1.855   5.934  20.818  0.00  0.00    +0.000 OA
ATOM      7  C   UNL     1       2.052   7.845  19.455  0.00  0.00    +0.000 A 
ATOM      8  C   UNL     1       2.579   8.332  18.324  0.00  0.00    +0.000 A 
ATOM      9  O   UNL     1       3.362   7.644  17.429  0.00  0.00    +0.000 OA
ATOM     10  C   UNL     1       3.652   6.329  17.706  0.00  0.00    +0.000 A 
ATOM     11  C   UNL     1       4.467   5.663  16.781  0.00  0.00    +0.000 A 
ENDROOT
BRANCH   7  12
ATOM     12  C   UNL     1       1.227   8.695  20.322  0.00  0.00    +0.000 A 
ATOM     13  C   UNL     1       0.360   9.646  19.763  0.00  0.00    +0.000 A 
ATOM     14  C   UNL     1      -0.427  10.458  20.585  0.00  0.00    +0.000 A 
ATOM     15  C   UNL     1      -0.346  10.314  21.967  0.00  0.00    +0.000 A 
ATOM     16  C   UNL     1       0.500   9.369  22.536  0.00  0.00    +0.000 A 
ATOM     17  C   UNL     1       1.287   8.559  21.716  0.00  0.00    +0.000 A 
BRANCH  15  18
ATOM     18  O   UNL     1      -1.089  11.090  22.806  0.00  0.00    +0.000 OA
ATOM     19  H   UNL     1      -2.016  10.812  22.744  0.00  0.00    +0.000 HD
ENDBRANCH  15  18
ENDBRANCH   7  12
BRANCH   3  20
ATOM     20  O   UNL     1       3.117   3.648  20.163  0.00  0.00    +0.000 OA
ATOM     21  H   UNL     1       3.580   3.965  20.955  0.00  0.00    +0.000 HD
ENDBRANCH   3  20
BRANCH   1  22
ATOM     22  O   UNL     1       5.714   3.713  16.129  0.00  0.00    +0.000 OA
BRANCH  22  24
ATOM     23  C   UNL     1       7.035   4.856  14.545  0.00  0.00    +0.000 C 
ATOM     24  C   UNL     1       6.947   4.339  15.948  0.00  0.00    +0.000 C 
ATOM     25  O   UNL     1       7.820   4.489  16.794  0.00  0.00    +0.000 OA
ENDBRANCH  22  24
ENDBRANCH   1  22
TORSDOF 5
ENDMDL
MODEL 2
REMARK VINA RESULT:      -7.8      0.051      1.010
REMARK  Name = 
REMARK  6 active torsions:
REMARK  status: ('A' for Active; 'I' for Inactive)
REMARK    1  A    between atoms: C_1  and  C_2
REMARK    2  A    between atoms: C_2  and  O_4
REMARK    3  A    between atoms: O_4  and  C_5
REMARK    4  A    between atoms: C_7  and  O_8
REMARK    5  A    between atoms: C_12  and  C_13
REMARK    6  A    between atoms: C_16  and  O_17
REMARK                            x       y       z     vdW  Elec       q    Type
REMARK                         _______ _______ _______ _____ _____    ______ ____
ROOT
ATOM      1  C   UNL     1       4.827   4.310  16.984  0.00  0.00    +0.000 A 
ATOM      2  C   UNL     1       4.377   3.640  18.121  0.00  0.00    +0.000 A 
ATOM      3  C   UNL     1       3.552   4.295  19.032  0.00  0.00    +0.000 A 
ATOM      4  C   UNL     1       3.196   5.635  18.834  0.00  0.00    +0.000 A 
ATOM      5  C   UNL     1       2.338   6.382  19.786  0.00  0.00    +0.000 A 
ATOM      6  O   UNL     1       1.861   5.880  20.796  0.00  0.00    +0.000 OA
ATOM      7  C   UNL     1       2.069   7.805  19.454  0.00  0.00    +0.000 A 
ATOM      8  C   UNL     1       2.604   8.303  18.332  0.00  0.00    +0.000 A 
ATOM      9  O   UNL     1       3.390   7.622  17.434  0.00  0.00    +0.000 OA
ATOM     10  C   UNL     1       3.675   6.304  17.699  0.00  0.00    +0.000 A 
ATOM     11  C   UNL     1       4.494   5.646  16.772  0.00  0.00    +0.000 A 
ENDROOT
BRANCH   7  12
ATOM     12  C   UNL     1       1.241   8.648  20.326  0.00  0.00    +0.000 A 
ATOM     13  C   UNL     1       1.310   8.506  21.720  0.00  0.00    +0.000 A 
ATOM     14  C   UNL     1       0.523   9.307  22.553  0.00  0.00    +0.000 A 
ATOM     15  C   UNL     1      -0.332  10.248  21.988  0.00  0.00    +0.000 A 
ATOM     16  C   UNL     1      -0.403  10.408  20.609  0.00  0.00    +0.000 A 
ATOM     17  C   UNL     1       0.382   9.609  19.777  0.00  0.00    +0.000 A 
BRANCH  15  18
ATOM     18  O   UNL     1      -1.123  11.044  22.762  0.00  0.00    +0.000 OA
ATOM     19  H   UNL     1      -1.826  11.416  22.206  0.00  0.00    +0.000 HD
ENDBRANCH  15  18
ENDBRANCH   7  12
BRANCH   3  20
ATOM     20  O   UNL     1       3.121   3.598  20.124  0.00  0.00    +0.000 OA
ATOM     21  H   UNL     1       3.521   2.714  20.138  0.00  0.00    +0.000 HD
ENDBRANCH   3  20
BRANCH   1  22
ATOM     22  O   UNL     1       5.740   3.700  16.106  0.00  0.00    +0.000 OA
BRANCH  22  24
ATOM     23  C   UNL     1       7.081   4.812  14.516  0.00  0.00    +0.000 C 
ATOM     24  C   UNL     1       6.972   4.330  15.930  0.00  0.00    +0.000 C 
ATOM     25  O   UNL     1       7.829   4.508  16.787  0.00  0.00    +0.000 OA
ENDBRANCH  22  24
ENDBRANCH   1  22
TORSDOF 5
ENDMDL
MODEL 3
REMARK VINA RESULT:      -7.7      1.472      7.974
REMARK  Name = 
REMARK  6 active torsions:
REMARK  status: ('A' for Active; 'I' for Inactive)
REMARK    1  A    between atoms: C_1  and  C_2
REMARK    2  A    between atoms: C_2  and  O_4
REMARK    3  A    between atoms: O_4  and  C_5
REMARK    4  A    between atoms: C_7  and  O_8
REMARK    5  A    between atoms: C_12  and  C_13
REMARK    6  A    between atoms: C_16  and  O_17
REMARK                            x       y       z     vdW  Elec       q    Type
REMARK                         _______ _______ _______ _____ _____    ______ ____
ROOT
ATOM      1  C   UNL     1       0.082   8.641  21.106  0.00  0.00    +0.000 A 
ATOM      2  C   UNL     1       0.277   9.523  20.044  0.00  0.00    +0.000 A 
ATOM      3  C   UNL     1       1.210   9.222  19.054  0.00  0.00    +0.000 A 
ATOM      4  C   UNL     1       1.979   8.055  19.133  0.00  0.00    +0.000 A 
ATOM      5  C   UNL     1       3.000   7.702  18.116  0.00  0.00    +0.000 A 
ATOM      6  O   UNL     1       3.227   8.387  17.127  0.00  0.00    +0.000 OA
ATOM      7  C   UNL     1       3.757   6.445  18.350  0.00  0.00    +0.000 A 
ATOM      8  C   UNL     1       3.462   5.725  19.441  0.00  0.00    +0.000 A 
ATOM      9  O   UNL     1       2.512   6.032  20.386  0.00  0.00    +0.000 OA
ATOM     10  C   UNL     1       1.790   7.189  20.219  0.00  0.00    +0.000 A 
ATOM     11  C   UNL     1       0.843   7.480  21.211  0.00  0.00    +0.000 A 
ENDROOT
BRANCH   7  12
ATOM     12  C   UNL     1       4.798   5.996  17.417  0.00  0.00    +0.000 A 
ATOM     13  C   UNL     1       6.096   6.520  17.501  0.00  0.00    +0.000 A 
ATOM     14  C   UNL     1       7.090   6.096  16.614  0.00  0.00    +0.000 A 
ATOM     15  C   UNL     1       6.781   5.146  15.645  0.00  0.00    +0.000 A 
ATOM     16  C   UNL     1       5.502   4.610  15.556  0.00  0.00    +0.000 A 
ATOM     17  C   UNL     1       4.509   5.033  16.441  0.00  0.00    +0.000 A 
BRANCH  15  18
ATOM     18  O   UNL     1       7.716   4.710  14.755  0.00  0.00    +0.000 OA
ATOM     19  H   UNL     1       8.593   4.989  15.065  0.00  0.00    +0.000 HD
ENDBRANCH  15  18
ENDBRANCH   7  12
BRANCH   3  20
ATOM     20  O   UNL     1       1.359  10.105  18.024  0.00  0.00    +0.000 OA
ATOM     21  H   UNL     1       0.689  10.806  18.081  0.00  0.00    +0.000 HD
ENDBRANCH   3  20
BRANCH   1  22
ATOM     22  O   UNL     1      -0.781   8.974  22.166  0.00  0.00    +0.000 OA
BRANCH  22  24
ATOM     23  C   UNL     1      -1.149  11.138  23.028  0.00  0.00    +0.000 C 
ATOM     24  C   UNL     1      -0.312   9.898  23.101  0.00  0.00    +0.000 C 
ATOM     25  O   UNL     1       0.608   9.733  23.891  0.00  0.00    +0.000 OA
ENDBRANCH  22  24
ENDBRANCH   1  22
TORSDOF 5
ENDMDL
MODEL 4
REMARK VINA RESULT:      -7.7      1.471      7.955
REMARK  Name = 
REMARK  6 active torsions:
REMARK  status: ('A' for Active; 'I' for Inactive)
REMARK    1  A    between atoms: C_1  and  C_2
REMARK    2  A    between atoms: C_2  and  O_4
REMARK    3  A    between atoms: O_4  and  C_5
REMARK    4  A    between atoms: C_7  and  O_8
REMARK    5  A    between atoms: C_12  and  C_13
REMARK    6  A    between atoms: C_16  and  O_17
REMARK                            x       y       z     vdW  Elec       q    Type
REMARK                         _______ _______ _______ _____ _____    ______ ____
ROOT
ATOM      1  C   UNL     1       0.070   8.653  21.105  0.00  0.00    +0.000 A 
ATOM      2  C   UNL     1       0.265   9.533  20.042  0.00  0.00    +0.000 A 
ATOM      3  C   UNL     1       1.195   9.230  19.051  0.00  0.00    +0.000 A 
ATOM      4  C   UNL     1       1.963   8.062  19.130  0.00  0.00    +0.000 A 
ATOM      5  C   UNL     1       2.981   7.706  18.111  0.00  0.00    +0.000 A 
ATOM      6  O   UNL     1       3.208   8.389  17.121  0.00  0.00    +0.000 OA
ATOM      7  C   UNL     1       3.737   6.448  18.346  0.00  0.00    +0.000 A 
ATOM      8  C   UNL     1       3.443   5.730  19.437  0.00  0.00    +0.000 A 
ATOM      9  O   UNL     1       2.495   6.040  20.384  0.00  0.00    +0.000 OA
ATOM     10  C   UNL     1       1.775   7.197  20.218  0.00  0.00    +0.000 A 
ATOM     11  C   UNL     1       0.830   7.491  21.210  0.00  0.00    +0.000 A 
ENDROOT
BRANCH   7  12
ATOM     12  C   UNL     1       4.775   5.997  17.411  0.00  0.00    +0.000 A 
ATOM     13  C   UNL     1       4.486   5.011  16.455  0.00  0.00    +0.000 A 
ATOM     14  C   UNL     1       5.472   4.579  15.563  0.00  0.00    +0.000 A 
ATOM     15  C   UNL     1       6.747   5.135  15.631  0.00  0.00    +0.000 A 
ATOM     16  C   UNL     1       7.045   6.119  16.566  0.00  0.00    +0.000 A 
ATOM     17  C   UNL     1       6.061   6.552  17.456  0.00  0.00    +0.000 A 
BRANCH  15  18
ATOM     18  O   UNL     1       7.740   4.737  14.787  0.00  0.00    +0.000 OA
ATOM     19  H   UNL     1       7.952   5.472  14.190  0.00  0.00    +0.000 HD
ENDBRANCH  15  18
ENDBRANCH   7  12
BRANCH   3  20
ATOM     20  O   UNL     1       1.344  10.112  18.019  0.00  0.00    +0.000 OA
ATOM     21  H   UNL     1       1.885   9.718  17.315  0.00  0.00    +0.000 HD
ENDBRANCH   3  20
BRANCH   1  22
ATOM     22  O   UNL     1      -0.790   8.989  22.166  0.00  0.00    +0.000 OA
BRANCH  22  24
ATOM     23  C   UNL     1      -1.152  11.148  23.045  0.00  0.00    +0.000 C 
ATOM     24  C   UNL     1      -0.315   9.906  23.104  0.00  0.00    +0.000 C 
ATOM     25  O   UNL     1       0.610   9.735  23.888  0.00  0.00    +0.000 OA
ENDBRANCH  22  24
ENDBRANCH   1  22
TORSDOF 5
ENDMDL
MODEL 5
REMARK VINA RESULT:      -7.6      1.461      2.028
REMARK  Name = 
REMARK  6 active torsions:
REMARK  status: ('A' for Active; 'I' for Inactive)
REMARK    1  A    between atoms: C_1  and  C_2
REMARK    2  A    between atoms: C_2  and  O_4
REMARK    3  A    between atoms: O_4  and  C_5
REMARK    4  A    between atoms: C_7  and  O_8
REMARK    5  A    between atoms: C_12  and  C_13
REMARK    6  A    between atoms: C_16  and  O_17
REMARK                            x       y       z     vdW  Elec       q    Type
REMARK                         _______ _______ _______ _____ _____    ______ ____
ROOT
ATOM      1  C   UNL     1       4.687   5.349  17.715  0.00  0.00    +0.000 A 
ATOM      2  C   UNL     1       4.203   4.957  18.962  0.00  0.00    +0.000 A 
ATOM      3  C   UNL     1       3.258   5.742  19.619  0.00  0.00    +0.000 A 
ATOM      4  C   UNL     1       2.813   6.943  19.051  0.00  0.00    +0.000 A 
ATOM      5  C   UNL     1       1.825   7.824  19.721  0.00  0.00    +0.000 A 
ATOM      6  O   UNL     1       1.311   7.558  20.800  0.00  0.00    +0.000 OA
ATOM      7  C   UNL     1       1.471   9.079  19.008  0.00  0.00    +0.000 A 
ATOM      8  C   UNL     1       2.052   9.317  17.825  0.00  0.00    +0.000 A 
ATOM      9  O   UNL     1       2.960   8.506  17.186  0.00  0.00    +0.000 OA
ATOM     10  C   UNL     1       3.327   7.338  17.808  0.00  0.00    +0.000 A 
ATOM     11  C   UNL     1       4.267   6.544  17.137  0.00  0.00    +0.000 A 
ENDROOT
BRANCH   7  12
ATOM     12  C   UNL     1       0.512  10.034  19.576  0.00  0.00    +0.000 A 
ATOM     13  C   UNL     1       0.799  10.693  20.782  0.00  0.00    +0.000 A 
ATOM     14  C   UNL     1      -0.113  11.602  21.326  0.00  0.00    +0.000 A 
ATOM     15  C   UNL     1      -1.310  11.852  20.661  0.00  0.00    +0.000 A 
ATOM     16  C   UNL     1      -1.603  11.215  19.461  0.00  0.00    +0.000 A 
ATOM     17  C   UNL     1      -0.694  10.307  18.917  0.00  0.00    +0.000 A 
BRANCH  15  18
ATOM     18  O   UNL     1      -2.230  12.724  21.160  0.00  0.00    +0.000 OA
ATOM     19  H   UNL     1      -1.960  13.627  20.926  0.00  0.00    +0.000 HD
ENDBRANCH  15  18
ENDBRANCH   7  12
BRANCH   3  20
ATOM     20  O   UNL     1       2.799   5.315  20.831  0.00  0.00    +0.000 OA
ATOM     21  H   UNL     1       3.537   5.207  21.452  0.00  0.00    +0.000 HD
ENDBRANCH   3  20
BRANCH   1  22
ATOM     22  O   UNL     1       5.713   4.624  17.084  0.00  0.00    +0.000 OA
BRANCH  22  24
ATOM     23  C   UNL     1       7.643   5.236  18.293  0.00  0.00    +0.000 C 
ATOM     24  C   UNL     1       6.954   5.250  16.963  0.00  0.00    +0.000 C 
ATOM     25  O   UNL     1       7.441   5.711  15.939  0.00  0.00    +0.000 OA
ENDBRANCH  22  24
ENDBRANCH   1  22
TORSDOF 5
ENDMDL
MODEL 6
REMARK VINA RESULT:      -7.6      1.446      1.810
REMARK  Name = 
REMARK  6 active torsions:
REMARK  status: ('A' for Active; 'I' for Inactive)
REMARK    1  A    between atoms: C_1  and  C_2
REMARK    2  A    between atoms: C_2  and  O_4
REMARK    3  A    between atoms: O_4  and  C_5
REMARK    4  A    between atoms: C_7  and  O_8
REMARK    5  A    between atoms: C_12  and  C_13
REMARK    6  A    between atoms: C_16  and  O_17
REMARK                            x       y       z     vdW  Elec       q    Type
REMARK                         _______ _______ _______ _____ _____    ______ ____
ROOT
ATOM      1  C   UNL     1       4.695   5.311  17.794  0.00  0.00    +0.000 A 
ATOM      2  C   UNL     1       4.210   4.933  19.045  0.00  0.00    +0.000 A 
ATOM      3  C   UNL     1       3.260   5.724  19.689  0.00  0.00    +0.000 A 
ATOM      4  C   UNL     1       2.813   6.914  19.105  0.00  0.00    +0.000 A 
ATOM      5  C   UNL     1       1.820   7.800  19.761  0.00  0.00    +0.000 A 
ATOM      6  O   UNL     1       1.304   7.547  20.842  0.00  0.00    +0.000 OA
ATOM      7  C   UNL     1       1.463   9.045  19.030  0.00  0.00    +0.000 A 
ATOM      8  C   UNL     1       2.045   9.269  17.845  0.00  0.00    +0.000 A 
ATOM      9  O   UNL     1       2.957   8.454  17.219  0.00  0.00    +0.000 OA
ATOM     10  C   UNL     1       3.327   7.295  17.857  0.00  0.00    +0.000 A 
ATOM     11  C   UNL     1       4.272   6.496  17.199  0.00  0.00    +0.000 A 
ENDROOT
BRANCH   7  12
ATOM     12  C   UNL     1       0.498  10.003  19.583  0.00  0.00    +0.000 A 
ATOM     13  C   UNL     1      -0.682  10.302  18.886  0.00  0.00    +0.000 A 
ATOM     14  C   UNL     1      -1.603  11.214  19.409  0.00  0.00    +0.000 A 
ATOM     15  C   UNL     1      -1.340  11.826  20.631  0.00  0.00    +0.000 A 
ATOM     16  C   UNL     1      -0.181  11.533  21.339  0.00  0.00    +0.000 A 
ATOM     17  C   UNL     1       0.739  10.622  20.818  0.00  0.00    +0.000 A 
BRANCH  15  18
ATOM     18  O   UNL     1      -2.206  12.727  21.174  0.00  0.00    +0.000 OA
ATOM     19  H   UNL     1      -2.982  12.249  21.508  0.00  0.00    +0.000 HD
ENDBRANCH  15  18
ENDBRANCH   7  12
BRANCH   3  20
ATOM     20  O   UNL     1       2.800   5.310  20.906  0.00  0.00    +0.000 OA
ATOM     21  H   UNL     1       1.854   5.098  20.854  0.00  0.00    +0.000 HD
ENDBRANCH   3  20
BRANCH   1  22
ATOM     22  O   UNL     1       5.726   4.581  17.175  0.00  0.00    +0.000 OA
BRANCH  22  24
ATOM     23  C   UNL     1       7.671   5.346  18.268  0.00  0.00    +0.000 C 
ATOM     24  C   UNL     1       6.937   5.242  16.966  0.00  0.00    +0.000 C 
ATOM     25  O   UNL     1       7.371   5.647  15.895  0.00  0.00    +0.000 OA
ENDBRANCH  22  24
ENDBRANCH   1  22
TORSDOF 5
ENDMDL
MODEL 7
REMARK VINA RESULT:      -7.4      2.236      8.086
REMARK  Name = 
REMARK  6 active torsions:
REMARK  status: ('A' for Active; 'I' for Inactive)
REMARK    1  A    between atoms: C_1  and  C_2
REMARK    2  A    between atoms: C_2  and  O_4
REMARK    3  A    between atoms: O_4  and  C_5
REMARK    4  A    between atoms: C_7  and  O_8
REMARK    5  A    between atoms: C_12  and  C_13
REMARK    6  A    between atoms: C_16  and  O_17
REMARK                            x       y       z     vdW  Elec       q    Type
REMARK                         _______ _______ _______ _____ _____    ______ ____
ROOT
ATOM      1  C   UNL     1       0.491  11.297  20.500  0.00  0.00    +0.000 A 
ATOM      2  C   UNL     1       0.997  11.396  19.205  0.00  0.00    +0.000 A 
ATOM      3  C   UNL     1       1.525  10.270  18.577  0.00  0.00    +0.000 A 
ATOM      4  C   UNL     1       1.583   9.043  19.250  0.00  0.00    +0.000 A 
ATOM      5  C   UNL     1       2.155   7.821  18.633  0.00  0.00    +0.000 A 
ATOM      6  O   UNL     1       2.594   7.788  17.491  0.00  0.00    +0.000 OA
ATOM      7  C   UNL     1       2.172   6.601  19.481  0.00  0.00    +0.000 A 
ATOM      8  C   UNL     1       1.668   6.686  20.719  0.00  0.00    +0.000 A 
ATOM      9  O   UNL     1       1.124   7.806  21.301  0.00  0.00    +0.000 OA
ATOM     10  C   UNL     1       1.092   8.964  20.561  0.00  0.00    +0.000 A 
ATOM     11  C   UNL     1       0.547  10.090  21.192  0.00  0.00    +0.000 A 
ENDROOT
BRANCH   7  12
ATOM     12  C   UNL     1       2.721   5.333  18.982  0.00  0.00    +0.000 A 
ATOM     13  C   UNL     1       1.922   4.467  18.221  0.00  0.00    +0.000 A 
ATOM     14  C   UNL     1       2.441   3.260  17.745  0.00  0.00    +0.000 A 
ATOM     15  C   UNL     1       3.761   2.923  18.032  0.00  0.00    +0.000 A 
ATOM     16  C   UNL     1       4.568   3.775  18.775  0.00  0.00    +0.000 A 
ATOM     17  C   UNL     1       4.051   4.981  19.251  0.00  0.00    +0.000 A 
BRANCH  15  18
ATOM     18  O   UNL     1       4.305   1.752  17.595  0.00  0.00    +0.000 OA
ATOM     19  H   UNL     1       3.935   1.024  18.119  0.00  0.00    +0.000 HD
ENDBRANCH  15  18
ENDBRANCH   7  12
BRANCH   3  20
ATOM     20  O   UNL     1       1.997  10.406  17.304  0.00  0.00    +0.000 OA
ATOM     21  H   UNL     1       2.500  11.232  17.218  0.00  0.00    +0.000 HD
ENDBRANCH   3  20
BRANCH   1  22
ATOM     22  O   UNL     1       0.047  12.442  21.185  0.00  0.00    +0.000 OA
BRANCH  22  24
ATOM     23  C   UNL     1      -1.384  12.734  23.037  0.00  0.00    +0.000 C 
ATOM     24  C   UNL     1      -1.295  12.477  21.564  0.00  0.00    +0.000 C 
ATOM     25  O   UNL     1      -2.264  12.358  20.825  0.00  0.00    +0.000 OA
ENDBRANCH  22  24
ENDBRANCH   1  22
TORSDOF 5
ENDMDL
MODEL 8
REMARK VINA RESULT:      -7.4      2.203      8.101
REMARK  Name = 
REMARK  6 active torsions:
REMARK  status: ('A' for Active; 'I' for Inactive)
REMARK    1  A    between atoms: C_1  and  C_2
REMARK    2  A    between atoms: C_2  and  O_4
REMARK    3  A    between atoms: O_4  and  C_5
REMARK    4  A    between atoms: C_7  and  O_8
REMARK    5  A    between atoms: C_12  and  C_13
REMARK    6  A    between atoms: C_16  and  O_17
REMARK                            x       y       z     vdW  Elec       q    Type
REMARK                         _______ _______ _______ _____ _____    ______ ____
ROOT
ATOM      1  C   UNL     1       0.425  11.358  20.545  0.00  0.00    +0.000 A 
ATOM      2  C   UNL     1       0.948  11.471  19.257  0.00  0.00    +0.000 A 
ATOM      3  C   UNL     1       1.496  10.355  18.630  0.00  0.00    +0.000 A 
ATOM      4  C   UNL     1       1.558   9.124  19.295  0.00  0.00    +0.000 A 
ATOM      5  C   UNL     1       2.152   7.913  18.678  0.00  0.00    +0.000 A 
ATOM      6  O   UNL     1       2.607   7.893  17.541  0.00  0.00    +0.000 OA
ATOM      7  C   UNL     1       2.171   6.687  19.518  0.00  0.00    +0.000 A 
ATOM      8  C   UNL     1       1.650   6.758  20.749  0.00  0.00    +0.000 A 
ATOM      9  O   UNL     1       1.086   7.868  21.331  0.00  0.00    +0.000 OA
ATOM     10  C   UNL     1       1.051   9.030  20.599  0.00  0.00    +0.000 A 
ATOM     11  C   UNL     1       0.485  10.147  21.229  0.00  0.00    +0.000 A 
ENDROOT
BRANCH   7  12
ATOM     12  C   UNL     1       2.741   5.429  19.018  0.00  0.00    +0.000 A 
ATOM     13  C   UNL     1       4.039   5.045  19.387  0.00  0.00    +0.000 A 
ATOM     14  C   UNL     1       4.585   3.849  18.913  0.00  0.00    +0.000 A 
ATOM     15  C   UNL     1       3.830   3.038  18.071  0.00  0.00    +0.000 A 
ATOM     16  C   UNL     1       2.538   3.400  17.706  0.00  0.00    +0.000 A 
ATOM     17  C   UNL     1       1.992   4.594  18.178  0.00  0.00    +0.000 A 
BRANCH  15  18
ATOM     18  O   UNL     1       4.326   1.868  17.580  0.00  0.00    +0.000 OA
ATOM     19  H   UNL     1       3.602   1.377  17.159  0.00  0.00    +0.000 HD
ENDBRANCH  15  18
ENDBRANCH   7  12
BRANCH   3  20
ATOM     20  O   UNL     1       1.984  10.505  17.364  0.00  0.00    +0.000 OA
ATOM     21  H   UNL     1       1.800  11.400  17.036  0.00  0.00    +0.000 HD
ENDBRANCH   3  20
BRANCH   1  22
ATOM     22  O   UNL     1      -0.040  12.493  21.232  0.00  0.00    +0.000 OA
BRANCH  22  24
ATOM     23  C   UNL     1      -2.361  12.476  20.808  0.00  0.00    +0.000 C 
ATOM     24  C   UNL     1      -1.287  12.396  21.850  0.00  0.00    +0.000 C 
ATOM     25  O   UNL     1      -1.498  12.232  23.045  0.00  0.00    +0.000 OA
ENDBRANCH  22  24
ENDBRANCH   1  22
TORSDOF 5
ENDMDL
MODEL 9
REMARK VINA RESULT:      -7.4      1.461      8.204
REMARK  Name = 
REMARK  6 active torsions:
REMARK  status: ('A' for Active; 'I' for Inactive)
REMARK    1  A    between atoms: C_1  and  C_2
REMARK    2  A    between atoms: C_2  and  O_4
REMARK    3  A    between atoms: O_4  and  C_5
REMARK    4  A    between atoms: C_7  and  O_8
REMARK    5  A    between atoms: C_12  and  C_13
REMARK    6  A    between atoms: C_16  and  O_17
REMARK                            x       y       z     vdW  Elec       q    Type
REMARK                         _______ _______ _______ _____ _____    ______ ____
ROOT
ATOM      1  C   UNL     1      -0.130   9.991  21.366  0.00  0.00    +0.000 A 
ATOM      2  C   UNL     1       0.067  10.660  20.159  0.00  0.00    +0.000 A 
ATOM      3  C   UNL     1       0.821  10.064  19.150  0.00  0.00    +0.000 A 
ATOM      4  C   UNL     1       1.412   8.811  19.350  0.00  0.00    +0.000 A 
ATOM      5  C   UNL     1       2.241   8.146  18.314  0.00  0.00    +0.000 A 
ATOM      6  O   UNL     1       2.449   8.628  17.209  0.00  0.00    +0.000 OA
ATOM      7  C   UNL     1       2.825   6.830  18.683  0.00  0.00    +0.000 A 
ATOM      8  C   UNL     1       2.558   6.340  19.901  0.00  0.00    +0.000 A 
ATOM      9  O   UNL     1       1.783   6.938  20.866  0.00  0.00    +0.000 OA
ATOM     10  C   UNL     1       1.226   8.160  20.578  0.00  0.00    +0.000 A 
ATOM     11  C   UNL     1       0.457   8.748  21.591  0.00  0.00    +0.000 A 
ENDROOT
BRANCH   7  12
ATOM     12  C   UNL     1       3.670   6.081  17.744  0.00  0.00    +0.000 A 
ATOM     13  C   UNL     1       3.459   4.709  17.543  0.00  0.00    +0.000 A 
ATOM     14  C   UNL     1       4.261   3.992  16.651  0.00  0.00    +0.000 A 
ATOM     15  C   UNL     1       5.274   4.652  15.960  0.00  0.00    +0.000 A 
ATOM     16  C   UNL     1       5.488   6.013  16.140  0.00  0.00    +0.000 A 
ATOM     17  C   UNL     1       4.687   6.730  17.031  0.00  0.00    +0.000 A 
BRANCH  15  18
ATOM     18  O   UNL     1       6.084   3.991  15.087  0.00  0.00    +0.000 OA
ATOM     19  H   UNL     1       6.805   3.576  15.587  0.00  0.00    +0.000 HD
ENDBRANCH  15  18
ENDBRANCH   7  12
BRANCH   3  20
ATOM     20  O   UNL     1       0.977  10.747  17.978  0.00  0.00    +0.000 OA
ATOM     21  H   UNL     1       0.404  10.370  17.290  0.00  0.00    +0.000 HD
ENDBRANCH   3  20
BRANCH   1  22
ATOM     22  O   UNL     1      -0.802  10.617  22.431  0.00  0.00    +0.000 OA
BRANCH  22  24
ATOM     23  C   UNL     1      -2.373  12.375  22.386  0.00  0.00    +0.000 C 
ATOM     24  C   UNL     1      -0.921  12.006  22.380  0.00  0.00    +0.000 C 
ATOM     25  O   UNL     1      -0.004  12.816  22.369  0.00  0.00    +0.000 OA
ENDBRANCH  22  24
ENDBRANCH   1  22
TORSDOF 5
ENDMDL
