MODEL 1
REMARK VINA RESULT:      -5.4      0.000      0.000
REMARK  Name = 
REMARK  5 active torsions:
REMARK  status: ('A' for Active; 'I' for Inactive)
REMARK    1  A    between atoms: C_1  and  C_2
REMARK    2  A    between atoms: C_2  and  C_3
REMARK    3  A    between atoms: C_8  and  C_9
REMARK    4  A    between atoms: C_8  and  C_10
REMARK    5  A    between atoms: C_13  and  C_14
REMARK                            x       y       z     vdW  Elec       q    Type
REMARK                         _______ _______ _______ _____ _____    ______ ____
ROOT
ATOM      1  C   UNL     1       6.537   5.495  20.047  0.00  0.00    +0.000 C 
ATOM      2  C   UNL     1       6.685   5.321  18.521  0.00  0.00    +0.000 C 
ATOM      3  C   UNL     1       8.228   5.454  18.378  0.00  0.00    +0.000 C 
ATOM      4  O   UNL     1       6.273   6.372  17.653  0.00  0.00    +0.000 OA
ATOM      5  C   UNL     1       5.071   6.481  16.921  0.00  0.00    +0.000 C 
ATOM      6  C   UNL     1       4.585   5.379  15.964  0.00  0.00    +0.000 C 
ATOM      7  O   UNL     1       5.213   5.481  14.680  0.00  0.00    +0.000 OA
ATOM      8  C   UNL     1       6.091   4.366  14.559  0.00  0.00    +0.000 C 
ATOM      9  C   UNL     1       5.973   3.779  13.155  0.00  0.00    +0.000 C 
ATOM     10  C   UNL     1       7.527   4.840  14.751  0.00  0.00    +0.000 C 
ATOM     11  O   UNL     1       5.781   3.387  15.554  0.00  0.00    +0.000 OA
ATOM     12  C   UNL     1       4.706   3.938  16.366  0.00  0.00    +0.000 C 
ATOM     13  C   UNL     1       4.943   3.670  17.862  0.00  0.00    +0.000 C 
ATOM     14  O   UNL     1       6.309   3.998  18.188  0.00  0.00    +0.000 OA
ENDROOT
BRANCH  13  15
ATOM     15  C   UNL     1       3.749   3.963  18.907  0.00  0.00    +0.000 C 
ATOM     16  S   UNL     1       3.841   2.846  20.350  0.00  0.00    +0.000 S 
ATOM     17  C   UNL     1       2.306   3.271  21.210  0.00  0.00    +0.000 C 
ATOM     18  C   UNL     1       1.174   2.594  20.465  0.00  0.00    +0.000 C 
ATOM     19  C   UNL     1       0.811   3.294  19.175  0.00  0.00    +0.000 C 
ATOM     20  S   UNL     1       2.024   4.337  18.335  0.00  0.00    +0.000 S 
ENDBRANCH  13  15
TORSDOF 1
ENDMDL
MODEL 2
REMARK VINA RESULT:      -5.0      8.607     10.193
REMARK  Name = 
REMARK  5 active torsions:
REMARK  status: ('A' for Active; 'I' for Inactive)
REMARK    1  A    between atoms: C_1  and  C_2
REMARK    2  A    between atoms: C_2  and  C_3
REMARK    3  A    between atoms: C_8  and  C_9
REMARK    4  A    between atoms: C_8  and  C_10
REMARK    5  A    between atoms: C_13  and  C_14
REMARK                            x       y       z     vdW  Elec       q    Type
REMARK                         _______ _______ _______ _____ _____    ______ ____
ROOT
ATOM      1  C   UNL     1      -1.271  11.006  22.892  0.00  0.00    +0.000 C 
ATOM      2  C   UNL     1      -0.931  12.315  22.149  0.00  0.00    +0.000 C 
ATOM      3  C   UNL     1      -1.265  13.354  23.258  0.00  0.00    +0.000 C 
ATOM      4  O   UNL     1      -1.794  12.780  21.118  0.00  0.00    +0.000 OA
ATOM      5  C   UNL     1      -1.637  12.651  19.721  0.00  0.00    +0.000 C 
ATOM      6  C   UNL     1      -0.366  13.110  18.987  0.00  0.00    +0.000 C 
ATOM      7  O   UNL     1      -0.395  14.516  18.712  0.00  0.00    +0.000 OA
ATOM      8  C   UNL     1       0.588  15.122  19.546  0.00  0.00    +0.000 C 
ATOM      9  C   UNL     1       1.357  16.168  18.744  0.00  0.00    +0.000 C 
ATOM     10  C   UNL     1      -0.107  15.832  20.701  0.00  0.00    +0.000 C 
ATOM     11  O   UNL     1       1.469  14.124  20.069  0.00  0.00    +0.000 OA
ATOM     12  C   UNL     1       0.981  12.839  19.591  0.00  0.00    +0.000 C 
ATOM     13  C   UNL     1       1.023  11.777  20.704  0.00  0.00    +0.000 C 
ATOM     14  O   UNL     1       0.464  12.337  21.909  0.00  0.00    +0.000 OA
ENDROOT
BRANCH  13  15
ATOM     15  C   UNL     1       0.776  10.231  20.317  0.00  0.00    +0.000 C 
ATOM     16  S   UNL     1       1.381   9.113  21.630  0.00  0.00    +0.000 S 
ATOM     17  C   UNL     1       1.153   7.500  20.839  0.00  0.00    +0.000 C 
ATOM     18  C   UNL     1       2.284   7.326  19.847  0.00  0.00    +0.000 C 
ATOM     19  C   UNL     1       2.092   8.131  18.582  0.00  0.00    +0.000 C 
ATOM     20  S   UNL     1       1.044   9.602  18.592  0.00  0.00    +0.000 S 
ENDBRANCH  13  15
TORSDOF 1
ENDMDL
MODEL 3
REMARK VINA RESULT:      -4.7     10.055     11.385
REMARK  Name = 
REMARK  5 active torsions:
REMARK  status: ('A' for Active; 'I' for Inactive)
REMARK    1  A    between atoms: C_1  and  C_2
REMARK    2  A    between atoms: C_2  and  C_3
REMARK    3  A    between atoms: C_8  and  C_9
REMARK    4  A    between atoms: C_8  and  C_10
REMARK    5  A    between atoms: C_13  and  C_14
REMARK                            x       y       z     vdW  Elec       q    Type
REMARK                         _______ _______ _______ _____ _____    ______ ____
ROOT
ATOM      1  C   UNL     1       8.896  17.266  21.248  0.00  0.00    +0.000 C 
ATOM      2  C   UNL     1       9.776  16.171  20.611  0.00  0.00    +0.000 C 
ATOM      3  C   UNL     1      11.061  16.314  21.477  0.00  0.00    +0.000 C 
ATOM      4  O   UNL     1      10.334  16.384  19.319  0.00  0.00    +0.000 OA
ATOM      5  C   UNL     1       9.874  15.896  18.077  0.00  0.00    +0.000 C 
ATOM      6  C   UNL     1       9.622  14.400  17.819  0.00  0.00    +0.000 C 
ATOM      7  O   UNL     1      10.833  13.712  17.483  0.00  0.00    +0.000 OA
ATOM      8  C   UNL     1      11.141  12.858  18.581  0.00  0.00    +0.000 C 
ATOM      9  C   UNL     1      11.602  11.502  18.054  0.00  0.00    +0.000 C 
ATOM     10  C   UNL     1      12.289  13.467  19.378  0.00  0.00    +0.000 C 
ATOM     11  O   UNL     1      10.000  12.719  19.431  0.00  0.00    +0.000 OA
ATOM     12  C   UNL     1       8.955  13.567  18.874  0.00  0.00    +0.000 C 
ATOM     13  C   UNL     1       8.215  14.338  19.981  0.00  0.00    +0.000 C 
ATOM     14  O   UNL     1       9.182  14.915  20.881  0.00  0.00    +0.000 OA
ENDROOT
BRANCH  13  15
ATOM     15  C   UNL     1       6.858  15.127  19.608  0.00  0.00    +0.000 C 
ATOM     16  S   UNL     1       5.730  15.223  21.042  0.00  0.00    +0.000 S 
ATOM     17  C   UNL     1       4.265  15.962  20.278  0.00  0.00    +0.000 C 
ATOM     18  C   UNL     1       3.563  14.865  19.505  0.00  0.00    +0.000 C 
ATOM     19  C   UNL     1       4.248  14.527  18.200  0.00  0.00    +0.000 C 
ATOM     20  S   UNL     1       6.005  14.884  17.978  0.00  0.00    +0.000 S 
ENDBRANCH  13  15
TORSDOF 1
ENDMDL
MODEL 4
REMARK VINA RESULT:      -4.7      9.514     11.448
REMARK  Name = 
REMARK  5 active torsions:
REMARK  status: ('A' for Active; 'I' for Inactive)
REMARK    1  A    between atoms: C_1  and  C_2
REMARK    2  A    between atoms: C_2  and  C_3
REMARK    3  A    between atoms: C_8  and  C_9
REMARK    4  A    between atoms: C_8  and  C_10
REMARK    5  A    between atoms: C_13  and  C_14
REMARK                            x       y       z     vdW  Elec       q    Type
REMARK                         _______ _______ _______ _____ _____    ______ ____
ROOT
ATOM      1  C   UNL     1       9.290  10.809  20.525  0.00  0.00    +0.000 C 
ATOM      2  C   UNL     1       9.843  11.816  19.496  0.00  0.00    +0.000 C 
ATOM      3  C   UNL     1       9.766  10.956  18.202  0.00  0.00    +0.000 C 
ATOM      4  O   UNL     1      11.233  12.124  19.495  0.00  0.00    +0.000 OA
ATOM      5  C   UNL     1      11.879  13.251  20.049  0.00  0.00    +0.000 C 
ATOM      6  C   UNL     1      11.468  14.692  19.703  0.00  0.00    +0.000 C 
ATOM      7  O   UNL     1      12.063  15.130  18.475  0.00  0.00    +0.000 OA
ATOM      8  C   UNL     1      11.011  15.236  17.521  0.00  0.00    +0.000 C 
ATOM      9  C   UNL     1      11.195  16.514  16.706  0.00  0.00    +0.000 C 
ATOM     10  C   UNL     1      11.086  14.053  16.563  0.00  0.00    +0.000 C 
ATOM     11  O   UNL     1       9.744  15.227  18.183  0.00  0.00    +0.000 OA
ATOM     12  C   UNL     1      10.013  15.046  19.603  0.00  0.00    +0.000 C 
ATOM     13  C   UNL     1       9.027  14.048  20.235  0.00  0.00    +0.000 C 
ATOM     14  O   UNL     1       8.924  12.887  19.386  0.00  0.00    +0.000 OA
ENDROOT
BRANCH  13  15
ATOM     15  C   UNL     1       8.983  13.907  21.841  0.00  0.00    +0.000 C 
ATOM     16  S   UNL     1       7.391  13.205  22.402  0.00  0.00    +0.000 S 
ATOM     17  C   UNL     1       7.565  13.354  24.198  0.00  0.00    +0.000 C 
ATOM     18  C   UNL     1       7.316  14.805  24.552  0.00  0.00    +0.000 C 
ATOM     19  C   UNL     1       8.485  15.705  24.222  0.00  0.00    +0.000 C 
ATOM     20  S   UNL     1       9.677  15.218  22.955  0.00  0.00    +0.000 S 
ENDBRANCH  13  15
TORSDOF 1
ENDMDL
MODEL 5
REMARK VINA RESULT:      -4.7     10.202     12.132
REMARK  Name = 
REMARK  5 active torsions:
REMARK  status: ('A' for Active; 'I' for Inactive)
REMARK    1  A    between atoms: C_1  and  C_2
REMARK    2  A    between atoms: C_2  and  C_3
REMARK    3  A    between atoms: C_8  and  C_9
REMARK    4  A    between atoms: C_8  and  C_10
REMARK    5  A    between atoms: C_13  and  C_14
REMARK                            x       y       z     vdW  Elec       q    Type
REMARK                         _______ _______ _______ _____ _____    ______ ____
ROOT
ATOM      1  C   UNL     1      10.727  11.589  19.630  0.00  0.00    +0.000 C 
ATOM      2  C   UNL     1      10.815  12.941  18.893  0.00  0.00    +0.000 C 
ATOM      3  C   UNL     1      10.950  12.445  17.425  0.00  0.00    +0.000 C 
ATOM      4  O   UNL     1      12.003  13.718  18.993  0.00  0.00    +0.000 OA
ATOM      5  C   UNL     1      12.251  14.834  19.821  0.00  0.00    +0.000 C 
ATOM      6  C   UNL     1      11.335  16.070  19.837  0.00  0.00    +0.000 C 
ATOM      7  O   UNL     1      11.647  16.971  18.767  0.00  0.00    +0.000 OA
ATOM      8  C   UNL     1      10.558  16.917  17.850  0.00  0.00    +0.000 C 
ATOM      9  C   UNL     1      10.221  18.330  17.382  0.00  0.00    +0.000 C 
ATOM     10  C   UNL     1      10.974  16.104  16.630  0.00  0.00    +0.000 C 
ATOM     11  O   UNL     1       9.428  16.296  18.467  0.00  0.00    +0.000 OA
ATOM     12  C   UNL     1       9.846  15.892  19.802  0.00  0.00    +0.000 C 
ATOM     13  C   UNL     1       9.323  14.487  20.149  0.00  0.00    +0.000 C 
ATOM     14  O   UNL     1       9.573  13.604  19.037  0.00  0.00    +0.000 OA
ENDROOT
BRANCH  13  15
ATOM     15  C   UNL     1       9.448  13.961  21.669  0.00  0.00    +0.000 C 
ATOM     16  S   UNL     1       8.280  12.596  21.997  0.00  0.00    +0.000 S 
ATOM     17  C   UNL     1       8.512  12.366  23.778  0.00  0.00    +0.000 C 
ATOM     18  C   UNL     1       7.762  13.484  24.473  0.00  0.00    +0.000 C 
ATOM     19  C   UNL     1       8.483  14.811  24.406  0.00  0.00    +0.000 C 
ATOM     20  S   UNL     1       9.678  15.132  23.090  0.00  0.00    +0.000 S 
ENDBRANCH  13  15
TORSDOF 1
ENDMDL
MODEL 6
REMARK VINA RESULT:      -4.7     10.084     12.306
REMARK  Name = 
REMARK  5 active torsions:
REMARK  status: ('A' for Active; 'I' for Inactive)
REMARK    1  A    between atoms: C_1  and  C_2
REMARK    2  A    between atoms: C_2  and  C_3
REMARK    3  A    between atoms: C_8  and  C_9
REMARK    4  A    between atoms: C_8  and  C_10
REMARK    5  A    between atoms: C_13  and  C_14
REMARK                            x       y       z     vdW  Elec       q    Type
REMARK                         _______ _______ _______ _____ _____    ______ ____
ROOT
ATOM      1  C   UNL     1       0.989  10.769  19.479  0.00  0.00    +0.000 C 
ATOM      2  C   UNL     1      -0.035  11.206  20.547  0.00  0.00    +0.000 C 
ATOM      3  C   UNL     1      -0.217   9.866  21.317  0.00  0.00    +0.000 C 
ATOM      4  O   UNL     1      -1.385  11.447  20.166  0.00  0.00    +0.000 OA
ATOM      5  C   UNL     1      -2.016  12.685  19.918  0.00  0.00    +0.000 C 
ATOM      6  C   UNL     1      -2.004  13.837  20.937  0.00  0.00    +0.000 C 
ATOM      7  O   UNL     1      -3.027  13.673  21.928  0.00  0.00    +0.000 OA
ATOM      8  C   UNL     1      -2.369  13.375  23.156  0.00  0.00    +0.000 C 
ATOM      9  C   UNL     1      -3.030  14.158  24.287  0.00  0.00    +0.000 C 
ATOM     10  C   UNL     1      -2.527  11.890  23.458  0.00  0.00    +0.000 C 
ATOM     11  O   UNL     1      -0.978  13.691  23.057  0.00  0.00    +0.000 OA
ATOM     12  C   UNL     1      -0.746  14.147  21.694  0.00  0.00    +0.000 C 
ATOM     13  C   UNL     1       0.553  13.555  21.121  0.00  0.00    +0.000 C 
ATOM     14  O   UNL     1       0.591  12.142  21.404  0.00  0.00    +0.000 OA
ENDROOT
BRANCH  13  15
ATOM     15  C   UNL     1       1.129  14.136  19.730  0.00  0.00    +0.000 C 
ATOM     16  S   UNL     1       2.952  14.022  19.668  0.00  0.00    +0.000 S 
ATOM     17  C   UNL     1       3.298  14.907  18.126  0.00  0.00    +0.000 C 
ATOM     18  C   UNL     1       3.169  16.387  18.422  0.00  0.00    +0.000 C 
ATOM     19  C   UNL     1       1.733  16.847  18.530  0.00  0.00    +0.000 C 
ATOM     20  S   UNL     1       0.430  15.668  18.950  0.00  0.00    +0.000 S 
ENDBRANCH  13  15
TORSDOF 1
ENDMDL
MODEL 7
REMARK VINA RESULT:      -4.7     11.854     14.174
REMARK  Name = 
REMARK  5 active torsions:
REMARK  status: ('A' for Active; 'I' for Inactive)
REMARK    1  A    between atoms: C_1  and  C_2
REMARK    2  A    between atoms: C_2  and  C_3
REMARK    3  A    between atoms: C_8  and  C_9
REMARK    4  A    between atoms: C_8  and  C_10
REMARK    5  A    between atoms: C_13  and  C_14
REMARK                            x       y       z     vdW  Elec       q    Type
REMARK                         _______ _______ _______ _____ _____    ______ ____
ROOT
ATOM      1  C   UNL     1      -6.769  13.717  18.096  0.00  0.00    +0.000 C 
ATOM      2  C   UNL     1      -6.497  13.791  19.613  0.00  0.00    +0.000 C 
ATOM      3  C   UNL     1      -7.917  14.166  20.128  0.00  0.00    +0.000 C 
ATOM      4  O   UNL     1      -5.755  14.885  20.139  0.00  0.00    +0.000 OA
ATOM      5  C   UNL     1      -4.391  14.925  20.500  0.00  0.00    +0.000 C 
ATOM      6  C   UNL     1      -3.767  13.915  21.479  0.00  0.00    +0.000 C 
ATOM      7  O   UNL     1      -3.994  14.293  22.842  0.00  0.00    +0.000 OA
ATOM      8  C   UNL     1      -4.910  13.347  23.387  0.00  0.00    +0.000 C 
ATOM      9  C   UNL     1      -4.460  12.960  24.793  0.00  0.00    +0.000 C 
ATOM     10  C   UNL     1      -6.287  13.991  23.494  0.00  0.00    +0.000 C 
ATOM     11  O   UNL     1      -4.991  12.199  22.539  0.00  0.00    +0.000 OA
ATOM     12  C   UNL     1      -4.139  12.464  21.389  0.00  0.00    +0.000 C 
ATOM     13  C   UNL     1      -4.814  12.018  20.080  0.00  0.00    +0.000 C 
ATOM     14  O   UNL     1      -6.176  12.489  20.068  0.00  0.00    +0.000 OA
ENDROOT
BRANCH  13  15
ATOM     15  C   UNL     1      -3.940  11.979  18.724  0.00  0.00    +0.000 C 
ATOM     16  S   UNL     1      -4.761  10.982  17.433  0.00  0.00    +0.000 S 
ATOM     17  C   UNL     1      -3.485  10.964  16.149  0.00  0.00    +0.000 C 
ATOM     18  C   UNL     1      -2.432   9.963  16.580  0.00  0.00    +0.000 C 
ATOM     19  C   UNL     1      -1.528  10.487  17.672  0.00  0.00    +0.000 C 
ATOM     20  S   UNL     1      -2.092  11.814  18.761  0.00  0.00    +0.000 S 
ENDBRANCH  13  15
TORSDOF 1
ENDMDL
MODEL 8
REMARK VINA RESULT:      -4.6     10.372     11.948
REMARK  Name = 
REMARK  5 active torsions:
REMARK  status: ('A' for Active; 'I' for Inactive)
REMARK    1  A    between atoms: C_1  and  C_2
REMARK    2  A    between atoms: C_2  and  C_3
REMARK    3  A    between atoms: C_8  and  C_9
REMARK    4  A    between atoms: C_8  and  C_10
REMARK    5  A    between atoms: C_13  and  C_14
REMARK                            x       y       z     vdW  Elec       q    Type
REMARK                         _______ _______ _______ _____ _____    ______ ____
ROOT
ATOM      1  C   UNL     1      -1.140  14.211  23.217  0.00  0.00    +0.000 C 
ATOM      2  C   UNL     1      -0.879  13.030  22.259  0.00  0.00    +0.000 C 
ATOM      3  C   UNL     1      -1.268  11.838  23.180  0.00  0.00    +0.000 C 
ATOM      4  O   UNL     1       0.461  12.664  21.949  0.00  0.00    +0.000 OA
ATOM      5  C   UNL     1       1.211  12.984  20.797  0.00  0.00    +0.000 C 
ATOM      6  C   UNL     1       0.707  12.688  19.374  0.00  0.00    +0.000 C 
ATOM      7  O   UNL     1       0.966  11.331  18.994  0.00  0.00    +0.000 OA
ATOM      8  C   UNL     1      -0.294  10.670  18.935  0.00  0.00    +0.000 C 
ATOM      9  C   UNL     1      -0.340   9.778  17.697  0.00  0.00    +0.000 C 
ATOM     10  C   UNL     1      -0.448   9.779  20.162  0.00  0.00    +0.000 C 
ATOM     11  O   UNL     1      -1.352  11.631  18.915  0.00  0.00    +0.000 OA
ATOM     12  C   UNL     1      -0.731  12.943  19.027  0.00  0.00    +0.000 C 
ATOM     13  C   UNL     1      -1.512  13.849  19.996  0.00  0.00    +0.000 C 
ATOM     14  O   UNL     1      -1.810  13.108  21.196  0.00  0.00    +0.000 OA
ENDROOT
BRANCH  13  15
ATOM     15  C   UNL     1      -1.147  15.419  20.061  0.00  0.00    +0.000 C 
ATOM     16  S   UNL     1      -2.570  16.407  20.641  0.00  0.00    +0.000 S 
ATOM     17  C   UNL     1      -1.933  18.088  20.421  0.00  0.00    +0.000 C 
ATOM     18  C   UNL     1      -2.016  18.407  18.943  0.00  0.00    +0.000 C 
ATOM     19  C   UNL     1      -0.932  17.737  18.130  0.00  0.00    +0.000 C 
ATOM     20  S   UNL     1      -0.130  16.239  18.744  0.00  0.00    +0.000 S 
ENDBRANCH  13  15
TORSDOF 1
ENDMDL
MODEL 9
REMARK VINA RESULT:      -4.6      9.841     11.478
REMARK  Name = 
REMARK  5 active torsions:
REMARK  status: ('A' for Active; 'I' for Inactive)
REMARK    1  A    between atoms: C_1  and  C_2
REMARK    2  A    between atoms: C_2  and  C_3
REMARK    3  A    between atoms: C_8  and  C_9
REMARK    4  A    between atoms: C_8  and  C_10
REMARK    5  A    between atoms: C_13  and  C_14
REMARK                            x       y       z     vdW  Elec       q    Type
REMARK                         _______ _______ _______ _____ _____    ______ ____
ROOT
ATOM      1  C   UNL     1      -3.467  11.288  18.542  0.00  0.00    +0.000 C 
ATOM      2  C   UNL     1      -1.984  11.647  18.767  0.00  0.00    +0.000 C 
ATOM      3  C   UNL     1      -1.478  11.660  17.296  0.00  0.00    +0.000 C 
ATOM      4  O   UNL     1      -1.102  10.672  19.314  0.00  0.00    +0.000 OA
ATOM      5  C   UNL     1      -0.653  10.549  20.647  0.00  0.00    +0.000 C 
ATOM      6  C   UNL     1       0.016  11.709  21.404  0.00  0.00    +0.000 C 
ATOM      7  O   UNL     1       1.411  11.807  21.091  0.00  0.00    +0.000 OA
ATOM      8  C   UNL     1       1.581  12.997  20.327  0.00  0.00    +0.000 C 
ATOM      9  C   UNL     1       2.832  13.729  20.804  0.00  0.00    +0.000 C 
ATOM     10  C   UNL     1       1.782  12.625  18.863  0.00  0.00    +0.000 C 
ATOM     11  O   UNL     1       0.422  13.827  20.448  0.00  0.00    +0.000 OA
ATOM     12  C   UNL     1      -0.533  13.099  21.270  0.00  0.00    +0.000 C 
ATOM     13  C   UNL     1      -1.959  13.213  20.702  0.00  0.00    +0.000 C 
ATOM     14  O   UNL     1      -1.921  12.964  19.282  0.00  0.00    +0.000 OA
ENDROOT
BRANCH  13  15
ATOM     15  C   UNL     1      -3.199  12.704  21.599  0.00  0.00    +0.000 C 
ATOM     16  S   UNL     1      -4.718  13.649  21.228  0.00  0.00    +0.000 S 
ATOM     17  C   UNL     1      -5.842  13.003  22.492  0.00  0.00    +0.000 C 
ATOM     18  C   UNL     1      -5.469  13.668  23.802  0.00  0.00    +0.000 C 
ATOM     19  C   UNL     1      -4.215  13.096  24.421  0.00  0.00    +0.000 C 
ATOM     20  S   UNL     1      -2.991  12.260  23.388  0.00  0.00    +0.000 S 
ENDBRANCH  13  15
TORSDOF 1
ENDMDL
