MODEL 1
REMARK VINA RESULT:      -7.5      0.000      0.000
REMARK  Name = 
REMARK  2 active torsions:
REMARK  status: ('A' for Active; 'I' for Inactive)
REMARK    1  A    between atoms: N_1  and  C_2
REMARK    2  A    between atoms: C_15  and  N_16
REMARK                            x       y       z     vdW  Elec       q    Type
REMARK                         _______ _______ _______ _____ _____    ______ ____
ROOT
ATOM      1  C   UNL     1       6.822   4.681  15.964  0.00  0.00    +0.000 C 
ATOM      2  C   UNL     1       5.580   3.762  16.058  0.00  0.00    +0.000 C 
ATOM      3  C   UNL     1       4.858   3.907  17.394  0.00  0.00    +0.000 C 
ATOM      4  N   UNL     1       3.532   3.249  17.347  0.00  0.00    +0.000 NA
ATOM      5  C   UNL     1       2.970   3.269  18.719  0.00  0.00    +0.000 C 
ATOM      6  C   UNL     1       1.593   2.601  18.746  0.00  0.00    +0.000 C 
ATOM      7  C   UNL     1       1.032   2.643  20.166  0.00  0.00    +0.000 C 
ATOM      8  C   UNL     1       0.910   4.076  20.667  0.00  0.00    +0.000 C 
ATOM      9  C   UNL     1       2.278   4.758  20.690  0.00  0.00    +0.000 C 
ATOM     10  C   UNL     1       2.898   4.723  19.294  0.00  0.00    +0.000 C 
ATOM     11  N   UNL     1       4.227   5.367  19.288  0.00  0.00    +0.000 NA
ATOM     12  C   UNL     1       4.670   5.380  17.876  0.00  0.00    +0.000 C 
ATOM     13  C   UNL     1       5.879   6.290  17.682  0.00  0.00    +0.000 C 
ATOM     14  C   UNL     1       6.426   6.160  16.247  0.00  0.00    +0.000 C 
ATOM     15  H   UNL     1       3.616   2.291  17.015  0.00  0.00    +0.000 HD
ATOM     16  H   UNL     1       4.164   6.315  19.656  0.00  0.00    +0.000 HD
ENDROOT
BRANCH   1  17
ATOM     17  N   UNL     1       7.868   4.217  16.896  0.00  0.00    +0.000 NA
ATOM     18  H   UNL     1       8.761   4.149  16.400  0.00  0.00    +0.000 HD
ATOM     19  H   UNL     1       7.679   3.272  17.247  0.00  0.00    +0.000 HD
ENDBRANCH   1  17
BRANCH  14  20
ATOM     20  N   UNL     1       5.463   6.695  15.263  0.00  0.00    +0.000 NA
ATOM     21  H   UNL     1       4.820   5.970  14.952  0.00  0.00    +0.000 HD
ATOM     22  H   UNL     1       5.933   7.031  14.425  0.00  0.00    +0.000 HD
ENDBRANCH  14  20
TORSDOF 2
ENDMDL
MODEL 2
REMARK VINA RESULT:      -7.5      0.240      2.531
REMARK  Name = 
REMARK  2 active torsions:
REMARK  status: ('A' for Active; 'I' for Inactive)
REMARK    1  A    between atoms: N_1  and  C_2
REMARK    2  A    between atoms: C_15  and  N_16
REMARK                            x       y       z     vdW  Elec       q    Type
REMARK                         _______ _______ _______ _____ _____    ______ ____
ROOT
ATOM      1  C   UNL     1       6.438   6.135  16.274  0.00  0.00    +0.000 C 
ATOM      2  C   UNL     1       5.756   6.353  17.646  0.00  0.00    +0.000 C 
ATOM      3  C   UNL     1       4.584   5.399  17.863  0.00  0.00    +0.000 C 
ATOM      4  N   UNL     1       4.141   5.427  19.276  0.00  0.00    +0.000 NA
ATOM      5  C   UNL     1       2.898   4.626  19.374  0.00  0.00    +0.000 C 
ATOM      6  C   UNL     1       2.379   4.611  20.814  0.00  0.00    +0.000 C 
ATOM      7  C   UNL     1       1.104   3.772  20.890  0.00  0.00    +0.000 C 
ATOM      8  C   UNL     1       1.359   2.343  20.428  0.00  0.00    +0.000 C 
ATOM      9  C   UNL     1       1.839   2.323  18.977  0.00  0.00    +0.000 C 
ATOM     10  C   UNL     1       3.103   3.170  18.838  0.00  0.00    +0.000 C 
ATOM     11  N   UNL     1       3.585   3.177  17.442  0.00  0.00    +0.000 NA
ATOM     12  C   UNL     1       4.865   3.919  17.455  0.00  0.00    +0.000 C 
ATOM     13  C   UNL     1       5.626   3.737  16.145  0.00  0.00    +0.000 C 
ATOM     14  C   UNL     1       6.869   4.648  16.111  0.00  0.00    +0.000 C 
ATOM     15  H   UNL     1       3.970   6.382  19.583  0.00  0.00    +0.000 HD
ATOM     16  H   UNL     1       3.724   2.224  17.109  0.00  0.00    +0.000 HD
ENDROOT
BRANCH   1  17
ATOM     17  N   UNL     1       5.535   6.555  15.186  0.00  0.00    +0.000 NA
ATOM     18  H   UNL     1       5.917   7.386  14.726  0.00  0.00    +0.000 HD
ATOM     19  H   UNL     1       4.613   6.837  15.538  0.00  0.00    +0.000 HD
ENDBRANCH   1  17
BRANCH  14  20
ATOM     20  N   UNL     1       7.863   4.224  17.119  0.00  0.00    +0.000 NA
ATOM     21  H   UNL     1       8.267   5.030  17.592  0.00  0.00    +0.000 HD
ATOM     22  H   UNL     1       8.643   3.731  16.690  0.00  0.00    +0.000 HD
ENDBRANCH  14  20
TORSDOF 2
ENDMDL
MODEL 3
REMARK VINA RESULT:      -7.5      1.643      1.965
REMARK  Name = 
REMARK  2 active torsions:
REMARK  status: ('A' for Active; 'I' for Inactive)
REMARK    1  A    between atoms: N_1  and  C_2
REMARK    2  A    between atoms: C_15  and  N_16
REMARK                            x       y       z     vdW  Elec       q    Type
REMARK                         _______ _______ _______ _____ _____    ______ ____
ROOT
ATOM      1  C   UNL     1       7.403   5.281  16.299  0.00  0.00    +0.000 C 
ATOM      2  C   UNL     1       7.118   4.353  17.504  0.00  0.00    +0.000 C 
ATOM      3  C   UNL     1       5.690   4.507  18.022  0.00  0.00    +0.000 C 
ATOM      4  N   UNL     1       5.357   3.418  18.969  0.00  0.00    +0.000 NA
ATOM      5  C   UNL     1       4.036   3.729  19.566  0.00  0.00    +0.000 C 
ATOM      6  C   UNL     1       3.626   2.641  20.562  0.00  0.00    +0.000 C 
ATOM      7  C   UNL     1       2.259   2.979  21.155  0.00  0.00    +0.000 C 
ATOM      8  C   UNL     1       1.201   3.095  20.065  0.00  0.00    +0.000 C 
ATOM      9  C   UNL     1       1.563   4.204  19.077  0.00  0.00    +0.000 C 
ATOM     10  C   UNL     1       2.937   3.927  18.470  0.00  0.00    +0.000 C 
ATOM     11  N   UNL     1       3.318   4.989  17.517  0.00  0.00    +0.000 NA
ATOM     12  C   UNL     1       4.596   4.556  16.910  0.00  0.00    +0.000 C 
ATOM     13  C   UNL     1       4.946   5.400  15.688  0.00  0.00    +0.000 C 
ATOM     14  C   UNL     1       6.354   5.046  15.173  0.00  0.00    +0.000 C 
ATOM     15  H   UNL     1       6.064   3.343  19.698  0.00  0.00    +0.000 HD
ATOM     16  H   UNL     1       2.600   5.101  16.803  0.00  0.00    +0.000 HD
ENDROOT
BRANCH   1  17
ATOM     17  N   UNL     1       7.417   6.690  16.735  0.00  0.00    +0.000 NA
ATOM     18  H   UNL     1       7.144   7.293  15.954  0.00  0.00    +0.000 HD
ATOM     19  H   UNL     1       8.357   7.001  17.004  0.00  0.00    +0.000 HD
ENDBRANCH   1  17
BRANCH  14  20
ATOM     20  N   UNL     1       6.390   3.672  14.631  0.00  0.00    +0.000 NA
ATOM     21  H   UNL     1       5.559   3.152  14.905  0.00  0.00    +0.000 HD
ATOM     22  H   UNL     1       7.182   3.147  14.996  0.00  0.00    +0.000 HD
ENDBRANCH  14  20
TORSDOF 2
ENDMDL
MODEL 4
REMARK VINA RESULT:      -7.3      1.605      1.691
REMARK  Name = 
REMARK  2 active torsions:
REMARK  status: ('A' for Active; 'I' for Inactive)
REMARK    1  A    between atoms: N_1  and  C_2
REMARK    2  A    between atoms: C_15  and  N_16
REMARK                            x       y       z     vdW  Elec       q    Type
REMARK                         _______ _______ _______ _____ _____    ______ ____
ROOT
ATOM      1  C   UNL     1       6.328   5.146  15.310  0.00  0.00    +0.000 C 
ATOM      2  C   UNL     1       4.839   5.259  15.718  0.00  0.00    +0.000 C 
ATOM      3  C   UNL     1       4.507   4.386  16.924  0.00  0.00    +0.000 C 
ATOM      4  N   UNL     1       3.172   4.730  17.467  0.00  0.00    +0.000 NA
ATOM      5  C   UNL     1       2.839   3.731  18.510  0.00  0.00    +0.000 C 
ATOM      6  C   UNL     1       1.465   4.024  19.118  0.00  0.00    +0.000 C 
ATOM      7  C   UNL     1       1.150   2.988  20.196  0.00  0.00    +0.000 C 
ATOM      8  C   UNL     1       2.204   3.001  21.295  0.00  0.00    +0.000 C 
ATOM      9  C   UNL     1       3.583   2.669  20.724  0.00  0.00    +0.000 C 
ATOM     10  C   UNL     1       3.939   3.664  19.622  0.00  0.00    +0.000 C 
ATOM     11  N   UNL     1       5.265   3.362  19.044  0.00  0.00    +0.000 NA
ATOM     12  C   UNL     1       5.550   4.451  18.083  0.00  0.00    +0.000 C 
ATOM     13  C   UNL     1       7.012   4.436  17.646  0.00  0.00    +0.000 C 
ATOM     14  C   UNL     1       7.250   5.465  16.523  0.00  0.00    +0.000 C 
ATOM     15  H   UNL     1       2.468   4.719  16.732  0.00  0.00    +0.000 HD
ATOM     16  H   UNL     1       5.973   3.332  19.776  0.00  0.00    +0.000 HD
ENDROOT
BRANCH   1  17
ATOM     17  N   UNL     1       6.604   3.803  14.764  0.00  0.00    +0.000 NA
ATOM     18  H   UNL     1       6.932   3.888  13.798  0.00  0.00    +0.000 HD
ATOM     19  H   UNL     1       5.757   3.226  14.715  0.00  0.00    +0.000 HD
ENDBRANCH   1  17
BRANCH  14  20
ATOM     20  N   UNL     1       7.081   6.845  17.026  0.00  0.00    +0.000 NA
ATOM     21  H   UNL     1       7.984   7.293  17.167  0.00  0.00    +0.000 HD
ATOM     22  H   UNL     1       6.617   6.859  17.931  0.00  0.00    +0.000 HD
ENDBRANCH  14  20
TORSDOF 2
ENDMDL
MODEL 5
REMARK VINA RESULT:      -7.2      1.149      2.464
REMARK  Name = 
REMARK  2 active torsions:
REMARK  status: ('A' for Active; 'I' for Inactive)
REMARK    1  A    between atoms: N_1  and  C_2
REMARK    2  A    between atoms: C_15  and  N_16
REMARK                            x       y       z     vdW  Elec       q    Type
REMARK                         _______ _______ _______ _____ _____    ______ ____
ROOT
ATOM      1  C   UNL     1       7.309   6.390  17.520  0.00  0.00    +0.000 C 
ATOM      2  C   UNL     1       6.670   5.899  18.841  0.00  0.00    +0.000 C 
ATOM      3  C   UNL     1       5.204   5.515  18.662  0.00  0.00    +0.000 C 
ATOM      4  N   UNL     1       4.705   4.785  19.849  0.00  0.00    +0.000 NA
ATOM      5  C   UNL     1       3.242   4.606  19.687  0.00  0.00    +0.000 C 
ATOM      6  C   UNL     1       2.655   3.855  20.885  0.00  0.00    +0.000 C 
ATOM      7  C   UNL     1       1.150   3.676  20.689  0.00  0.00    +0.000 C 
ATOM      8  C   UNL     1       0.850   2.905  19.410  0.00  0.00    +0.000 C 
ATOM      9  C   UNL     1       1.389   3.653  18.190  0.00  0.00    +0.000 C 
ATOM     10  C   UNL     1       2.892   3.881  18.345  0.00  0.00    +0.000 C 
ATOM     11  N   UNL     1       3.439   4.611  17.184  0.00  0.00    +0.000 NA
ATOM     12  C   UNL     1       4.904   4.665  17.388  0.00  0.00    +0.000 C 
ATOM     13  C   UNL     1       5.625   5.114  16.120  0.00  0.00    +0.000 C 
ATOM     14  C   UNL     1       7.126   5.326  16.399  0.00  0.00    +0.000 C 
ATOM     15  H   UNL     1       4.904   5.302  20.703  0.00  0.00    +0.000 HD
ATOM     16  H   UNL     1       3.213   4.123  16.319  0.00  0.00    +0.000 HD
ENDROOT
BRANCH   1  17
ATOM     17  N   UNL     1       6.730   7.689  17.129  0.00  0.00    +0.000 NA
ATOM     18  H   UNL     1       5.709   7.638  17.181  0.00  0.00    +0.000 HD
ATOM     19  H   UNL     1       6.942   7.927  16.154  0.00  0.00    +0.000 HD
ENDBRANCH   1  17
BRANCH  14  20
ATOM     20  N   UNL     1       7.793   4.044  16.708  0.00  0.00    +0.000 NA
ATOM     21  H   UNL     1       7.712   3.822  17.698  0.00  0.00    +0.000 HD
ATOM     22  H   UNL     1       8.790   4.085  16.511  0.00  0.00    +0.000 HD
ENDBRANCH  14  20
TORSDOF 2
ENDMDL
MODEL 6
REMARK VINA RESULT:      -7.2      1.623      5.448
REMARK  Name = 
REMARK  2 active torsions:
REMARK  status: ('A' for Active; 'I' for Inactive)
REMARK    1  A    between atoms: N_1  and  C_2
REMARK    2  A    between atoms: C_15  and  N_16
REMARK                            x       y       z     vdW  Elec       q    Type
REMARK                         _______ _______ _______ _____ _____    ______ ____
ROOT
ATOM      1  C   UNL     1       1.379   2.159  19.715  0.00  0.00    +0.000 C 
ATOM      2  C   UNL     1       2.812   2.006  19.150  0.00  0.00    +0.000 C 
ATOM      3  C   UNL     1       3.324   3.301  18.526  0.00  0.00    +0.000 C 
ATOM      4  N   UNL     1       4.778   3.216  18.260  0.00  0.00    +0.000 NA
ATOM      5  C   UNL     1       5.169   4.423  17.494  0.00  0.00    +0.000 C 
ATOM      6  C   UNL     1       6.667   4.401  17.182  0.00  0.00    +0.000 C 
ATOM      7  C   UNL     1       7.046   5.659  16.402  0.00  0.00    +0.000 C 
ATOM      8  C   UNL     1       6.710   6.918  17.191  0.00  0.00    +0.000 C 
ATOM      9  C   UNL     1       5.211   6.988  17.482  0.00  0.00    +0.000 C 
ATOM     10  C   UNL     1       4.773   5.739  18.244  0.00  0.00    +0.000 C 
ATOM     11  N   UNL     1       3.324   5.774  18.531  0.00  0.00    +0.000 NA
ATOM     12  C   UNL     1       3.043   4.586  19.367  0.00  0.00    +0.000 C 
ATOM     13  C   UNL     1       1.653   4.664  19.994  0.00  0.00    +0.000 C 
ATOM     14  C   UNL     1       1.314   3.347  20.719  0.00  0.00    +0.000 C 
ATOM     15  H   UNL     1       5.001   2.375  17.731  0.00  0.00    +0.000 HD
ATOM     16  H   UNL     1       3.081   6.630  19.028  0.00  0.00    +0.000 HD
ENDROOT
BRANCH   1  17
ATOM     17  N   UNL     1       0.415   2.334  18.612  0.00  0.00    +0.000 NA
ATOM     18  H   UNL     1       0.915   2.602  17.760  0.00  0.00    +0.000 HD
ATOM     19  H   UNL     1      -0.243   3.099  18.794  0.00  0.00    +0.000 HD
ENDBRANCH   1  17
BRANCH  14  20
ATOM     20  N   UNL     1       2.185   3.152  21.897  0.00  0.00    +0.000 NA
ATOM     21  H   UNL     1       2.716   2.287  21.817  0.00  0.00    +0.000 HD
ATOM     22  H   UNL     1       1.642   3.069  22.753  0.00  0.00    +0.000 HD
ENDBRANCH  14  20
TORSDOF 2
ENDMDL
MODEL 7
REMARK VINA RESULT:      -7.1      1.641      5.668
REMARK  Name = 
REMARK  2 active torsions:
REMARK  status: ('A' for Active; 'I' for Inactive)
REMARK    1  A    between atoms: N_1  and  C_2
REMARK    2  A    between atoms: C_15  and  N_16
REMARK                            x       y       z     vdW  Elec       q    Type
REMARK                         _______ _______ _______ _____ _____    ______ ____
ROOT
ATOM      1  C   UNL     1       1.346   3.384  20.763  0.00  0.00    +0.000 C 
ATOM      2  C   UNL     1       1.785   4.724  20.125  0.00  0.00    +0.000 C 
ATOM      3  C   UNL     1       3.200   4.652  19.557  0.00  0.00    +0.000 C 
ATOM      4  N   UNL     1       3.483   5.832  18.707  0.00  0.00    +0.000 NA
ATOM      5  C   UNL     1       4.918   5.790  18.341  0.00  0.00    +0.000 C 
ATOM      6  C   UNL     1       5.285   6.986  17.459  0.00  0.00    +0.000 C 
ATOM      7  C   UNL     1       6.765   6.915  17.088  0.00  0.00    +0.000 C 
ATOM      8  C   UNL     1       7.084   5.622  16.349  0.00  0.00    +0.000 C 
ATOM      9  C   UNL     1       6.767   4.408  17.222  0.00  0.00    +0.000 C 
ATOM     10  C   UNL     1       5.299   4.442  17.642  0.00  0.00    +0.000 C 
ATOM     11  N   UNL     1       4.966   3.284  18.497  0.00  0.00    +0.000 NA
ATOM     12  C   UNL     1       3.508   3.360  18.738  0.00  0.00    +0.000 C 
ATOM     13  C   UNL     1       2.977   2.063  19.342  0.00  0.00    +0.000 C 
ATOM     14  C   UNL     1       1.497   2.220  19.741  0.00  0.00    +0.000 C 
ATOM     15  H   UNL     1       3.271   6.695  19.204  0.00  0.00    +0.000 HD
ATOM     16  H   UNL     1       5.209   2.414  18.026  0.00  0.00    +0.000 HD
ENDROOT
BRANCH   1  17
ATOM     17  N   UNL     1       2.124   3.127  21.990  0.00  0.00    +0.000 NA
ATOM     18  H   UNL     1       2.022   2.145  22.260  0.00  0.00    +0.000 HD
ATOM     19  H   UNL     1       1.775   3.667  22.788  0.00  0.00    +0.000 HD
ENDBRANCH   1  17
BRANCH  14  20
ATOM     20  N   UNL     1       0.642   2.389  18.547  0.00  0.00    +0.000 NA
ATOM     21  H   UNL     1      -0.202   1.825  18.622  0.00  0.00    +0.000 HD
ATOM     22  H   UNL     1       1.114   2.074  17.702  0.00  0.00    +0.000 HD
ENDBRANCH  14  20
TORSDOF 2
ENDMDL
MODEL 8
REMARK VINA RESULT:      -7.1      1.567      1.674
REMARK  Name = 
REMARK  2 active torsions:
REMARK  status: ('A' for Active; 'I' for Inactive)
REMARK    1  A    between atoms: N_1  and  C_2
REMARK    2  A    between atoms: C_15  and  N_16
REMARK                            x       y       z     vdW  Elec       q    Type
REMARK                         _______ _______ _______ _____ _____    ______ ____
ROOT
ATOM      1  C   UNL     1       7.131   5.865  16.840  0.00  0.00    +0.000 C 
ATOM      2  C   UNL     1       6.816   4.612  17.692  0.00  0.00    +0.000 C 
ATOM      3  C   UNL     1       5.528   4.773  18.495  0.00  0.00    +0.000 C 
ATOM      4  N   UNL     1       5.100   3.474  19.064  0.00  0.00    +0.000 NA
ATOM      5  C   UNL     1       3.959   3.734  19.973  0.00  0.00    +0.000 C 
ATOM      6  C   UNL     1       3.462   2.429  20.601  0.00  0.00    +0.000 C 
ATOM      7  C   UNL     1       2.281   2.722  21.525  0.00  0.00    +0.000 C 
ATOM      8  C   UNL     1       1.141   3.386  20.764  0.00  0.00    +0.000 C 
ATOM      9  C   UNL     1       1.596   4.715  20.160  0.00  0.00    +0.000 C 
ATOM     10  C   UNL     1       2.794   4.482  19.242  0.00  0.00    +0.000 C 
ATOM     11  N   UNL     1       3.263   5.752  18.650  0.00  0.00    +0.000 NA
ATOM     12  C   UNL     1       4.336   5.388  17.698  0.00  0.00    +0.000 C 
ATOM     13  C   UNL     1       4.694   6.562  16.791  0.00  0.00    +0.000 C 
ATOM     14  C   UNL     1       5.922   6.219  15.926  0.00  0.00    +0.000 C 
ATOM     15  H   UNL     1       5.863   3.032  19.573  0.00  0.00    +0.000 HD
ATOM     16  H   UNL     1       2.498   6.223  18.170  0.00  0.00    +0.000 HD
ENDROOT
BRANCH   1  17
ATOM     17  N   UNL     1       7.491   6.996  17.717  0.00  0.00    +0.000 NA
ATOM     18  H   UNL     1       8.510   7.088  17.755  0.00  0.00    +0.000 HD
ATOM     19  H   UNL     1       7.195   6.842  18.686  0.00  0.00    +0.000 HD
ENDBRANCH   1  17
BRANCH  14  20
ATOM     20  N   UNL     1       5.604   5.151  14.955  0.00  0.00    +0.000 NA
ATOM     21  H   UNL     1       6.408   4.545  14.806  0.00  0.00    +0.000 HD
ATOM     22  H   UNL     1       5.369   5.534  14.042  0.00  0.00    +0.000 HD
ENDBRANCH  14  20
TORSDOF 2
ENDMDL
MODEL 9
REMARK VINA RESULT:      -7.1      1.557      2.234
REMARK  Name = 
REMARK  2 active torsions:
REMARK  status: ('A' for Active; 'I' for Inactive)
REMARK    1  A    between atoms: N_1  and  C_2
REMARK    2  A    between atoms: C_15  and  N_16
REMARK                            x       y       z     vdW  Elec       q    Type
REMARK                         _______ _______ _______ _____ _____    ______ ____
ROOT
ATOM      1  C   UNL     1       6.138   6.440  16.054  0.00  0.00    +0.000 C 
ATOM      2  C   UNL     1       4.814   6.664  16.823  0.00  0.00    +0.000 C 
ATOM      3  C   UNL     1       4.400   5.433  17.624  0.00  0.00    +0.000 C 
ATOM      4  N   UNL     1       3.306   5.764  18.566  0.00  0.00    +0.000 NA
ATOM      5  C   UNL     1       2.834   4.497  19.172  0.00  0.00    +0.000 C 
ATOM      6  C   UNL     1       1.697   4.764  20.162  0.00  0.00    +0.000 C 
ATOM      7  C   UNL     1       1.235   3.445  20.779  0.00  0.00    +0.000 C 
ATOM      8  C   UNL     1       2.380   2.744  21.499  0.00  0.00    +0.000 C 
ATOM      9  C   UNL     1       3.515   2.427  20.526  0.00  0.00    +0.000 C 
ATOM     10  C   UNL     1       4.001   3.713  19.860  0.00  0.00    +0.000 C 
ATOM     11  N   UNL     1       5.094   3.435  18.905  0.00  0.00    +0.000 NA
ATOM     12  C   UNL     1       5.558   4.753  18.419  0.00  0.00    +0.000 C 
ATOM     13  C   UNL     1       6.882   4.634  17.670  0.00  0.00    +0.000 C 
ATOM     14  C   UNL     1       7.263   5.983  17.029  0.00  0.00    +0.000 C 
ATOM     15  H   UNL     1       2.541   6.230  18.083  0.00  0.00    +0.000 HD
ATOM     16  H   UNL     1       5.851   2.934  19.368  0.00  0.00    +0.000 HD
ENDROOT
BRANCH   1  17
ATOM     17  N   UNL     1       5.936   5.461  14.970  0.00  0.00    +0.000 NA
ATOM     18  H   UNL     1       5.176   4.823  15.222  0.00  0.00    +0.000 HD
ATOM     19  H   UNL     1       6.759   4.864  14.831  0.00  0.00    +0.000 HD
ENDBRANCH   1  17
BRANCH  14  20
ATOM     20  N   UNL     1       7.571   6.992  18.064  0.00  0.00    +0.000 NA
ATOM     21  H   UNL     1       7.466   6.599  18.997  0.00  0.00    +0.000 HD
ATOM     22  H   UNL     1       6.932   7.782  18.018  0.00  0.00    +0.000 HD
ENDBRANCH  14  20
TORSDOF 2
ENDMDL
