MODEL 1
REMARK VINA RESULT:      -7.7      0.000      0.000
REMARK  Name = 
REMARK  3 active torsions:
REMARK  status: ('A' for Active; 'I' for Inactive)
REMARK    1  A    between atoms: C_1  and  C_2
REMARK    2  A    between atoms: C_5  and  C_6
REMARK    3  A    between atoms: C_13  and  C_15
REMARK                            x       y       z     vdW  Elec       q    Type
REMARK                         _______ _______ _______ _____ _____    ______ ____
ROOT
ATOM      1  C   UNL     1       4.482   4.836  17.872  0.00  0.00    +0.000 C 
ATOM      2  C   UNL     1       3.153   4.633  17.173  0.00  0.00    +0.000 C 
ATOM      3  C   UNL     1       2.222   5.451  18.028  0.00  0.00    +0.000 C 
ATOM      4  C   UNL     1       3.097   6.627  18.484  0.00  0.00    +0.000 C 
ATOM      5  C   UNL     1       2.854   6.983  19.949  0.00  0.00    +0.000 C 
ATOM      6  C   UNL     1       1.472   7.581  20.151  0.00  0.00    +0.000 C 
ATOM      7  N   UNL     1       1.249   8.742  19.286  0.00  0.00    +0.000 N 
ATOM      8  C   UNL     1       0.684   9.966  19.672  0.00  0.00    +0.000 C 
ATOM      9  O   UNL     1       0.561  10.911  18.898  0.00  0.00    +0.000 OA
ATOM     10  C   UNL     1       1.541   8.541  17.862  0.00  0.00    +0.000 C 
ATOM     11  C   UNL     1       2.909   7.893  17.637  0.00  0.00    +0.000 C 
ATOM     12  O   UNL     1       4.467   6.191  18.356  0.00  0.00    +0.000 OA
ENDROOT
BRANCH   1  17
ATOM     13  C   UNL     1       7.479   4.578  13.974  0.00  0.00    +0.000 C 
ATOM     14  C   UNL     1       6.965   4.534  15.353  0.00  0.00    +0.000 A 
ATOM     15  N   UNL     1       7.762   4.428  16.423  0.00  0.00    +0.000 NA
ATOM     16  O   UNL     1       6.866   4.487  17.494  0.00  0.00    +0.000 OA
ATOM     17  C   UNL     1       5.620   4.620  16.949  0.00  0.00    +0.000 A 
ATOM     18  N   UNL     1       5.628   4.653  15.634  0.00  0.00    +0.000 NA
ENDBRANCH   1  17
BRANCH   8  19
ATOM     19  C   UNL     1       0.233  10.195  21.064  0.00  0.00    +0.000 A 
ATOM     20  C   UNL     1      -0.803  11.052  21.420  0.00  0.00    +0.000 A 
ATOM     21  C   UNL     1      -1.149  11.127  22.754  0.00  0.00    +0.000 A 
ATOM     22  N   UNL     1      -0.488  10.455  23.716  0.00  0.00    +0.000 NA
ATOM     23  N   UNL     1       0.579   9.680  23.381  0.00  0.00    +0.000 NA
ATOM     24  C   UNL     1       0.927   9.560  22.081  0.00  0.00    +0.000 A 
ENDBRANCH   8  19
TORSDOF 2
ENDMDL
MODEL 2
REMARK VINA RESULT:      -7.4      1.591      8.662
REMARK  Name = 
REMARK  3 active torsions:
REMARK  status: ('A' for Active; 'I' for Inactive)
REMARK    1  A    between atoms: C_1  and  C_2
REMARK    2  A    between atoms: C_5  and  C_6
REMARK    3  A    between atoms: C_13  and  C_15
REMARK                            x       y       z     vdW  Elec       q    Type
REMARK                         _______ _______ _______ _____ _____    ______ ____
ROOT
ATOM      1  C   UNL     1       1.169  10.022  19.648  0.00  0.00    +0.000 C 
ATOM      2  C   UNL     1       0.195   9.414  18.659  0.00  0.00    +0.000 C 
ATOM      3  C   UNL     1       1.101   8.564  17.809  0.00  0.00    +0.000 C 
ATOM      4  C   UNL     1       2.165   8.074  18.801  0.00  0.00    +0.000 C 
ATOM      5  C   UNL     1       3.564   8.094  18.192  0.00  0.00    +0.000 C 
ATOM      6  C   UNL     1       3.708   7.044  17.102  0.00  0.00    +0.000 C 
ATOM      7  N   UNL     1       3.368   5.705  17.587  0.00  0.00    +0.000 N 
ATOM      8  C   UNL     1       4.097   4.530  17.355  0.00  0.00    +0.000 C 
ATOM      9  O   UNL     1       3.770   3.444  17.827  0.00  0.00    +0.000 OA
ATOM     10  C   UNL     1       2.078   5.586  18.277  0.00  0.00    +0.000 C 
ATOM     11  C   UNL     1       1.890   6.666  19.345  0.00  0.00    +0.000 C 
ATOM     12  O   UNL     1       2.150   9.002  19.908  0.00  0.00    +0.000 OA
ENDROOT
BRANCH   1  17
ATOM     13  C   UNL     1      -1.975  11.731  23.029  0.00  0.00    +0.000 C 
ATOM     14  C   UNL     1      -0.817  11.083  22.392  0.00  0.00    +0.000 A 
ATOM     15  N   UNL     1       0.048  10.315  23.065  0.00  0.00    +0.000 NA
ATOM     16  O   UNL     1       0.924   9.873  22.070  0.00  0.00    +0.000 OA
ATOM     17  C   UNL     1       0.490  10.429  20.899  0.00  0.00    +0.000 A 
ATOM     18  N   UNL     1      -0.578  11.184  21.045  0.00  0.00    +0.000 NA
ENDBRANCH   1  17
BRANCH   8  19
ATOM     19  C   UNL     1       5.338   4.547  16.548  0.00  0.00    +0.000 A 
ATOM     20  C   UNL     1       5.370   4.453  15.161  0.00  0.00    +0.000 A 
ATOM     21  C   UNL     1       6.598   4.535  14.536  0.00  0.00    +0.000 A 
ATOM     22  N   UNL     1       7.755   4.641  15.217  0.00  0.00    +0.000 NA
ATOM     23  N   UNL     1       7.734   4.651  16.577  0.00  0.00    +0.000 NA
ATOM     24  C   UNL     1       6.547   4.602  17.221  0.00  0.00    +0.000 A 
ENDBRANCH   8  19
TORSDOF 2
ENDMDL
MODEL 3
REMARK VINA RESULT:      -7.4      1.850      8.779
REMARK  Name = 
REMARK  3 active torsions:
REMARK  status: ('A' for Active; 'I' for Inactive)
REMARK    1  A    between atoms: C_1  and  C_2
REMARK    2  A    between atoms: C_5  and  C_6
REMARK    3  A    between atoms: C_13  and  C_15
REMARK                            x       y       z     vdW  Elec       q    Type
REMARK                         _______ _______ _______ _____ _____    ______ ____
ROOT
ATOM      1  C   UNL     1       0.149  11.117  19.438  0.00  0.00    +0.000 C 
ATOM      2  C   UNL     1      -0.761  10.001  18.965  0.00  0.00    +0.000 C 
ATOM      3  C   UNL     1       0.204   9.092  18.252  0.00  0.00    +0.000 C 
ATOM      4  C   UNL     1       1.497   9.233  19.067  0.00  0.00    +0.000 C 
ATOM      5  C   UNL     1       2.731   9.300  18.171  0.00  0.00    +0.000 C 
ATOM      6  C   UNL     1       2.989   7.968  17.487  0.00  0.00    +0.000 C 
ATOM      7  N   UNL     1       3.102   6.871  18.451  0.00  0.00    +0.000 N 
ATOM      8  C   UNL     1       4.078   5.866  18.452  0.00  0.00    +0.000 C 
ATOM      9  O   UNL     1       4.132   4.996  19.317  0.00  0.00    +0.000 OA
ATOM     10  C   UNL     1       2.010   6.768  19.427  0.00  0.00    +0.000 C 
ATOM     11  C   UNL     1       1.699   8.110  20.093  0.00  0.00    +0.000 C 
ATOM     12  O   UNL     1       1.398  10.487  19.777  0.00  0.00    +0.000 OA
ENDROOT
BRANCH   1  17
ATOM     13  C   UNL     1      -2.812  13.148  22.806  0.00  0.00    +0.000 C 
ATOM     14  C   UNL     1      -1.613  12.658  22.106  0.00  0.00    +0.000 A 
ATOM     15  N   UNL     1      -0.413  12.570  22.693  0.00  0.00    +0.000 NA
ATOM     16  O   UNL     1       0.389  12.010  21.695  0.00  0.00    +0.000 OA
ATOM     17  C   UNL     1      -0.419  11.822  20.609  0.00  0.00    +0.000 A 
ATOM     18  N   UNL     1      -1.662  12.207  20.812  0.00  0.00    +0.000 NA
ENDBRANCH   1  17
BRANCH   8  19
ATOM     19  C   UNL     1       5.133   5.823  17.413  0.00  0.00    +0.000 A 
ATOM     20  C   UNL     1       5.016   5.140  16.208  0.00  0.00    +0.000 A 
ATOM     21  C   UNL     1       6.061   5.231  15.311  0.00  0.00    +0.000 A 
ATOM     22  N   UNL     1       7.198   5.899  15.583  0.00  0.00    +0.000 NA
ATOM     23  N   UNL     1       7.349   6.499  16.794  0.00  0.00    +0.000 NA
ATOM     24  C   UNL     1       6.334   6.455  17.686  0.00  0.00    +0.000 A 
ENDBRANCH   8  19
TORSDOF 2
ENDMDL
MODEL 4
REMARK VINA RESULT:      -7.1      2.326      3.764
REMARK  Name = 
REMARK  3 active torsions:
REMARK  status: ('A' for Active; 'I' for Inactive)
REMARK    1  A    between atoms: C_1  and  C_2
REMARK    2  A    between atoms: C_5  and  C_6
REMARK    3  A    between atoms: C_13  and  C_15
REMARK                            x       y       z     vdW  Elec       q    Type
REMARK                         _______ _______ _______ _____ _____    ______ ____
ROOT
ATOM      1  C   UNL     1       6.473   5.342  14.875  0.00  0.00    +0.000 C 
ATOM      2  C   UNL     1       7.116   4.758  16.116  0.00  0.00    +0.000 C 
ATOM      3  C   UNL     1       6.380   5.474  17.217  0.00  0.00    +0.000 C 
ATOM      4  C   UNL     1       4.965   5.648  16.646  0.00  0.00    +0.000 C 
ATOM      5  C   UNL     1       4.385   7.022  16.971  0.00  0.00    +0.000 C 
ATOM      6  C   UNL     1       4.095   7.163  18.456  0.00  0.00    +0.000 C 
ATOM      7  N   UNL     1       3.218   6.096  18.944  0.00  0.00    +0.000 N 
ATOM      8  C   UNL     1       2.106   6.256  19.783  0.00  0.00    +0.000 C 
ATOM      9  O   UNL     1       1.393   5.316  20.123  0.00  0.00    +0.000 OA
ATOM     10  C   UNL     1       3.632   4.728  18.607  0.00  0.00    +0.000 C 
ATOM     11  C   UNL     1       3.977   4.576  17.124  0.00  0.00    +0.000 C 
ATOM     12  O   UNL     1       5.088   5.547  15.211  0.00  0.00    +0.000 OA
ENDROOT
BRANCH   1  17
ATOM     13  C   UNL     1       5.807   1.906  11.413  0.00  0.00    +0.000 C 
ATOM     14  C   UNL     1       6.361   3.031  12.183  0.00  0.00    +0.000 A 
ATOM     15  N   UNL     1       7.321   3.834  11.708  0.00  0.00    +0.000 NA
ATOM     16  O   UNL     1       7.484   4.773  12.730  0.00  0.00    +0.000 OA
ATOM     17  C   UNL     1       6.602   4.431  13.715  0.00  0.00    +0.000 A 
ATOM     18  N   UNL     1       5.888   3.363  13.426  0.00  0.00    +0.000 NA
ENDBRANCH   1  17
BRANCH   8  19
ATOM     19  C   UNL     1       1.709   7.594  20.279  0.00  0.00    +0.000 A 
ATOM     20  C   UNL     1       1.503   7.901  21.619  0.00  0.00    +0.000 A 
ATOM     21  C   UNL     1       1.186   9.205  21.941  0.00  0.00    +0.000 A 
ATOM     22  N   UNL     1       1.012  10.163  21.010  0.00  0.00    +0.000 NA
ATOM     23  N   UNL     1       1.132   9.846  19.693  0.00  0.00    +0.000 NA
ATOM     24  C   UNL     1       1.471   8.586  19.343  0.00  0.00    +0.000 A 
ENDBRANCH   8  19
TORSDOF 2
ENDMDL
MODEL 5
REMARK VINA RESULT:      -7.1      2.243      8.900
REMARK  Name = 
REMARK  3 active torsions:
REMARK  status: ('A' for Active; 'I' for Inactive)
REMARK    1  A    between atoms: C_1  and  C_2
REMARK    2  A    between atoms: C_5  and  C_6
REMARK    3  A    between atoms: C_13  and  C_15
REMARK                            x       y       z     vdW  Elec       q    Type
REMARK                         _______ _______ _______ _____ _____    ______ ____
ROOT
ATOM      1  C   UNL     1      -0.030  11.965  19.571  0.00  0.00    +0.000 C 
ATOM      2  C   UNL     1      -1.080  10.876  19.652  0.00  0.00    +0.000 C 
ATOM      3  C   UNL     1      -0.387   9.722  18.977  0.00  0.00    +0.000 C 
ATOM      4  C   UNL     1       1.085   9.910  19.370  0.00  0.00    +0.000 C 
ATOM      5  C   UNL     1       2.027   9.625  18.203  0.00  0.00    +0.000 C 
ATOM      6  C   UNL     1       2.031   8.148  17.845  0.00  0.00    +0.000 C 
ATOM      7  N   UNL     1       2.358   7.308  18.999  0.00  0.00    +0.000 N 
ATOM      8  C   UNL     1       3.254   6.230  19.011  0.00  0.00    +0.000 C 
ATOM      9  O   UNL     1       3.507   5.591  20.029  0.00  0.00    +0.000 OA
ATOM     10  C   UNL     1       1.573   7.561  20.213  0.00  0.00    +0.000 C 
ATOM     11  C   UNL     1       1.514   9.049  20.565  0.00  0.00    +0.000 C 
ATOM     12  O   UNL     1       1.237  11.300  19.732  0.00  0.00    +0.000 OA
ENDROOT
BRANCH   1  17
ATOM     13  C   UNL     1      -1.615  15.707  22.349  0.00  0.00    +0.000 C 
ATOM     14  C   UNL     1      -0.875  14.524  21.880  0.00  0.00    +0.000 A 
ATOM     15  N   UNL     1      -0.092  13.792  22.682  0.00  0.00    +0.000 NA
ATOM     16  O   UNL     1       0.345  12.762  21.845  0.00  0.00    +0.000 OA
ATOM     17  C   UNL     1      -0.224  12.987  20.624  0.00  0.00    +0.000 A 
ATOM     18  N   UNL     1      -0.983  14.062  20.594  0.00  0.00    +0.000 NA
ENDBRANCH   1  17
BRANCH   8  19
ATOM     19  C   UNL     1       3.980   5.825  17.786  0.00  0.00    +0.000 A 
ATOM     20  C   UNL     1       4.746   6.689  17.009  0.00  0.00    +0.000 A 
ATOM     21  C   UNL     1       5.410   6.161  15.921  0.00  0.00    +0.000 A 
ATOM     22  N   UNL     1       5.296   4.870  15.555  0.00  0.00    +0.000 NA
ATOM     23  N   UNL     1       4.483   4.041  16.264  0.00  0.00    +0.000 NA
ATOM     24  C   UNL     1       3.840   4.518  17.353  0.00  0.00    +0.000 A 
ENDBRANCH   8  19
TORSDOF 2
ENDMDL
MODEL 6
REMARK VINA RESULT:      -7.1      1.166      1.391
REMARK  Name = 
REMARK  3 active torsions:
REMARK  status: ('A' for Active; 'I' for Inactive)
REMARK    1  A    between atoms: C_1  and  C_2
REMARK    2  A    between atoms: C_5  and  C_6
REMARK    3  A    between atoms: C_13  and  C_15
REMARK                            x       y       z     vdW  Elec       q    Type
REMARK                         _______ _______ _______ _____ _____    ______ ____
ROOT
ATOM      1  C   UNL     1       3.732   5.183  18.459  0.00  0.00    +0.000 C 
ATOM      2  C   UNL     1       2.399   5.012  17.759  0.00  0.00    +0.000 C 
ATOM      3  C   UNL     1       1.539   6.022  18.470  0.00  0.00    +0.000 C 
ATOM      4  C   UNL     1       2.517   7.164  18.785  0.00  0.00    +0.000 C 
ATOM      5  C   UNL     1       2.289   7.738  20.181  0.00  0.00    +0.000 C 
ATOM      6  C   UNL     1       0.969   8.486  20.262  0.00  0.00    +0.000 C 
ATOM      7  N   UNL     1       0.871   9.533  19.243  0.00  0.00    +0.000 N 
ATOM      8  C   UNL     1       0.421  10.845  19.444  0.00  0.00    +0.000 C 
ATOM      9  O   UNL     1       0.401  11.682  18.546  0.00  0.00    +0.000 OA
ATOM     10  C   UNL     1       1.162   9.111  17.867  0.00  0.00    +0.000 C 
ATOM     11  C   UNL     1       2.464   8.313  17.770  0.00  0.00    +0.000 C 
ATOM     12  O   UNL     1       3.841   6.588  18.754  0.00  0.00    +0.000 OA
ENDROOT
BRANCH   1  17
ATOM     13  C   UNL     1       6.695   4.002  14.710  0.00  0.00    +0.000 C 
ATOM     14  C   UNL     1       6.188   4.268  16.066  0.00  0.00    +0.000 A 
ATOM     15  N   UNL     1       6.986   4.360  17.136  0.00  0.00    +0.000 NA
ATOM     16  O   UNL     1       6.099   4.676  18.169  0.00  0.00    +0.000 OA
ATOM     17  C   UNL     1       4.856   4.737  17.606  0.00  0.00    +0.000 A 
ATOM     18  N   UNL     1       4.858   4.491  16.312  0.00  0.00    +0.000 NA
ENDBRANCH   1  17
BRANCH   8  19
ATOM     19  C   UNL     1      -0.024  11.305  20.779  0.00  0.00    +0.000 A 
ATOM     20  C   UNL     1      -0.743  10.522  21.676  0.00  0.00    +0.000 A 
ATOM     21  C   UNL     1      -1.046  11.065  22.908  0.00  0.00    +0.000 A 
ATOM     22  N   UNL     1      -0.727  12.329  23.244  0.00  0.00    +0.000 NA
ATOM     23  N   UNL     1      -0.096  13.125  22.339  0.00  0.00    +0.000 NA
ATOM     24  C   UNL     1       0.242  12.616  21.134  0.00  0.00    +0.000 A 
ENDBRANCH   8  19
TORSDOF 2
ENDMDL
MODEL 7
REMARK VINA RESULT:      -7.0      8.260     11.096
REMARK  Name = 
REMARK  3 active torsions:
REMARK  status: ('A' for Active; 'I' for Inactive)
REMARK    1  A    between atoms: C_1  and  C_2
REMARK    2  A    between atoms: C_5  and  C_6
REMARK    3  A    between atoms: C_13  and  C_15
REMARK                            x       y       z     vdW  Elec       q    Type
REMARK                         _______ _______ _______ _____ _____    ______ ____
ROOT
ATOM      1  C   UNL     1       7.248  11.504  25.720  0.00  0.00    +0.000 C 
ATOM      2  C   UNL     1       7.467  12.984  25.958  0.00  0.00    +0.000 C 
ATOM      3  C   UNL     1       8.176  13.402  24.698  0.00  0.00    +0.000 C 
ATOM      4  C   UNL     1       7.547  12.507  23.620  0.00  0.00    +0.000 C 
ATOM      5  C   UNL     1       8.589  11.990  22.631  0.00  0.00    +0.000 C 
ATOM      6  C   UNL     1       9.132  13.113  21.763  0.00  0.00    +0.000 C 
ATOM      7  N   UNL     1       8.062  13.832  21.069  0.00  0.00    +0.000 N 
ATOM      8  C   UNL     1       8.057  14.207  19.718  0.00  0.00    +0.000 C 
ATOM      9  O   UNL     1       7.105  14.778  19.193  0.00  0.00    +0.000 OA
ATOM     10  C   UNL     1       6.955  14.297  21.913  0.00  0.00    +0.000 C 
ATOM     11  C   UNL     1       6.424  13.194  22.832  0.00  0.00    +0.000 C 
ATOM     12  O   UNL     1       6.989  11.367  24.311  0.00  0.00    +0.000 OA
ENDROOT
BRANCH   1  17
ATOM     13  C   UNL     1       2.916   9.745  27.261  0.00  0.00    +0.000 C 
ATOM     14  C   UNL     1       4.320  10.187  27.233  0.00  0.00    +0.000 A 
ATOM     15  N   UNL     1       5.178   9.946  28.232  0.00  0.00    +0.000 NA
ATOM     16  O   UNL     1       6.379  10.479  27.755  0.00  0.00    +0.000 OA
ATOM     17  C   UNL     1       6.112  10.986  26.515  0.00  0.00    +0.000 A 
ATOM     18  N   UNL     1       4.857  10.833  26.149  0.00  0.00    +0.000 NA
ENDBRANCH   1  17
BRANCH   8  19
ATOM     19  C   UNL     1       9.204  13.896  18.834  0.00  0.00    +0.000 A 
ATOM     20  C   UNL     1       9.411  12.661  18.228  0.00  0.00    +0.000 A 
ATOM     21  C   UNL     1      10.496  12.529  17.386  0.00  0.00    +0.000 A 
ATOM     22  N   UNL     1      11.383  13.523  17.181  0.00  0.00    +0.000 NA
ATOM     23  N   UNL     1      11.228  14.705  17.836  0.00  0.00    +0.000 NA
ATOM     24  C   UNL     1      10.160  14.878  18.645  0.00  0.00    +0.000 A 
ENDBRANCH   8  19
TORSDOF 2
ENDMDL
MODEL 8
REMARK VINA RESULT:      -7.0      4.015      7.265
REMARK  Name = 
REMARK  3 active torsions:
REMARK  status: ('A' for Active; 'I' for Inactive)
REMARK    1  A    between atoms: C_1  and  C_2
REMARK    2  A    between atoms: C_5  and  C_6
REMARK    3  A    between atoms: C_13  and  C_15
REMARK                            x       y       z     vdW  Elec       q    Type
REMARK                         _______ _______ _______ _____ _____    ______ ____
ROOT
ATOM      1  C   UNL     1       0.575  11.086  19.025  0.00  0.00    +0.000 C 
ATOM      2  C   UNL     1       1.263  11.968  20.046  0.00  0.00    +0.000 C 
ATOM      3  C   UNL     1       0.103  12.714  20.649  0.00  0.00    +0.000 C 
ATOM      4  C   UNL     1      -1.035  11.684  20.623  0.00  0.00    +0.000 C 
ATOM      5  C   UNL     1      -2.365  12.315  20.218  0.00  0.00    +0.000 C 
ATOM      6  C   UNL     1      -2.880  13.257  21.293  0.00  0.00    +0.000 C 
ATOM      7  N   UNL     1      -2.991  12.593  22.593  0.00  0.00    +0.000 N 
ATOM      8  C   UNL     1      -4.075  12.679  23.478  0.00  0.00    +0.000 C 
ATOM      9  O   UNL     1      -4.114  12.063  24.540  0.00  0.00    +0.000 OA
ATOM     10  C   UNL     1      -1.794  11.871  23.044  0.00  0.00    +0.000 C 
ATOM     11  C   UNL     1      -1.229  10.953  21.959  0.00  0.00    +0.000 C 
ATOM     12  O   UNL     1      -0.683  10.710  19.617  0.00  0.00    +0.000 OA
ENDROOT
BRANCH   1  17
ATOM     13  C   UNL     1       2.621   6.610  18.897  0.00  0.00    +0.000 C 
ATOM     14  C   UNL     1       2.256   7.995  18.557  0.00  0.00    +0.000 A 
ATOM     15  N   UNL     1       2.561   8.560  17.382  0.00  0.00    +0.000 NA
ATOM     16  O   UNL     1       1.977   9.826  17.478  0.00  0.00    +0.000 OA
ATOM     17  C   UNL     1       1.384   9.888  18.707  0.00  0.00    +0.000 A 
ATOM     18  N   UNL     1       1.529   8.785  19.411  0.00  0.00    +0.000 NA
ENDBRANCH   1  17
BRANCH   8  19
ATOM     19  C   UNL     1      -5.262  13.503  23.155  0.00  0.00    +0.000 A 
ATOM     20  C   UNL     1      -5.427  14.826  23.551  0.00  0.00    +0.000 A 
ATOM     21  C   UNL     1      -6.563  15.488  23.133  0.00  0.00    +0.000 A 
ATOM     22  N   UNL     1      -7.532  14.889  22.414  0.00  0.00    +0.000 NA
ATOM     23  N   UNL     1      -7.412  13.572  22.095  0.00  0.00    +0.000 NA
ATOM     24  C   UNL     1      -6.299  12.900  22.464  0.00  0.00    +0.000 A 
ENDBRANCH   8  19
TORSDOF 2
ENDMDL
MODEL 9
REMARK VINA RESULT:      -6.8      3.885      6.692
REMARK  Name = 
REMARK  3 active torsions:
REMARK  status: ('A' for Active; 'I' for Inactive)
REMARK    1  A    between atoms: C_1  and  C_2
REMARK    2  A    between atoms: C_5  and  C_6
REMARK    3  A    between atoms: C_13  and  C_15
REMARK                            x       y       z     vdW  Elec       q    Type
REMARK                         _______ _______ _______ _____ _____    ______ ____
ROOT
ATOM      1  C   UNL     1       0.737  10.424  18.577  0.00  0.00    +0.000 C 
ATOM      2  C   UNL     1       1.434  11.489  19.399  0.00  0.00    +0.000 C 
ATOM      3  C   UNL     1       0.273  12.298  19.912  0.00  0.00    +0.000 C 
ATOM      4  C   UNL     1      -0.831  11.250  20.114  0.00  0.00    +0.000 C 
ATOM      5  C   UNL     1      -2.195  11.766  19.663  0.00  0.00    +0.000 C 
ATOM      6  C   UNL     1      -2.700  12.868  20.579  0.00  0.00    +0.000 C 
ATOM      7  N   UNL     1      -2.740  12.438  21.978  0.00  0.00    +0.000 N 
ATOM      8  C   UNL     1      -3.792  12.650  22.880  0.00  0.00    +0.000 C 
ATOM      9  O   UNL     1      -3.770  12.227  24.033  0.00  0.00    +0.000 OA
ATOM     10  C   UNL     1      -1.504  11.838  22.495  0.00  0.00    +0.000 C 
ATOM     11  C   UNL     1      -0.950  10.758  21.563  0.00  0.00    +0.000 C 
ATOM     12  O   UNL     1      -0.484  10.125  19.278  0.00  0.00    +0.000 OA
ENDROOT
BRANCH   1  17
ATOM     13  C   UNL     1       4.029   7.036  17.192  0.00  0.00    +0.000 C 
ATOM     14  C   UNL     1       2.981   7.749  17.941  0.00  0.00    +0.000 A 
ATOM     15  N   UNL     1       2.583   7.380  19.165  0.00  0.00    +0.000 NA
ATOM     16  O   UNL     1       1.642   8.357  19.501  0.00  0.00    +0.000 OA
ATOM     17  C   UNL     1       1.574   9.211  18.437  0.00  0.00    +0.000 A 
ATOM     18  N   UNL     1       2.379   8.878  17.450  0.00  0.00    +0.000 NA
ENDBRANCH   1  17
BRANCH   8  19
ATOM     19  C   UNL     1      -5.017  13.373  22.470  0.00  0.00    +0.000 A 
ATOM     20  C   UNL     1      -5.209  14.741  22.632  0.00  0.00    +0.000 A 
ATOM     21  C   UNL     1      -6.381  15.290  22.155  0.00  0.00    +0.000 A 
ATOM     22  N   UNL     1      -7.358  14.548  21.599  0.00  0.00    +0.000 NA
ATOM     23  N   UNL     1      -7.209  13.198  21.514  0.00  0.00    +0.000 NA
ATOM     24  C   UNL     1      -6.061  12.631  21.945  0.00  0.00    +0.000 A 
ENDBRANCH   8  19
TORSDOF 2
ENDMDL
